data_image0
_cell_length_a       10.3332
_cell_length_b       11.7635
_cell_length_c       20.4524
_cell_angle_alpha    90
_cell_angle_beta     90
_cell_angle_gamma    90

_symmetry_space_group_name_H-M    "P 1"
_symmetry_int_tables_number       1

loop_
  _symmetry_equiv_pos_as_xyz
  'x, y, z'

loop_
  _atom_site_label
  _atom_site_occupancy
  _atom_site_fract_x
  _atom_site_fract_y
  _atom_site_fract_z
  _atom_site_thermal_displace_type
  _atom_site_B_iso_or_equiv
  _atom_site_type_symbol
  Zn1      1.0000 0.45083  0.42233  0.00975  Biso   1.000  Zn
  Zn2      1.0000 0.13842  0.32406  0.00750  Biso   1.000  Zn
  O1       1.0000 0.33690  0.27260  0.00390  Biso   1.000  O
  O2       1.0000 0.45540  0.11810  0.98250  Biso   1.000  O
  O3       1.0000 0.11600  0.16000  0.99090  Biso   1.000  O
  C1       1.0000 0.35060  0.16950  0.98650  Biso   1.000  C
  C2       1.0000 0.22760  0.10530  0.96690  Biso   1.000  C
  H1       1.0000 0.23140  0.02650  0.98520  Biso   1.000  H
  C3       1.0000 0.22390  0.09830  0.89220  Biso   1.000  C
  H2       1.0000 0.16790  0.03520  0.87880  Biso   1.000  H
  H3       1.0000 0.31160  0.08550  0.87550  Biso   1.000  H
  H4       1.0000 0.18990  0.16960  0.87440  Biso   1.000  H
  O4       1.0000 0.36770  0.46150  0.09350  Biso   1.000  O
  O5       1.0000 0.17060  0.38060  0.09810  Biso   1.000  O
  C4       1.0000 0.26650  0.43150  0.12270  Biso   1.000  C
  C5       1.0000 0.25840  0.46180  0.19400  Biso   1.000  C
  C6       1.0000 0.17670  0.40010  0.23520  Biso   1.000  C
  H5       1.0000 0.12470  0.34030  0.21840  Biso   1.000  H
  C7       1.0000 0.17280  0.42770  0.30110  Biso   1.000  C
  H6       1.0000 0.11900  0.38490  0.32960  Biso   1.000  H
  C8       1.0000 0.24550  0.51600  0.32610  Biso   1.000  C
  C9       1.0000 0.32700  0.57590  0.28510  Biso   1.000  C
  H7       1.0000 0.37910  0.63550  0.30210  Biso   1.000  H
  C10      1.0000 0.33300  0.54940  0.21890  Biso   1.000  C
  H8       1.0000 0.38840  0.59140  0.19080  Biso   1.000  H
  C11      1.0000 0.23560  0.54840  0.39780  Biso   1.000  C
  O6       1.0000 0.13000  0.52650  0.42530  Biso   1.000  O
  O7       1.0000 0.33500  0.59090  0.42350  Biso   1.000  O
  Zn3      1.0000 0.04917  0.57767  0.50975  Biso   1.000  Zn
  Zn4      1.0000 0.36158  0.67594  0.50750  Biso   1.000  Zn
  O8       1.0000 0.16310  0.72740  0.50390  Biso   1.000  O
  O9       1.0000 0.04460  0.88190  0.48250  Biso   1.000  O
  O10      1.0000 0.38400  0.84000  0.49090  Biso   1.000  O
  C12      1.0000 0.14940  0.83050  0.48650  Biso   1.000  C
  C13      1.0000 0.27240  0.89470  0.46690  Biso   1.000  C
  H9       1.0000 0.26860  0.97350  0.48520  Biso   1.000  H
  C14      1.0000 0.27610  0.90170  0.39220  Biso   1.000  C
  H10      1.0000 0.33210  0.96480  0.37880  Biso   1.000  H
  H11      1.0000 0.18840  0.91450  0.37550  Biso   1.000  H
  H12      1.0000 0.31010  0.83040  0.37440  Biso   1.000  H
  O11      1.0000 0.13230  0.53850  0.59350  Biso   1.000  O
  O12      1.0000 0.32940  0.61940  0.59810  Biso   1.000  O
  C15      1.0000 0.23350  0.56850  0.62270  Biso   1.000  C
  C16      1.0000 0.24160  0.53820  0.69400  Biso   1.000  C
  C17      1.0000 0.32330  0.59990  0.73520  Biso   1.000  C
  H13      1.0000 0.37530  0.65970  0.71840  Biso   1.000  H
  C18      1.0000 0.32720  0.57230  0.80110  Biso   1.000  C
  H14      1.0000 0.38100  0.61510  0.82960  Biso   1.000  H
  C19      1.0000 0.25450  0.48400  0.82610  Biso   1.000  C
  C20      1.0000 0.17300  0.42410  0.78510  Biso   1.000  C
  H15      1.0000 0.12090  0.36450  0.80210  Biso   1.000  H
  C21      1.0000 0.16700  0.45060  0.71890  Biso   1.000  C
  H16      1.0000 0.11160  0.40860  0.69080  Biso   1.000  H
  C22      1.0000 0.26440  0.45160  0.89780  Biso   1.000  C
  O13      1.0000 0.37000  0.47350  0.92530  Biso   1.000  O
  O14      1.0000 0.16500  0.40910  0.92350  Biso   1.000  O
  Zn5      1.0000 0.54917  0.92233  0.49025  Biso   1.000  Zn
  Zn6      1.0000 0.86158  0.82406  0.49250  Biso   1.000  Zn
  O15      1.0000 0.66310  0.77260  0.49610  Biso   1.000  O
  O16      1.0000 0.54460  0.61810  0.51750  Biso   1.000  O
  O17      1.0000 0.88400  0.66000  0.50910  Biso   1.000  O
  C23      1.0000 0.64940  0.66950  0.51350  Biso   1.000  C
  C24      1.0000 0.77240  0.60530  0.53310  Biso   1.000  C
  H17      1.0000 0.76860  0.52650  0.51480  Biso   1.000  H
  C25      1.0000 0.77610  0.59830  0.60780  Biso   1.000  C
  H18      1.0000 0.83210  0.53520  0.62120  Biso   1.000  H
  H19      1.0000 0.68840  0.58550  0.62450  Biso   1.000  H
  H20      1.0000 0.81010  0.66960  0.62560  Biso   1.000  H
  O18      1.0000 0.63230  0.96150  0.40650  Biso   1.000  O
  O19      1.0000 0.82940  0.88060  0.40190  Biso   1.000  O
  C26      1.0000 0.73350  0.93150  0.37730  Biso   1.000  C
  C27      1.0000 0.74160  0.96180  0.30600  Biso   1.000  C
  C28      1.0000 0.82330  0.90010  0.26480  Biso   1.000  C
  H21      1.0000 0.87530  0.84030  0.28160  Biso   1.000  H
  C29      1.0000 0.82720  0.92770  0.19890  Biso   1.000  C
  H22      1.0000 0.88100  0.88490  0.17040  Biso   1.000  H
  C30      1.0000 0.75450  0.01600  0.17390  Biso   1.000  C
  C31      1.0000 0.67300  0.07590  0.21490  Biso   1.000  C
  H23      1.0000 0.62090  0.13550  0.19790  Biso   1.000  H
  C32      1.0000 0.66700  0.04940  0.28110  Biso   1.000  C
  H24      1.0000 0.61160  0.09140  0.30920  Biso   1.000  H
  C33      1.0000 0.76440  0.04840  0.10220  Biso   1.000  C
  O20      1.0000 0.87000  0.02650  0.07470  Biso   1.000  O
  O21      1.0000 0.66500  0.09090  0.07650  Biso   1.000  O
  Zn7      1.0000 0.95083  0.07767  0.99025  Biso   1.000  Zn
  Zn8      1.0000 0.63842  0.17594  0.99250  Biso   1.000  Zn
  O22      1.0000 0.83690  0.22740  0.99610  Biso   1.000  O
  O23      1.0000 0.95540  0.38190  0.01750  Biso   1.000  O
  O24      1.0000 0.61600  0.34000  0.00910  Biso   1.000  O
  C34      1.0000 0.85060  0.33050  0.01350  Biso   1.000  C
  C35      1.0000 0.72760  0.39470  0.03310  Biso   1.000  C
  H25      1.0000 0.73140  0.47350  0.01480  Biso   1.000  H
  C36      1.0000 0.72390  0.40170  0.10780  Biso   1.000  C
  H26      1.0000 0.66790  0.46480  0.12120  Biso   1.000  H
  H27      1.0000 0.81160  0.41450  0.12450  Biso   1.000  H
  H28      1.0000 0.68990  0.33040  0.12560  Biso   1.000  H
  O25      1.0000 0.86770  0.03850  0.90650  Biso   1.000  O
  O26      1.0000 0.67060  0.11940  0.90190  Biso   1.000  O
  C37      1.0000 0.76650  0.06850  0.87730  Biso   1.000  C
  C38      1.0000 0.75840  0.03820  0.80600  Biso   1.000  C
  C39      1.0000 0.67670  0.09990  0.76480  Biso   1.000  C
  H29      1.0000 0.62470  0.15970  0.78160  Biso   1.000  H
  C40      1.0000 0.67280  0.07230  0.69890  Biso   1.000  C
  H30      1.0000 0.61900  0.11510  0.67040  Biso   1.000  H
  C41      1.0000 0.74550  0.98400  0.67390  Biso   1.000  C
  C42      1.0000 0.82700  0.92410  0.71490  Biso   1.000  C
  H31      1.0000 0.87910  0.86450  0.69790  Biso   1.000  H
  C43      1.0000 0.83300  0.95060  0.78110  Biso   1.000  C
  H32      1.0000 0.88840  0.90860  0.80920  Biso   1.000  H
  C44      1.0000 0.73560  0.95160  0.60220  Biso   1.000  C
  O27      1.0000 0.63000  0.97350  0.57470  Biso   1.000  O
  O28      1.0000 0.83500  0.90910  0.57650  Biso   1.000  O
