data_EBIPIQ_clean
_audit_creation_date              2014-07-02
_audit_creation_method            'Materials Studio'
_symmetry_space_group_name_H-M    'P1'
_symmetry_Int_Tables_number       1
_symmetry_cell_setting            triclinic
loop_
_symmetry_equiv_pos_as_xyz
  x,y,z
_cell_length_a                    7.5798
_cell_length_b                    8.7849
_cell_length_c                    19.0560
_cell_angle_alpha                 94.1540
_cell_angle_beta                  96.8900
_cell_angle_gamma                 112.5800
loop_
_atom_site_label
_atom_site_type_symbol
_atom_site_fract_x
_atom_site_fract_y
_atom_site_fract_z
_atom_site_U_iso_or_equiv
_atom_site_adp_type
_atom_site_occupancy
Cu1    Cu    0.32000   0.14529   0.16641   0.01267  Uiso   1.00
Cu2    Cu    0.00510   0.29536   0.34890   0.01267  Uiso   1.00
Cu3    Cu    0.68000   0.85471   0.83359   0.01267  Uiso   1.00
Cu4    Cu    0.99490   0.70464   0.65110   0.01267  Uiso   1.00
H1     H     0.99160   0.65850   0.01080   0.01267  Uiso   1.00
H2     H     0.18550   0.62900   0.02360   0.01267  Uiso   1.00
H3     H     0.08260   0.66410   0.13240   0.01267  Uiso   1.00
H4     H     0.08580   0.48490   0.11950   0.01267  Uiso   1.00
H5     H     0.41340   0.46740   0.08930   0.01267  Uiso   1.00
H6     H     0.77650   0.27420   0.15820   0.01267  Uiso   1.00
H7     H     0.35160   0.85870   0.51910   0.01267  Uiso   1.00
H8     H     0.54370   0.85600   0.49560   0.01267  Uiso   1.00
H9     H     0.28460   0.73860   0.40040   0.01267  Uiso   1.00
H10    H     0.44710   0.89880   0.37980   0.01267  Uiso   1.00
H11    H     0.83980   0.97180   0.41970   0.01267  Uiso   1.00
H12    H     0.32650   0.12890   0.34420   0.01267  Uiso   1.00
H13    H     0.96910   0.73590   0.26380   0.01267  Uiso   1.00
H14    H     0.33550   0.69160   0.24350   0.01267  Uiso   1.00
H15    H     0.00840   0.34150   0.98920   0.01267  Uiso   1.00
H16    H     0.81450   0.37100   0.97640   0.01267  Uiso   1.00
H17    H     0.91740   0.33590   0.86760   0.01267  Uiso   1.00
H18    H     0.91420   0.51510   0.88050   0.01267  Uiso   1.00
H19    H     0.58660   0.53260   0.91070   0.01267  Uiso   1.00
H20    H     0.22350   0.72580   0.84180   0.01267  Uiso   1.00
H21    H     0.64840   0.14130   0.48090   0.01267  Uiso   1.00
H22    H     0.45630   0.14400   0.50440   0.01267  Uiso   1.00
H23    H     0.71540   0.26140   0.59960   0.01267  Uiso   1.00
H24    H     0.55290   0.10120   0.62020   0.01267  Uiso   1.00
H25    H     0.16020   0.02820   0.58030   0.01267  Uiso   1.00
H26    H     0.67350   0.87110   0.65580   0.01267  Uiso   1.00
H27    H     0.03090   0.26410   0.73620   0.01267  Uiso   1.00
H28    H     0.66450   0.30840   0.75650   0.01267  Uiso   1.00
C1     C     0.04670   0.57960   0.02590   0.01267  Uiso   1.00
C2     C     0.02110   0.55600   0.10250   0.01267  Uiso   1.00
C3     C     0.52880   0.45140   0.10040   0.01267  Uiso   1.00
C4     C     0.72140   0.34360   0.13830   0.01267  Uiso   1.00
C5     C     0.44870   0.90620   0.48840   0.01267  Uiso   1.00
C6     C     0.34980   0.85980   0.41110   0.01267  Uiso   1.00
C7     C     0.96050   0.98070   0.40840   0.01267  Uiso   1.00
C8     C     0.22280   0.06760   0.36690   0.01267  Uiso   1.00
C9     C     0.51530   0.58460   0.27910   0.01267  Uiso   1.00
C10    C     0.70730   0.59910   0.28660   0.01267  Uiso   1.00
C11    C     0.84040   0.72670   0.25920   0.01267  Uiso   1.00
C12    C     0.79080   0.84270   0.22490   0.01267  Uiso   1.00
C13    C     0.59790   0.82870   0.21840   0.01267  Uiso   1.00
C14    C     0.46370   0.70000   0.24660   0.01267  Uiso   1.00
C15    C     0.35310   0.43370   0.29750   0.01267  Uiso   1.00
C16    C     0.76620   0.48180   0.32580   0.01267  Uiso   1.00
C17    C     0.94200   0.98180   0.19670   0.01267  Uiso   1.00
C18    C     0.52140   0.93980   0.17960   0.01267  Uiso   1.00
C19    C     0.95330   0.42040   0.97410   0.01267  Uiso   1.00
C20    C     0.97890   0.44400   0.89750   0.01267  Uiso   1.00
C21    C     0.47120   0.54860   0.89960   0.01267  Uiso   1.00
C22    C     0.27860   0.65640   0.86170   0.01267  Uiso   1.00
C23    C     0.55130   0.09380   0.51160   0.01267  Uiso   1.00
C24    C     0.65020   0.14020   0.58890   0.01267  Uiso   1.00
C25    C     0.03950   0.01930   0.59160   0.01267  Uiso   1.00
C26    C     0.77720   0.93240   0.63310   0.01267  Uiso   1.00
C27    C     0.48470   0.41540   0.72090   0.01267  Uiso   1.00
C28    C     0.29270   0.40090   0.71340   0.01267  Uiso   1.00
C29    C     0.15960   0.27330   0.74080   0.01267  Uiso   1.00
C30    C     0.20920   0.15730   0.77510   0.01267  Uiso   1.00
C31    C     0.40210   0.17130   0.78160   0.01267  Uiso   1.00
C32    C     0.53630   0.30000   0.75340   0.01267  Uiso   1.00
C33    C     0.64690   0.56630   0.70250   0.01267  Uiso   1.00
C34    C     0.23380   0.51820   0.67420   0.01267  Uiso   1.00
C35    C     0.05800   0.01820   0.80330   0.01267  Uiso   1.00
C36    C     0.47860   0.06020   0.82040   0.01267  Uiso   1.00
N1     N     0.81640   0.48030   0.10990   0.01267  Uiso   1.00
N2     N     0.69280   0.55080   0.08510   0.01267  Uiso   1.00
N3     N     0.53770   0.32110   0.13390   0.01267  Uiso   1.00
N4     N     0.20790   0.93420   0.39770   0.01267  Uiso   1.00
N5     N     0.03970   0.87640   0.42590   0.01267  Uiso   1.00
N6     N     0.06790   0.10180   0.37290   0.01267  Uiso   1.00
N7     N     0.18360   0.51970   0.89010   0.01267  Uiso   1.00
N8     N     0.30720   0.44920   0.91490   0.01267  Uiso   1.00
N9     N     0.46230   0.67890   0.86610   0.01267  Uiso   1.00
N10    N     0.79210   0.06580   0.60230   0.01267  Uiso   1.00
N11    N     0.96030   0.12360   0.57410   0.01267  Uiso   1.00
N12    N     0.93210   0.89820   0.62710   0.01267  Uiso   1.00
O1     O     0.30420   0.30110   0.25890   0.01267  Uiso   1.00
O2     O     0.26670   0.45700   0.34674   0.01267  Uiso   1.00
O3     O     0.91670   0.46220   0.31178   0.01267  Uiso   1.00
O4     O     0.66360   0.40780   0.36990   0.01267  Uiso   1.00
O5     O     0.10000   0.96580   0.19131   0.01267  Uiso   1.00
O6     O     0.90160   0.09880   0.18070   0.01267  Uiso   1.00
O7     O     0.49400   0.05150   0.21956   0.01267  Uiso   1.00
O8     O     0.47200   0.91160   0.11434   0.01267  Uiso   1.00
O9     O     0.69580   0.69890   0.74110   0.01267  Uiso   1.00
O10    O     0.73330   0.54300   0.65326   0.01267  Uiso   1.00
O11    O     0.08330   0.53780   0.68822   0.01267  Uiso   1.00
O12    O     0.33640   0.59220   0.63010   0.01267  Uiso   1.00
O13    O     0.90000   0.03420   0.80869   0.01267  Uiso   1.00
O14    O     0.09840   0.90120   0.81930   0.01267  Uiso   1.00
O15    O     0.50600   0.94850   0.78044   0.01267  Uiso   1.00
O16    O     0.52800   0.08840   0.88566   0.01267  Uiso   1.00
