data_image0
_cell_length_a       8.5983
_cell_length_b       13.1561
_cell_length_c       13.46
_cell_angle_alpha    90
_cell_angle_beta     92.47
_cell_angle_gamma    90

_symmetry_space_group_name_H-M    "P 1"
_symmetry_int_tables_number       1

loop_
  _symmetry_equiv_pos_as_xyz
  'x, y, z'

loop_
  _atom_site_label
  _atom_site_occupancy
  _atom_site_fract_x
  _atom_site_fract_y
  _atom_site_fract_z
  _atom_site_thermal_displace_type
  _atom_site_B_iso_or_equiv
  _atom_site_type_symbol
  Be1      1.0000 0.57830  0.11960  0.25050  Biso   1.000  Be
  Be2      1.0000 0.15620  0.99540  0.23950  Biso   1.000  Be
  Be3      1.0000 0.67700  0.82620  0.40460  Biso   1.000  Be
  P1       1.0000 0.30853  0.13665  0.37579  Biso   1.000  P
  H1       1.0000 0.29700  0.23800  0.35900  Biso   1.000  H
  P2       1.0000 0.34087  0.10041  0.09261  Biso   1.000  P
  H2       1.0000 0.36000  0.07300  0.99000  Biso   1.000  H
  P3       1.0000 0.60424  0.34124  0.22833  Biso   1.000  P
  H3       1.0000 0.53200  0.37780  0.31610  Biso   1.000  H
  P4       1.0000 0.81211  0.95391  0.24883  Biso   1.000  P
  H4       1.0000 0.73400  0.92000  0.16800  Biso   1.000  H
  O1       1.0000 0.46310  0.09761  0.34086  Biso   1.000  O
  O2       1.0000 0.50170  0.09475  0.14257  Biso   1.000  O
  O3       1.0000 0.63630  0.23533  0.26471  Biso   1.000  O
  O4       1.0000 0.73610  0.05449  0.27050  Biso   1.000  O
  O5       1.0000 0.17110  0.09024  0.31845  Biso   1.000  O
  O6       1.0000 0.22530  0.02654  0.13365  Biso   1.000  O
  O7       1.0000 0.97570  0.96850  0.21888  Biso   1.000  O
  O8       1.0000 0.80150  0.87857  0.33271  Biso   1.000  O
  O9       1.0000 0.29740  0.11930  0.48664  Biso   1.000  O
  O10      1.0000 0.27490  0.20713  0.08997  Biso   1.000  O
  O11      1.0000 0.75700  0.39515  0.21216  Biso   1.000  O
  O12      1.0000 0.50280  0.34341  0.13332  Biso   1.000  O
  Be4      1.0000 0.42170  0.61960  0.24950  Biso   1.000  Be
  Be5      1.0000 0.84380  0.49540  0.26050  Biso   1.000  Be
  Be6      1.0000 0.32300  0.32620  0.09540  Biso   1.000  Be
  P5       1.0000 0.69147  0.63665  0.12421  Biso   1.000  P
  H5       1.0000 0.70300  0.73800  0.14100  Biso   1.000  H
  P6       1.0000 0.65913  0.60041  0.40739  Biso   1.000  P
  H6       1.0000 0.64000  0.57300  0.51000  Biso   1.000  H
  P7       1.0000 0.39576  0.84124  0.27167  Biso   1.000  P
  H7       1.0000 0.46800  0.87780  0.18390  Biso   1.000  H
  P8       1.0000 0.18789  0.45391  0.25117  Biso   1.000  P
  H8       1.0000 0.26600  0.42000  0.33200  Biso   1.000  H
  O13      1.0000 0.53690  0.59761  0.15914  Biso   1.000  O
  O14      1.0000 0.49830  0.59475  0.35743  Biso   1.000  O
  O15      1.0000 0.36370  0.73533  0.23529  Biso   1.000  O
  O16      1.0000 0.26390  0.55449  0.22950  Biso   1.000  O
  O17      1.0000 0.82890  0.59024  0.18155  Biso   1.000  O
  O18      1.0000 0.77470  0.52654  0.36635  Biso   1.000  O
  O19      1.0000 0.02430  0.46850  0.28112  Biso   1.000  O
  O20      1.0000 0.19850  0.37857  0.16729  Biso   1.000  O
  O21      1.0000 0.70260  0.61930  0.01336  Biso   1.000  O
  O22      1.0000 0.72510  0.70713  0.41003  Biso   1.000  O
  O23      1.0000 0.24300  0.89515  0.28784  Biso   1.000  O
  O24      1.0000 0.49720  0.84341  0.36668  Biso   1.000  O
  Be7      1.0000 0.42170  0.88040  0.74950  Biso   1.000  Be
  Be8      1.0000 0.84380  0.00460  0.76050  Biso   1.000  Be
  Be9      1.0000 0.32300  0.17380  0.59540  Biso   1.000  Be
  P9       1.0000 0.69147  0.86335  0.62421  Biso   1.000  P
  H9       1.0000 0.70300  0.76200  0.64100  Biso   1.000  H
  P10      1.0000 0.65913  0.89959  0.90739  Biso   1.000  P
  H10      1.0000 0.64000  0.92700  0.01000  Biso   1.000  H
  P11      1.0000 0.39576  0.65876  0.77167  Biso   1.000  P
  H11      1.0000 0.46800  0.62220  0.68390  Biso   1.000  H
  P12      1.0000 0.18789  0.04609  0.75117  Biso   1.000  P
  H12      1.0000 0.26600  0.08000  0.83200  Biso   1.000  H
  O25      1.0000 0.53690  0.90239  0.65914  Biso   1.000  O
  O26      1.0000 0.49830  0.90525  0.85743  Biso   1.000  O
  O27      1.0000 0.36370  0.76467  0.73529  Biso   1.000  O
  O28      1.0000 0.26390  0.94551  0.72950  Biso   1.000  O
  O29      1.0000 0.82890  0.90976  0.68155  Biso   1.000  O
  O30      1.0000 0.77470  0.97346  0.86635  Biso   1.000  O
  O31      1.0000 0.02430  0.03150  0.78112  Biso   1.000  O
  O32      1.0000 0.19850  0.12143  0.66729  Biso   1.000  O
  O33      1.0000 0.70260  0.88070  0.51336  Biso   1.000  O
  O34      1.0000 0.72510  0.79287  0.91003  Biso   1.000  O
  O35      1.0000 0.24300  0.60485  0.78784  Biso   1.000  O
  O36      1.0000 0.49720  0.65659  0.86668  Biso   1.000  O
  Be10     1.0000 0.57830  0.38040  0.75050  Biso   1.000  Be
  Be11     1.0000 0.15620  0.50460  0.73950  Biso   1.000  Be
  Be12     1.0000 0.67700  0.67380  0.90460  Biso   1.000  Be
  P13      1.0000 0.30853  0.36335  0.87579  Biso   1.000  P
  H13      1.0000 0.29700  0.26200  0.85900  Biso   1.000  H
  P14      1.0000 0.34087  0.39959  0.59261  Biso   1.000  P
  H14      1.0000 0.36000  0.42700  0.49000  Biso   1.000  H
  P15      1.0000 0.60424  0.15876  0.72833  Biso   1.000  P
  H15      1.0000 0.53200  0.12220  0.81610  Biso   1.000  H
  P16      1.0000 0.81211  0.54609  0.74883  Biso   1.000  P
  H16      1.0000 0.73400  0.58000  0.66800  Biso   1.000  H
  O37      1.0000 0.46310  0.40239  0.84086  Biso   1.000  O
  O38      1.0000 0.50170  0.40525  0.64257  Biso   1.000  O
  O39      1.0000 0.63630  0.26467  0.76471  Biso   1.000  O
  O40      1.0000 0.73610  0.44551  0.77050  Biso   1.000  O
  O41      1.0000 0.17110  0.40976  0.81845  Biso   1.000  O
  O42      1.0000 0.22530  0.47346  0.63365  Biso   1.000  O
  O43      1.0000 0.97570  0.53150  0.71888  Biso   1.000  O
  O44      1.0000 0.80150  0.62143  0.83271  Biso   1.000  O
  O45      1.0000 0.29740  0.38070  0.98664  Biso   1.000  O
  O46      1.0000 0.27490  0.29287  0.58997  Biso   1.000  O
  O47      1.0000 0.75700  0.10485  0.71216  Biso   1.000  O
  O48      1.0000 0.50280  0.15659  0.63332  Biso   1.000  O
