data_image0
_cell_length_a       8.8979
_cell_length_b       21.4587
_cell_length_c       13.4851
_cell_angle_alpha    90
_cell_angle_beta     96.7804
_cell_angle_gamma    90

_symmetry_space_group_name_H-M    "P 1"
_symmetry_int_tables_number       1

loop_
  _symmetry_equiv_pos_as_xyz
  'x, y, z'

loop_
  _atom_site_label
  _atom_site_occupancy
  _atom_site_fract_x
  _atom_site_fract_y
  _atom_site_fract_z
  _atom_site_thermal_displace_type
  _atom_site_B_iso_or_equiv
  _atom_site_type_symbol
  O1       1.0000 0.60280  0.70593  0.84632  Biso   1.000  O
  O2       1.0000 0.70710  0.62298  0.92190  Biso   1.000  O
  N1       1.0000 0.35330  0.59490  0.81818  Biso   1.000  N
  C1       1.0000 0.68710  0.67905  0.91680  Biso   1.000  C
  C2       1.0000 0.76100  0.72009  0.99670  Biso   1.000  C
  H1       1.0000 0.82840  0.70160  0.04600  Biso   1.000  H
  C3       1.0000 0.39770  0.54151  0.86520  Biso   1.000  C
  H2       1.0000 0.49520  0.52700  0.86100  Biso   1.000  H
  C4       1.0000 0.30410  0.50750  0.91930  Biso   1.000  C
  H3       1.0000 0.33830  0.47060  0.95030  Biso   1.000  H
  C5       1.0000 0.15980  0.52854  0.92740  Biso   1.000  C
  C6       1.0000 0.11430  0.58322  0.87810  Biso   1.000  C
  H4       1.0000 0.01780  0.59900  0.88190  Biso   1.000  H
  C7       1.0000 0.21280  0.61410  0.82330  Biso   1.000  C
  H5       1.0000 0.17920  0.64990  0.78860  Biso   1.000  H
  C8       1.0000 0.06720  0.49230  0.99080  Biso   1.000  C
  H6       1.0000 0.10840  0.45580  0.01940  Biso   1.000  H
  O3       1.0000 0.10280  0.20593  0.84632  Biso   1.000  O
  O4       1.0000 0.20710  0.12298  0.92190  Biso   1.000  O
  N2       1.0000 0.85330  0.09490  0.81818  Biso   1.000  N
  C9       1.0000 0.18710  0.17905  0.91680  Biso   1.000  C
  C10      1.0000 0.26100  0.22009  0.99670  Biso   1.000  C
  H7       1.0000 0.32840  0.20160  0.04600  Biso   1.000  H
  C11      1.0000 0.89770  0.04151  0.86520  Biso   1.000  C
  H8       1.0000 0.99520  0.02700  0.86100  Biso   1.000  H
  C12      1.0000 0.80410  0.00750  0.91930  Biso   1.000  C
  H9       1.0000 0.83830  0.97060  0.95030  Biso   1.000  H
  C13      1.0000 0.65980  0.02854  0.92740  Biso   1.000  C
  C14      1.0000 0.61430  0.08322  0.87810  Biso   1.000  C
  H10      1.0000 0.51780  0.09900  0.88190  Biso   1.000  H
  C15      1.0000 0.71280  0.11410  0.82330  Biso   1.000  C
  H11      1.0000 0.67920  0.14990  0.78860  Biso   1.000  H
  C16      1.0000 0.56720  0.99230  0.99080  Biso   1.000  C
  H12      1.0000 0.60840  0.95580  0.01940  Biso   1.000  H
  O5       1.0000 0.39720  0.70593  0.65368  Biso   1.000  O
  O6       1.0000 0.29290  0.62298  0.57810  Biso   1.000  O
  N3       1.0000 0.64670  0.59490  0.68182  Biso   1.000  N
  C17      1.0000 0.31290  0.67905  0.58320  Biso   1.000  C
  C18      1.0000 0.23900  0.72009  0.50330  Biso   1.000  C
  H13      1.0000 0.17160  0.70160  0.45400  Biso   1.000  H
  C19      1.0000 0.60230  0.54151  0.63480  Biso   1.000  C
  H14      1.0000 0.50480  0.52700  0.63900  Biso   1.000  H
  C20      1.0000 0.69590  0.50750  0.58070  Biso   1.000  C
  H15      1.0000 0.66170  0.47060  0.54970  Biso   1.000  H
  C21      1.0000 0.84020  0.52854  0.57260  Biso   1.000  C
  C22      1.0000 0.88570  0.58322  0.62190  Biso   1.000  C
  H16      1.0000 0.98220  0.59900  0.61810  Biso   1.000  H
  C23      1.0000 0.78720  0.61410  0.67670  Biso   1.000  C
  H17      1.0000 0.82080  0.64990  0.71140  Biso   1.000  H
  C24      1.0000 0.93280  0.49230  0.50920  Biso   1.000  C
  H18      1.0000 0.89160  0.45580  0.48060  Biso   1.000  H
  O7       1.0000 0.89720  0.20593  0.65368  Biso   1.000  O
  O8       1.0000 0.79290  0.12298  0.57810  Biso   1.000  O
  N4       1.0000 0.14670  0.09490  0.68182  Biso   1.000  N
  C25      1.0000 0.81290  0.17905  0.58320  Biso   1.000  C
  C26      1.0000 0.73900  0.22009  0.50330  Biso   1.000  C
  H19      1.0000 0.67160  0.20160  0.45400  Biso   1.000  H
  C27      1.0000 0.10230  0.04151  0.63480  Biso   1.000  C
  H20      1.0000 0.00480  0.02700  0.63900  Biso   1.000  H
  C28      1.0000 0.19590  0.00750  0.58070  Biso   1.000  C
  H21      1.0000 0.16170  0.97060  0.54970  Biso   1.000  H
  C29      1.0000 0.34020  0.02854  0.57260  Biso   1.000  C
  C30      1.0000 0.38570  0.08322  0.62190  Biso   1.000  C
  H22      1.0000 0.48220  0.09900  0.61810  Biso   1.000  H
  C31      1.0000 0.28720  0.11410  0.67670  Biso   1.000  C
  H23      1.0000 0.32080  0.14990  0.71140  Biso   1.000  H
  C32      1.0000 0.43280  0.99230  0.50920  Biso   1.000  C
  H24      1.0000 0.39160  0.95580  0.48060  Biso   1.000  H
  O9       1.0000 0.39720  0.29407  0.15368  Biso   1.000  O
  O10      1.0000 0.29290  0.37702  0.07810  Biso   1.000  O
  N5       1.0000 0.64670  0.40510  0.18182  Biso   1.000  N
  C33      1.0000 0.31290  0.32095  0.08320  Biso   1.000  C
  C34      1.0000 0.23900  0.27991  0.00330  Biso   1.000  C
  H25      1.0000 0.17160  0.29840  0.95400  Biso   1.000  H
  C35      1.0000 0.60230  0.45849  0.13480  Biso   1.000  C
  H26      1.0000 0.50480  0.47300  0.13900  Biso   1.000  H
  C36      1.0000 0.69590  0.49250  0.08070  Biso   1.000  C
  H27      1.0000 0.66170  0.52940  0.04970  Biso   1.000  H
  C37      1.0000 0.84020  0.47146  0.07260  Biso   1.000  C
  C38      1.0000 0.88570  0.41678  0.12190  Biso   1.000  C
  H28      1.0000 0.98220  0.40100  0.11810  Biso   1.000  H
  C39      1.0000 0.78720  0.38590  0.17670  Biso   1.000  C
  H29      1.0000 0.82080  0.35010  0.21140  Biso   1.000  H
  C40      1.0000 0.93280  0.50770  0.00920  Biso   1.000  C
  H30      1.0000 0.89160  0.54420  0.98060  Biso   1.000  H
  O11      1.0000 0.89720  0.79407  0.15368  Biso   1.000  O
  O12      1.0000 0.79290  0.87702  0.07810  Biso   1.000  O
  N6       1.0000 0.14670  0.90510  0.18182  Biso   1.000  N
  C41      1.0000 0.81290  0.82095  0.08320  Biso   1.000  C
  C42      1.0000 0.73900  0.77991  0.00330  Biso   1.000  C
  H31      1.0000 0.67160  0.79840  0.95400  Biso   1.000  H
  C43      1.0000 0.10230  0.95849  0.13480  Biso   1.000  C
  H32      1.0000 0.00480  0.97300  0.13900  Biso   1.000  H
  C44      1.0000 0.19590  0.99250  0.08070  Biso   1.000  C
  H33      1.0000 0.16170  0.02940  0.04970  Biso   1.000  H
  C45      1.0000 0.34020  0.97146  0.07260  Biso   1.000  C
  C46      1.0000 0.38570  0.91678  0.12190  Biso   1.000  C
  H34      1.0000 0.48220  0.90100  0.11810  Biso   1.000  H
  C47      1.0000 0.28720  0.88590  0.17670  Biso   1.000  C
  H35      1.0000 0.32080  0.85010  0.21140  Biso   1.000  H
  C48      1.0000 0.43280  0.00770  0.00920  Biso   1.000  C
  H36      1.0000 0.39160  0.04420  0.98060  Biso   1.000  H
  O13      1.0000 0.60280  0.29407  0.34632  Biso   1.000  O
  O14      1.0000 0.70710  0.37702  0.42190  Biso   1.000  O
  N7       1.0000 0.35330  0.40510  0.31818  Biso   1.000  N
  C49      1.0000 0.68710  0.32095  0.41680  Biso   1.000  C
  C50      1.0000 0.76100  0.27991  0.49670  Biso   1.000  C
  H37      1.0000 0.82840  0.29840  0.54600  Biso   1.000  H
  C51      1.0000 0.39770  0.45849  0.36520  Biso   1.000  C
  H38      1.0000 0.49520  0.47300  0.36100  Biso   1.000  H
  C52      1.0000 0.30410  0.49250  0.41930  Biso   1.000  C
  H39      1.0000 0.33830  0.52940  0.45030  Biso   1.000  H
  C53      1.0000 0.15980  0.47146  0.42740  Biso   1.000  C
  C54      1.0000 0.11430  0.41678  0.37810  Biso   1.000  C
  H40      1.0000 0.01780  0.40100  0.38190  Biso   1.000  H
  C55      1.0000 0.21280  0.38590  0.32330  Biso   1.000  C
  H41      1.0000 0.17920  0.35010  0.28860  Biso   1.000  H
  C56      1.0000 0.06720  0.50770  0.49080  Biso   1.000  C
  H42      1.0000 0.10840  0.54420  0.51940  Biso   1.000  H
  O15      1.0000 0.10280  0.79407  0.34632  Biso   1.000  O
  O16      1.0000 0.20710  0.87702  0.42190  Biso   1.000  O
  N8       1.0000 0.85330  0.90510  0.31818  Biso   1.000  N
  C57      1.0000 0.18710  0.82095  0.41680  Biso   1.000  C
  C58      1.0000 0.26100  0.77991  0.49670  Biso   1.000  C
  H43      1.0000 0.32840  0.79840  0.54600  Biso   1.000  H
  C59      1.0000 0.89770  0.95849  0.36520  Biso   1.000  C
  H44      1.0000 0.99520  0.97300  0.36100  Biso   1.000  H
  C60      1.0000 0.80410  0.99250  0.41930  Biso   1.000  C
  H45      1.0000 0.83830  0.02940  0.45030  Biso   1.000  H
  C61      1.0000 0.65980  0.97146  0.42740  Biso   1.000  C
  C62      1.0000 0.61430  0.91678  0.37810  Biso   1.000  C
  H46      1.0000 0.51780  0.90100  0.38190  Biso   1.000  H
  C63      1.0000 0.71280  0.88590  0.32330  Biso   1.000  C
  H47      1.0000 0.67920  0.85010  0.28860  Biso   1.000  H
  C64      1.0000 0.56720  0.00770  0.49080  Biso   1.000  C
  H48      1.0000 0.60840  0.04420  0.51940  Biso   1.000  H
  Zn1      1.0000 0.50000  0.64732  0.75000  Biso   1.000  Zn
  Zn2      1.0000 0.00000  0.14732  0.75000  Biso   1.000  Zn
  Zn3      1.0000 0.50000  0.35268  0.25000  Biso   1.000  Zn
  Zn4      1.0000 0.00000  0.85268  0.25000  Biso   1.000  Zn
