data_image0
_cell_length_a       12.471
_cell_length_b       13.306
_cell_length_c       15.711
_cell_angle_alpha    90
_cell_angle_beta     90
_cell_angle_gamma    90

_symmetry_space_group_name_H-M    "P 1"
_symmetry_int_tables_number       1

loop_
  _symmetry_equiv_pos_as_xyz
  'x, y, z'

loop_
  _atom_site_label
  _atom_site_occupancy
  _atom_site_fract_x
  _atom_site_fract_y
  _atom_site_fract_z
  _atom_site_thermal_displace_type
  _atom_site_B_iso_or_equiv
  _atom_site_type_symbol
  C1       1.0000 0.96780  0.31970  0.12910  Biso   1.000  C
  C2       1.0000 0.01070  0.38210  0.05820  Biso   1.000  C
  H1       1.0000 0.06740  0.35540  0.02720  Biso   1.000  H
  C3       1.0000 0.97600  0.47180  0.03530  Biso   1.000  C
  H2       1.0000 0.91900  0.50030  0.06490  Biso   1.000  H
  C4       1.0000 0.72600  0.31340  0.40720  Biso   1.000  C
  H3       1.0000 0.76740  0.26540  0.43490  Biso   1.000  H
  C5       1.0000 0.65290  0.36860  0.45360  Biso   1.000  C
  H4       1.0000 0.64450  0.35690  0.51160  Biso   1.000  H
  C6       1.0000 0.59260  0.44110  0.41380  Biso   1.000  C
  C7       1.0000 0.60480  0.45580  0.32940  Biso   1.000  C
  H5       1.0000 0.56450  0.50430  0.30120  Biso   1.000  H
  C8       1.0000 0.67560  0.39970  0.28720  Biso   1.000  C
  H6       1.0000 0.68200  0.41120  0.22900  Biso   1.000  H
  C9       1.0000 0.51370  0.50550  0.46130  Biso   1.000  C
  H7       1.0000 0.48220  0.55810  0.43140  Biso   1.000  H
  N1       1.0000 0.73910  0.32730  0.32140  Biso   1.000  N
  O1       1.0000 0.89240  0.36310  0.17330  Biso   1.000  O
  O2       1.0000 0.99190  0.23240  0.14050  Biso   1.000  O
  C10      1.0000 0.96780  0.18030  0.37090  Biso   1.000  C
  C11      1.0000 0.01070  0.11790  0.44180  Biso   1.000  C
  H8       1.0000 0.06740  0.14460  0.47280  Biso   1.000  H
  C12      1.0000 0.97600  0.02820  0.46470  Biso   1.000  C
  H9       1.0000 0.91900  0.99970  0.43510  Biso   1.000  H
  C13      1.0000 0.72600  0.18660  0.09280  Biso   1.000  C
  H10      1.0000 0.76740  0.23460  0.06510  Biso   1.000  H
  C14      1.0000 0.65290  0.13140  0.04640  Biso   1.000  C
  H11      1.0000 0.64450  0.14310  0.98840  Biso   1.000  H
  C15      1.0000 0.59260  0.05890  0.08620  Biso   1.000  C
  C16      1.0000 0.60480  0.04420  0.17060  Biso   1.000  C
  H12      1.0000 0.56450  0.99570  0.19880  Biso   1.000  H
  C17      1.0000 0.67560  0.10030  0.21280  Biso   1.000  C
  H13      1.0000 0.68200  0.08880  0.27100  Biso   1.000  H
  C18      1.0000 0.51370  0.99450  0.03870  Biso   1.000  C
  H14      1.0000 0.48220  0.94190  0.06860  Biso   1.000  H
  N2       1.0000 0.73910  0.17270  0.17860  Biso   1.000  N
  O3       1.0000 0.89240  0.13690  0.32670  Biso   1.000  O
  O4       1.0000 0.99190  0.26760  0.35950  Biso   1.000  O
  C19      1.0000 0.03220  0.68030  0.87090  Biso   1.000  C
  C20      1.0000 0.98930  0.61790  0.94180  Biso   1.000  C
  H15      1.0000 0.93260  0.64460  0.97280  Biso   1.000  H
  C21      1.0000 0.02400  0.52820  0.96470  Biso   1.000  C
  H16      1.0000 0.08100  0.49970  0.93510  Biso   1.000  H
  C22      1.0000 0.27400  0.68660  0.59280  Biso   1.000  C
  H17      1.0000 0.23260  0.73460  0.56510  Biso   1.000  H
  C23      1.0000 0.34710  0.63140  0.54640  Biso   1.000  C
  H18      1.0000 0.35550  0.64310  0.48840  Biso   1.000  H
  C24      1.0000 0.40740  0.55890  0.58620  Biso   1.000  C
  C25      1.0000 0.39520  0.54420  0.67060  Biso   1.000  C
  H19      1.0000 0.43550  0.49570  0.69880  Biso   1.000  H
  C26      1.0000 0.32440  0.60030  0.71280  Biso   1.000  C
  H20      1.0000 0.31800  0.58880  0.77100  Biso   1.000  H
  C27      1.0000 0.48630  0.49450  0.53870  Biso   1.000  C
  H21      1.0000 0.51780  0.44190  0.56860  Biso   1.000  H
  N3       1.0000 0.26090  0.67270  0.67860  Biso   1.000  N
  O5       1.0000 0.10760  0.63690  0.82670  Biso   1.000  O
  O6       1.0000 0.00810  0.76760  0.85950  Biso   1.000  O
  C28      1.0000 0.03220  0.81970  0.62910  Biso   1.000  C
  C29      1.0000 0.98930  0.88210  0.55820  Biso   1.000  C
  H22      1.0000 0.93260  0.85540  0.52720  Biso   1.000  H
  C30      1.0000 0.02400  0.97180  0.53530  Biso   1.000  C
  H23      1.0000 0.08100  0.00030  0.56490  Biso   1.000  H
  C31      1.0000 0.27400  0.81340  0.90720  Biso   1.000  C
  H24      1.0000 0.23260  0.76540  0.93490  Biso   1.000  H
  C32      1.0000 0.34710  0.86860  0.95360  Biso   1.000  C
  H25      1.0000 0.35550  0.85690  0.01160  Biso   1.000  H
  C33      1.0000 0.40740  0.94110  0.91380  Biso   1.000  C
  C34      1.0000 0.39520  0.95580  0.82940  Biso   1.000  C
  H26      1.0000 0.43550  0.00430  0.80120  Biso   1.000  H
  C35      1.0000 0.32440  0.89970  0.78720  Biso   1.000  C
  H27      1.0000 0.31800  0.91120  0.72900  Biso   1.000  H
  C36      1.0000 0.48630  0.00550  0.96130  Biso   1.000  C
  H28      1.0000 0.51780  0.05810  0.93140  Biso   1.000  H
  N4       1.0000 0.26090  0.82730  0.82140  Biso   1.000  N
  O7       1.0000 0.10760  0.86310  0.67330  Biso   1.000  O
  O8       1.0000 0.00810  0.73240  0.64050  Biso   1.000  O
  Zn1      1.0000 0.85009  0.25000  0.25000  Biso   1.000  Zn
  Zn2      1.0000 0.14991  0.75000  0.75000  Biso   1.000  Zn
  C37      1.0000 0.53220  0.68030  0.12910  Biso   1.000  C
  C38      1.0000 0.48930  0.61790  0.05820  Biso   1.000  C
  H29      1.0000 0.43260  0.64460  0.02720  Biso   1.000  H
  C39      1.0000 0.52400  0.52820  0.03530  Biso   1.000  C
  H30      1.0000 0.58100  0.49970  0.06490  Biso   1.000  H
  C40      1.0000 0.77400  0.68660  0.40720  Biso   1.000  C
  H31      1.0000 0.73260  0.73460  0.43490  Biso   1.000  H
  C41      1.0000 0.84710  0.63140  0.45360  Biso   1.000  C
  H32      1.0000 0.85550  0.64310  0.51160  Biso   1.000  H
  C42      1.0000 0.90740  0.55890  0.41380  Biso   1.000  C
  C43      1.0000 0.89520  0.54420  0.32940  Biso   1.000  C
  H33      1.0000 0.93550  0.49570  0.30120  Biso   1.000  H
  C44      1.0000 0.82440  0.60030  0.28720  Biso   1.000  C
  H34      1.0000 0.81800  0.58880  0.22900  Biso   1.000  H
  C45      1.0000 0.98630  0.49450  0.46130  Biso   1.000  C
  H35      1.0000 0.01780  0.44190  0.43140  Biso   1.000  H
  N5       1.0000 0.76090  0.67270  0.32140  Biso   1.000  N
  O9       1.0000 0.60760  0.63690  0.17330  Biso   1.000  O
  O10      1.0000 0.50810  0.76760  0.14050  Biso   1.000  O
  C46      1.0000 0.53220  0.81970  0.37090  Biso   1.000  C
  C47      1.0000 0.48930  0.88210  0.44180  Biso   1.000  C
  H36      1.0000 0.43260  0.85540  0.47280  Biso   1.000  H
  C48      1.0000 0.52400  0.97180  0.46470  Biso   1.000  C
  H37      1.0000 0.58100  0.00030  0.43510  Biso   1.000  H
  C49      1.0000 0.77400  0.81340  0.09280  Biso   1.000  C
  H38      1.0000 0.73260  0.76540  0.06510  Biso   1.000  H
  C50      1.0000 0.84710  0.86860  0.04640  Biso   1.000  C
  H39      1.0000 0.85550  0.85690  0.98840  Biso   1.000  H
  C51      1.0000 0.90740  0.94110  0.08620  Biso   1.000  C
  C52      1.0000 0.89520  0.95580  0.17060  Biso   1.000  C
  H40      1.0000 0.93550  0.00430  0.19880  Biso   1.000  H
  C53      1.0000 0.82440  0.89970  0.21280  Biso   1.000  C
  H41      1.0000 0.81800  0.91120  0.27100  Biso   1.000  H
  C54      1.0000 0.98630  0.00550  0.03870  Biso   1.000  C
  H42      1.0000 0.01780  0.05810  0.06860  Biso   1.000  H
  N6       1.0000 0.76090  0.82730  0.17860  Biso   1.000  N
  O11      1.0000 0.60760  0.86310  0.32670  Biso   1.000  O
  O12      1.0000 0.50810  0.73240  0.35950  Biso   1.000  O
  C55      1.0000 0.46780  0.31970  0.87090  Biso   1.000  C
  C56      1.0000 0.51070  0.38210  0.94180  Biso   1.000  C
  H43      1.0000 0.56740  0.35540  0.97280  Biso   1.000  H
  C57      1.0000 0.47600  0.47180  0.96470  Biso   1.000  C
  H44      1.0000 0.41900  0.50030  0.93510  Biso   1.000  H
  C58      1.0000 0.22600  0.31340  0.59280  Biso   1.000  C
  H45      1.0000 0.26740  0.26540  0.56510  Biso   1.000  H
  C59      1.0000 0.15290  0.36860  0.54640  Biso   1.000  C
  H46      1.0000 0.14450  0.35690  0.48840  Biso   1.000  H
  C60      1.0000 0.09260  0.44110  0.58620  Biso   1.000  C
  C61      1.0000 0.10480  0.45580  0.67060  Biso   1.000  C
  H47      1.0000 0.06450  0.50430  0.69880  Biso   1.000  H
  C62      1.0000 0.17560  0.39970  0.71280  Biso   1.000  C
  H48      1.0000 0.18200  0.41120  0.77100  Biso   1.000  H
  C63      1.0000 0.01370  0.50550  0.53870  Biso   1.000  C
  H49      1.0000 0.98220  0.55810  0.56860  Biso   1.000  H
  N7       1.0000 0.23910  0.32730  0.67860  Biso   1.000  N
  O13      1.0000 0.39240  0.36310  0.82670  Biso   1.000  O
  O14      1.0000 0.49190  0.23240  0.85950  Biso   1.000  O
  C64      1.0000 0.46780  0.18030  0.62910  Biso   1.000  C
  C65      1.0000 0.51070  0.11790  0.55820  Biso   1.000  C
  H50      1.0000 0.56740  0.14460  0.52720  Biso   1.000  H
  C66      1.0000 0.47600  0.02820  0.53530  Biso   1.000  C
  H51      1.0000 0.41900  0.99970  0.56490  Biso   1.000  H
  C67      1.0000 0.22600  0.18660  0.90720  Biso   1.000  C
  H52      1.0000 0.26740  0.23460  0.93490  Biso   1.000  H
  C68      1.0000 0.15290  0.13140  0.95360  Biso   1.000  C
  H53      1.0000 0.14450  0.14310  0.01160  Biso   1.000  H
  C69      1.0000 0.09260  0.05890  0.91380  Biso   1.000  C
  C70      1.0000 0.10480  0.04420  0.82940  Biso   1.000  C
  H54      1.0000 0.06450  0.99570  0.80120  Biso   1.000  H
  C71      1.0000 0.17560  0.10030  0.78720  Biso   1.000  C
  H55      1.0000 0.18200  0.08880  0.72900  Biso   1.000  H
  C72      1.0000 0.01370  0.99450  0.96130  Biso   1.000  C
  H56      1.0000 0.98220  0.94190  0.93140  Biso   1.000  H
  N8       1.0000 0.23910  0.17270  0.82140  Biso   1.000  N
  O15      1.0000 0.39240  0.13690  0.67330  Biso   1.000  O
  O16      1.0000 0.49190  0.26760  0.64050  Biso   1.000  O
  Zn3      1.0000 0.64991  0.75000  0.25000  Biso   1.000  Zn
  Zn4      1.0000 0.35009  0.25000  0.75000  Biso   1.000  Zn
