data_image0
_cell_length_a       25.953
_cell_length_b       11.015
_cell_length_c       13.246
_cell_angle_alpha    90
_cell_angle_beta     119.16
_cell_angle_gamma    90

_symmetry_space_group_name_H-M    "P 1"
_symmetry_int_tables_number       1

loop_
  _symmetry_equiv_pos_as_xyz
  'x, y, z'

loop_
  _atom_site_label
  _atom_site_occupancy
  _atom_site_fract_x
  _atom_site_fract_y
  _atom_site_fract_z
  _atom_site_thermal_displace_type
  _atom_site_B_iso_or_equiv
  _atom_site_type_symbol
  O1       1.0000 0.42600  0.13700  0.81800  Biso   1.000  O
  O2       1.0000 0.43400  0.13900  0.07000  Biso   1.000  O
  O3       1.0000 0.40700  0.36800  0.92400  Biso   1.000  O
  O4       1.0000 0.51100  0.35100  0.17000  Biso   1.000  O
  O5       1.0000 0.39900  0.37000  0.20300  Biso   1.000  O
  O6       1.0000 0.43400  0.22600  0.32000  Biso   1.000  O
  O7       1.0000 0.46700  0.18000  0.63900  Biso   1.000  O
  O8       1.0000 0.40500  0.34000  0.63600  Biso   1.000  O
  C1       1.0000 0.40600  0.31700  0.29500  Biso   1.000  C
  C2       1.0000 0.40100  0.37600  0.38500  Biso   1.000  C
  C3       1.0000 0.44700  0.36600  0.50400  Biso   1.000  C
  C4       1.0000 0.43600  0.28800  0.58900  Biso   1.000  C
  O9       1.0000 0.92600  0.63700  0.81800  Biso   1.000  O
  O10      1.0000 0.93400  0.63900  0.07000  Biso   1.000  O
  O11      1.0000 0.90700  0.86800  0.92400  Biso   1.000  O
  O12      1.0000 0.01100  0.85100  0.17000  Biso   1.000  O
  O13      1.0000 0.89900  0.87000  0.20300  Biso   1.000  O
  O14      1.0000 0.93400  0.72600  0.32000  Biso   1.000  O
  O15      1.0000 0.96700  0.68000  0.63900  Biso   1.000  O
  O16      1.0000 0.90500  0.84000  0.63600  Biso   1.000  O
  C5       1.0000 0.90600  0.81700  0.29500  Biso   1.000  C
  C6       1.0000 0.90100  0.87600  0.38500  Biso   1.000  C
  C7       1.0000 0.94700  0.86600  0.50400  Biso   1.000  C
  C8       1.0000 0.93600  0.78800  0.58900  Biso   1.000  C
  O17      1.0000 0.57400  0.13700  0.18200  Biso   1.000  O
  O18      1.0000 0.56600  0.13900  0.93000  Biso   1.000  O
  O19      1.0000 0.59300  0.36800  0.07600  Biso   1.000  O
  O20      1.0000 0.48900  0.35100  0.83000  Biso   1.000  O
  O21      1.0000 0.60100  0.37000  0.79700  Biso   1.000  O
  O22      1.0000 0.56600  0.22600  0.68000  Biso   1.000  O
  O23      1.0000 0.53300  0.18000  0.36100  Biso   1.000  O
  O24      1.0000 0.59500  0.34000  0.36400  Biso   1.000  O
  C9       1.0000 0.59400  0.31700  0.70500  Biso   1.000  C
  C10      1.0000 0.59900  0.37600  0.61500  Biso   1.000  C
  C11      1.0000 0.55300  0.36600  0.49600  Biso   1.000  C
  C12      1.0000 0.56400  0.28800  0.41100  Biso   1.000  C
  O25      1.0000 0.07400  0.63700  0.18200  Biso   1.000  O
  O26      1.0000 0.06600  0.63900  0.93000  Biso   1.000  O
  O27      1.0000 0.09300  0.86800  0.07600  Biso   1.000  O
  O28      1.0000 0.98900  0.85100  0.83000  Biso   1.000  O
  O29      1.0000 0.10100  0.87000  0.79700  Biso   1.000  O
  O30      1.0000 0.06600  0.72600  0.68000  Biso   1.000  O
  O31      1.0000 0.03300  0.68000  0.36100  Biso   1.000  O
  O32      1.0000 0.09500  0.84000  0.36400  Biso   1.000  O
  C13      1.0000 0.09400  0.81700  0.70500  Biso   1.000  C
  C14      1.0000 0.09900  0.87600  0.61500  Biso   1.000  C
  C15      1.0000 0.05300  0.86600  0.49600  Biso   1.000  C
  C16      1.0000 0.06400  0.78800  0.41100  Biso   1.000  C
  O33      1.0000 0.57400  0.86300  0.18200  Biso   1.000  O
  O34      1.0000 0.56600  0.86100  0.93000  Biso   1.000  O
  O35      1.0000 0.59300  0.63200  0.07600  Biso   1.000  O
  O36      1.0000 0.48900  0.64900  0.83000  Biso   1.000  O
  O37      1.0000 0.60100  0.63000  0.79700  Biso   1.000  O
  O38      1.0000 0.56600  0.77400  0.68000  Biso   1.000  O
  O39      1.0000 0.53300  0.82000  0.36100  Biso   1.000  O
  O40      1.0000 0.59500  0.66000  0.36400  Biso   1.000  O
  C17      1.0000 0.59400  0.68300  0.70500  Biso   1.000  C
  C18      1.0000 0.59900  0.62400  0.61500  Biso   1.000  C
  C19      1.0000 0.55300  0.63400  0.49600  Biso   1.000  C
  C20      1.0000 0.56400  0.71200  0.41100  Biso   1.000  C
  O41      1.0000 0.07400  0.36300  0.18200  Biso   1.000  O
  O42      1.0000 0.06600  0.36100  0.93000  Biso   1.000  O
  O43      1.0000 0.09300  0.13200  0.07600  Biso   1.000  O
  O44      1.0000 0.98900  0.14900  0.83000  Biso   1.000  O
  O45      1.0000 0.10100  0.13000  0.79700  Biso   1.000  O
  O46      1.0000 0.06600  0.27400  0.68000  Biso   1.000  O
  O47      1.0000 0.03300  0.32000  0.36100  Biso   1.000  O
  O48      1.0000 0.09500  0.16000  0.36400  Biso   1.000  O
  C21      1.0000 0.09400  0.18300  0.70500  Biso   1.000  C
  C22      1.0000 0.09900  0.12400  0.61500  Biso   1.000  C
  C23      1.0000 0.05300  0.13400  0.49600  Biso   1.000  C
  C24      1.0000 0.06400  0.21200  0.41100  Biso   1.000  C
  O49      1.0000 0.42600  0.86300  0.81800  Biso   1.000  O
  O50      1.0000 0.43400  0.86100  0.07000  Biso   1.000  O
  O51      1.0000 0.40700  0.63200  0.92400  Biso   1.000  O
  O52      1.0000 0.51100  0.64900  0.17000  Biso   1.000  O
  O53      1.0000 0.39900  0.63000  0.20300  Biso   1.000  O
  O54      1.0000 0.43400  0.77400  0.32000  Biso   1.000  O
  O55      1.0000 0.46700  0.82000  0.63900  Biso   1.000  O
  O56      1.0000 0.40500  0.66000  0.63600  Biso   1.000  O
  C25      1.0000 0.40600  0.68300  0.29500  Biso   1.000  C
  C26      1.0000 0.40100  0.62400  0.38500  Biso   1.000  C
  C27      1.0000 0.44700  0.63400  0.50400  Biso   1.000  C
  C28      1.0000 0.43600  0.71200  0.58900  Biso   1.000  C
  O57      1.0000 0.92600  0.36300  0.81800  Biso   1.000  O
  O58      1.0000 0.93400  0.36100  0.07000  Biso   1.000  O
  O59      1.0000 0.90700  0.13200  0.92400  Biso   1.000  O
  O60      1.0000 0.01100  0.14900  0.17000  Biso   1.000  O
  O61      1.0000 0.89900  0.13000  0.20300  Biso   1.000  O
  O62      1.0000 0.93400  0.27400  0.32000  Biso   1.000  O
  O63      1.0000 0.96700  0.32000  0.63900  Biso   1.000  O
  O64      1.0000 0.90500  0.16000  0.63600  Biso   1.000  O
  C29      1.0000 0.90600  0.18300  0.29500  Biso   1.000  C
  C30      1.0000 0.90100  0.12400  0.38500  Biso   1.000  C
  C31      1.0000 0.94700  0.13400  0.50400  Biso   1.000  C
  C32      1.0000 0.93600  0.21200  0.58900  Biso   1.000  C
  Eu1      1.0000 0.50000  0.24080  0.00000  Biso   1.000  Eu
  Eu2      1.0000 0.00000  0.74080  0.00000  Biso   1.000  Eu
  Eu3      1.0000 0.50000  0.75920  0.00000  Biso   1.000  Eu
  Eu4      1.0000 0.00000  0.25920  0.00000  Biso   1.000  Eu
  Eu5      1.0000 0.49370  0.00000  0.79280  Biso   1.000  Eu
  Eu6      1.0000 0.38480  0.00000  0.90220  Biso   1.000  Eu
  O65      1.0000 0.56700  0.00000  0.74300  Biso   1.000  O
  O66      1.0000 0.36200  0.00000  0.07300  Biso   1.000  O
  C33      1.0000 0.62200  0.00000  0.81600  Biso   1.000  C
  Eu7      1.0000 0.99370  0.50000  0.79280  Biso   1.000  Eu
  Eu8      1.0000 0.88480  0.50000  0.90220  Biso   1.000  Eu
  O67      1.0000 0.06700  0.50000  0.74300  Biso   1.000  O
  O68      1.0000 0.86200  0.50000  0.07300  Biso   1.000  O
  C34      1.0000 0.12200  0.50000  0.81600  Biso   1.000  C
  Eu9      1.0000 0.50630  0.00000  0.20720  Biso   1.000  Eu
  Eu10     1.0000 0.61520  0.00000  0.09780  Biso   1.000  Eu
  O69      1.0000 0.43300  0.00000  0.25700  Biso   1.000  O
  O70      1.0000 0.63800  0.00000  0.92700  Biso   1.000  O
  C35      1.0000 0.37800  0.00000  0.18400  Biso   1.000  C
  Eu11     1.0000 0.00630  0.50000  0.20720  Biso   1.000  Eu
  Eu12     1.0000 0.11520  0.50000  0.09780  Biso   1.000  Eu
  O71      1.0000 0.93300  0.50000  0.25700  Biso   1.000  O
  O72      1.0000 0.13800  0.50000  0.92700  Biso   1.000  O
  C36      1.0000 0.87800  0.50000  0.18400  Biso   1.000  C
  Eu13     1.0000 0.42120  0.50000  0.08290  Biso   1.000  Eu
  Eu14     1.0000 0.40640  0.50000  0.77340  Biso   1.000  Eu
  O73      1.0000 0.31300  0.50000  0.98500  Biso   1.000  O
  O74      1.0000 0.23500  0.50000  0.01300  Biso   1.000  O
  C37      1.0000 0.25600  0.50000  0.94400  Biso   1.000  C
  C38      1.0000 0.22100  0.50000  0.82600  Biso   1.000  C
  C39      1.0000 0.16300  0.50000  0.76900  Biso   1.000  C
  Eu15     1.0000 0.92120  0.00000  0.08290  Biso   1.000  Eu
  Eu16     1.0000 0.90640  0.00000  0.77340  Biso   1.000  Eu
  O75      1.0000 0.81300  0.00000  0.98500  Biso   1.000  O
  O76      1.0000 0.73500  0.00000  0.01300  Biso   1.000  O
  C40      1.0000 0.75600  0.00000  0.94400  Biso   1.000  C
  C41      1.0000 0.72100  0.00000  0.82600  Biso   1.000  C
  C42      1.0000 0.66300  0.00000  0.76900  Biso   1.000  C
  Eu17     1.0000 0.57880  0.50000  0.91710  Biso   1.000  Eu
  Eu18     1.0000 0.59360  0.50000  0.22660  Biso   1.000  Eu
  O77      1.0000 0.68700  0.50000  0.01500  Biso   1.000  O
  O78      1.0000 0.76500  0.50000  0.98700  Biso   1.000  O
  C43      1.0000 0.74400  0.50000  0.05600  Biso   1.000  C
  C44      1.0000 0.77900  0.50000  0.17400  Biso   1.000  C
  C45      1.0000 0.83700  0.50000  0.23100  Biso   1.000  C
  Eu19     1.0000 0.07880  0.00000  0.91710  Biso   1.000  Eu
  Eu20     1.0000 0.09360  0.00000  0.22660  Biso   1.000  Eu
  O79      1.0000 0.18700  0.00000  0.01500  Biso   1.000  O
  O80      1.0000 0.26500  0.00000  0.98700  Biso   1.000  O
  C46      1.0000 0.24400  0.00000  0.05600  Biso   1.000  C
  C47      1.0000 0.27900  0.00000  0.17400  Biso   1.000  C
  C48      1.0000 0.33700  0.00000  0.23100  Biso   1.000  C
  O81      1.0000 0.50000  0.50000  0.00000  Biso   1.000  O
  O82      1.0000 0.00000  0.00000  0.00000  Biso   1.000  O
  O83      1.0000 0.50000  0.00000  0.00000  Biso   1.000  O
  O84      1.0000 0.00000  0.50000  0.00000  Biso   1.000  O
