data_image0
_cell_length_a       12.0591
_cell_length_b       19.1647
_cell_length_c       4.9114
_cell_angle_alpha    90
_cell_angle_beta     90
_cell_angle_gamma    90

_symmetry_space_group_name_H-M    "P 1"
_symmetry_int_tables_number       1

loop_
  _symmetry_equiv_pos_as_xyz
  'x, y, z'

loop_
  _atom_site_label
  _atom_site_occupancy
  _atom_site_fract_x
  _atom_site_fract_y
  _atom_site_fract_z
  _atom_site_thermal_displace_type
  _atom_site_B_iso_or_equiv
  _atom_site_type_symbol
  P1       1.0000 0.01543  0.10471  0.50240  Biso   1.000  P
  F1       1.0000 0.14610  0.01350  0.92630  Biso   1.000  F
  O1       1.0000 0.00300  0.08533  0.20030  Biso   1.000  O
  O2       1.0000 0.14240  0.11020  0.53440  Biso   1.000  O
  O3       1.0000 0.95870  0.04920  0.68280  Biso   1.000  O
  C1       1.0000 0.94840  0.18758  0.55920  Biso   1.000  C
  P2       1.0000 0.48457  0.39529  0.50240  Biso   1.000  P
  F2       1.0000 0.35390  0.48650  0.92630  Biso   1.000  F
  O4       1.0000 0.49700  0.41467  0.20030  Biso   1.000  O
  O5       1.0000 0.35760  0.38980  0.53440  Biso   1.000  O
  O6       1.0000 0.54130  0.45080  0.68280  Biso   1.000  O
  C2       1.0000 0.55160  0.31242  0.55920  Biso   1.000  C
  P3       1.0000 0.98457  0.60471  0.49760  Biso   1.000  P
  F3       1.0000 0.85390  0.51350  0.07370  Biso   1.000  F
  O7       1.0000 0.99700  0.58533  0.79970  Biso   1.000  O
  O8       1.0000 0.85760  0.61020  0.46560  Biso   1.000  O
  O9       1.0000 0.04130  0.54920  0.31720  Biso   1.000  O
  C3       1.0000 0.05160  0.68758  0.44080  Biso   1.000  C
  P4       1.0000 0.51543  0.89529  0.49760  Biso   1.000  P
  F4       1.0000 0.64610  0.98650  0.07370  Biso   1.000  F
  O10      1.0000 0.50300  0.91467  0.79970  Biso   1.000  O
  O11      1.0000 0.64240  0.88980  0.46560  Biso   1.000  O
  O12      1.0000 0.45870  0.95080  0.31720  Biso   1.000  O
  C4       1.0000 0.44840  0.81242  0.44080  Biso   1.000  C
  P5       1.0000 0.98457  0.89529  0.49760  Biso   1.000  P
  F5       1.0000 0.85390  0.98650  0.07370  Biso   1.000  F
  O13      1.0000 0.99700  0.91467  0.79970  Biso   1.000  O
  O14      1.0000 0.85760  0.88980  0.46560  Biso   1.000  O
  O15      1.0000 0.04130  0.95080  0.31720  Biso   1.000  O
  C5       1.0000 0.05160  0.81242  0.44080  Biso   1.000  C
  P6       1.0000 0.51543  0.60471  0.49760  Biso   1.000  P
  F6       1.0000 0.64610  0.51350  0.07370  Biso   1.000  F
  O16      1.0000 0.50300  0.58533  0.79970  Biso   1.000  O
  O17      1.0000 0.64240  0.61020  0.46560  Biso   1.000  O
  O18      1.0000 0.45870  0.54920  0.31720  Biso   1.000  O
  C6       1.0000 0.44840  0.68758  0.44080  Biso   1.000  C
  P7       1.0000 0.01543  0.39529  0.50240  Biso   1.000  P
  F7       1.0000 0.14610  0.48650  0.92630  Biso   1.000  F
  O19      1.0000 0.00300  0.41467  0.20030  Biso   1.000  O
  O20      1.0000 0.14240  0.38980  0.53440  Biso   1.000  O
  O21      1.0000 0.95870  0.45080  0.68280  Biso   1.000  O
  C7       1.0000 0.94840  0.31242  0.55920  Biso   1.000  C
  P8       1.0000 0.48457  0.10471  0.50240  Biso   1.000  P
  F8       1.0000 0.35390  0.01350  0.92630  Biso   1.000  F
  O22      1.0000 0.49700  0.08533  0.20030  Biso   1.000  O
  O23      1.0000 0.35760  0.11020  0.53440  Biso   1.000  O
  O24      1.0000 0.54130  0.04920  0.68280  Biso   1.000  O
  C8       1.0000 0.55160  0.18758  0.55920  Biso   1.000  C
  Al1      1.0000 0.25000  0.06234  0.73370  Biso   1.000  Al
  Al2      1.0000 0.25000  0.43766  0.73370  Biso   1.000  Al
  Al3      1.0000 0.75000  0.56234  0.26630  Biso   1.000  Al
  Al4      1.0000 0.75000  0.93766  0.26630  Biso   1.000  Al
  C9       1.0000 0.01240  0.25000  0.45140  Biso   1.000  C
  C10      1.0000 0.48760  0.25000  0.45140  Biso   1.000  C
  C11      1.0000 0.98760  0.75000  0.54860  Biso   1.000  C
  C12      1.0000 0.51240  0.75000  0.54860  Biso   1.000  C
  Al5      1.0000 0.00000  0.00000  0.00000  Biso   1.000  Al
  Al6      1.0000 0.50000  0.50000  0.00000  Biso   1.000  Al
  Al7      1.0000 0.00000  0.50000  0.00000  Biso   1.000  Al
  Al8      1.0000 0.50000  0.00000  0.00000  Biso   1.000  Al
