data_EBUFUE_clean
_audit_creation_date              2014-07-02
_audit_creation_method            'Materials Studio'
_symmetry_space_group_name_H-M    'P1'
_symmetry_Int_Tables_number       1
_symmetry_cell_setting            triclinic
loop_
_symmetry_equiv_pos_as_xyz
  x,y,z
_cell_length_a                    16.8396
_cell_length_b                    21.4863
_cell_length_c                    21.4863
_cell_angle_alpha                 81.1666
_cell_angle_beta                  66.9292
_cell_angle_gamma                 66.9291
loop_
_atom_site_label
_atom_site_type_symbol
_atom_site_fract_x
_atom_site_fract_y
_atom_site_fract_z
_atom_site_U_iso_or_equiv
_atom_site_adp_type
_atom_site_occupancy
Co1    Co    0.35814   0.24238   0.53798   0.01267  Uiso   1.00
Co2    Co    0.63850   0.25762   0.96202   0.01267  Uiso   1.00
Co3    Co    0.89612   0.46202   0.74238   0.01267  Uiso   1.00
Co4    Co    0.60051   0.03799   0.75762   0.01267  Uiso   1.00
H1     H     0.36760   0.14170   0.65330   0.01267  Uiso   1.00
H2     H     0.29910   0.12880   0.76620   0.01267  Uiso   1.00
H3     H     0.12490   0.31910   0.77470   0.01267  Uiso   1.00
H4     H     0.19970   0.32610   0.66090   0.01267  Uiso   1.00
H5     H     0.20520   0.13270   0.98770   0.01267  Uiso   1.00
H6     H     0.27650   0.14720   0.87420   0.01267  Uiso   1.00
H7     H     0.03030   0.27640   0.87300   0.01267  Uiso   1.00
H8     H     0.97060   0.25770   0.98730   0.01267  Uiso   1.00
H9     H     0.49770   0.15000   0.41420   0.01267  Uiso   1.00
H10    H     0.55140   0.15030   0.29890   0.01267  Uiso   1.00
H11    H     0.39330   0.34480   0.30580   0.01267  Uiso   1.00
H12    H     0.34520   0.33880   0.42060   0.01267  Uiso   1.00
H13    H     0.62930   0.54030   0.55630   0.01267  Uiso   1.00
H14    H     0.75160   0.50930   0.59350   0.01267  Uiso   1.00
H15    H     0.57950   0.50090   0.78450   0.01267  Uiso   1.00
H16    H     0.45700   0.53200   0.74740   0.01267  Uiso   1.00
H17    H     0.31070   0.56090   0.61570   0.01267  Uiso   1.00
H18    H     0.28660   0.47970   0.57310   0.01267  Uiso   1.00
H19    H     0.52710   0.34160   0.58000   0.01267  Uiso   1.00
H20    H     0.55130   0.42270   0.62250   0.01267  Uiso   1.00
H21    H     0.66260   0.35830   0.84670   0.01267  Uiso   1.00
H22    H     0.69410   0.37120   0.73380   0.01267  Uiso   1.00
H23    H     0.71870   0.18090   0.72530   0.01267  Uiso   1.00
H24    H     0.68670   0.17390   0.83910   0.01267  Uiso   1.00
H25    H     0.82560   0.36730   0.51230   0.01267  Uiso   1.00
H26    H     0.79790   0.35280   0.62580   0.01267  Uiso   1.00
H27    H     0.67970   0.22360   0.62700   0.01267  Uiso   1.00
H28    H     0.71560   0.24230   0.51270   0.01267  Uiso   1.00
H29    H     0.56190   0.35000   0.08580   0.01267  Uiso   1.00
H30    H     0.50060   0.34970   0.20110   0.01267  Uiso   1.00
H31    H     0.54390   0.15520   0.19420   0.01267  Uiso   1.00
H32    H     0.60460   0.16120   0.07940   0.01267  Uiso   1.00
H33    H     0.22590   0.95970   0.94370   0.01267  Uiso   1.00
H34    H     0.35440   0.99070   0.90650   0.01267  Uiso   1.00
H35    H     0.36490   0.99910   0.71550   0.01267  Uiso   1.00
H36    H     0.23640   0.96800   0.75260   0.01267  Uiso   1.00
H37    H     0.98730   0.93910   0.88430   0.01267  Uiso   1.00
H38    H     0.83940   0.02030   0.92690   0.01267  Uiso   1.00
H39    H     0.94870   0.15840   0.92000   0.01267  Uiso   1.00
H40    H     0.09650   0.07730   0.87750   0.01267  Uiso   1.00
H41    H     0.02090   0.34670   0.64170   0.01267  Uiso   1.00
H42    H     0.06530   0.23380   0.62880   0.01267  Uiso   1.00
H43    H     0.89960   0.22530   0.81910   0.01267  Uiso   1.00
H44    H     0.86060   0.33910   0.82610   0.01267  Uiso   1.00
H45    H     0.19290   0.01230   0.63270   0.01267  Uiso   1.00
H46    H     0.15070   0.12580   0.64720   0.01267  Uiso   1.00
H47    H     0.90330   0.12700   0.77640   0.01267  Uiso   1.00
H48    H     0.95790   0.01270   0.75770   0.01267  Uiso   1.00
H49    H     0.91190   0.58580   0.65000   0.01267  Uiso   1.00
H50    H     0.85030   0.70110   0.65030   0.01267  Uiso   1.00
H51    H     0.69910   0.69420   0.84480   0.01267  Uiso   1.00
H52    H     0.76580   0.57940   0.83880   0.01267  Uiso   1.00
H53    H     0.18560   0.44370   0.04030   0.01267  Uiso   1.00
H54    H     0.34510   0.40650   0.00930   0.01267  Uiso   1.00
H55    H     0.36400   0.21550   0.00090   0.01267  Uiso   1.00
H56    H     0.20440   0.25260   0.03200   0.01267  Uiso   1.00
H57    H     0.92640   0.38430   0.06090   0.01267  Uiso   1.00
H58    H     0.85970   0.42690   0.97970   0.01267  Uiso   1.00
H59    H     0.10710   0.42000   0.84160   0.01267  Uiso   1.00
H60    H     0.17380   0.37750   0.92270   0.01267  Uiso   1.00
H61    H     0.50930   0.15330   0.85830   0.01267  Uiso   1.00
H62    H     0.42790   0.26620   0.87120   0.01267  Uiso   1.00
H63    H     0.44400   0.27470   0.68090   0.01267  Uiso   1.00
H64    H     0.52580   0.16090   0.67390   0.01267  Uiso   1.00
H65    H     0.33790   0.48770   0.86730   0.01267  Uiso   1.00
H66    H     0.42370   0.37420   0.85280   0.01267  Uiso   1.00
H67    H     0.30670   0.37300   0.72360   0.01267  Uiso   1.00
H68    H     0.22830   0.48730   0.74230   0.01267  Uiso   1.00
H69    H     0.64770   0.91420   0.85000   0.01267  Uiso   1.00
H70    H     0.70170   0.79890   0.84970   0.01267  Uiso   1.00
H71    H     0.73810   0.80580   0.65520   0.01267  Uiso   1.00
H72    H     0.68400   0.92060   0.66120   0.01267  Uiso   1.00
H73    H     0.16960   0.05630   0.45970   0.01267  Uiso   1.00
H74    H     0.26090   0.09350   0.49070   0.01267  Uiso   1.00
H75    H     0.08040   0.28450   0.49910   0.01267  Uiso   1.00
H76    H     0.98900   0.24740   0.46800   0.01267  Uiso   1.00
H77    H     0.87160   0.11570   0.43910   0.01267  Uiso   1.00
H78    H     0.76630   0.07310   0.52030   0.01267  Uiso   1.00
H79    H     0.86870   0.08000   0.65840   0.01267  Uiso   1.00
H80    H     0.97400   0.12250   0.57730   0.01267  Uiso   1.00
C1     C     0.31805   0.17834   0.67796   0.01267  Uiso   1.00
C2     C     0.27730   0.17028   0.74612   0.01267  Uiso   1.00
C3     C     0.20446   0.22286   0.78502   0.01267  Uiso   1.00
C4     C     0.17501   0.28185   0.75133   0.01267  Uiso   1.00
C5     C     0.22051   0.28536   0.68242   0.01267  Uiso   1.00
C6     C     0.16920   0.16220   0.96420   0.01267  Uiso   1.00
C7     C     0.21313   0.17038   0.89556   0.01267  Uiso   1.00
C8     C     0.16079   0.21395   0.85907   0.01267  Uiso   1.00
C9     C     0.06874   0.24658   0.89454   0.01267  Uiso   1.00
C10    C     0.03340   0.23430   0.96390   0.01267  Uiso   1.00
C11    C     0.47681   0.19020   0.39198   0.01267  Uiso   1.00
C12    C     0.50973   0.19007   0.32247   0.01267  Uiso   1.00
C13    C     0.48098   0.24882   0.28782   0.01267  Uiso   1.00
C14    C     0.41719   0.30421   0.32641   0.01267  Uiso   1.00
C15    C     0.38804   0.29997   0.39575   0.01267  Uiso   1.00
C16    C     0.37970   0.35070   0.55550   0.01267  Uiso   1.00
C17    C     0.76040   0.48450   0.70770   0.01267  Uiso   1.00
C18    C     0.53100   0.53930   0.64810   0.01267  Uiso   1.00
C19    C     0.61930   0.53240   0.60200   0.01267  Uiso   1.00
C20    C     0.69260   0.51380   0.62440   0.01267  Uiso   1.00
C21    C     0.67770   0.50190   0.69270   0.01267  Uiso   1.00
C22    C     0.58940   0.50880   0.73880   0.01267  Uiso   1.00
C23    C     0.51610   0.52750   0.71650   0.01267  Uiso   1.00
C24    C     0.43340   0.49990   0.62330   0.01267  Uiso   1.00
C25    C     0.35410   0.51690   0.60850   0.01267  Uiso   1.00
C26    C     0.33960   0.46830   0.58310   0.01267  Uiso   1.00
C27    C     0.40440   0.40260   0.57240   0.01267  Uiso   1.00
C28    C     0.48380   0.38550   0.58710   0.01267  Uiso   1.00
C29    C     0.49820   0.43420   0.61260   0.01267  Uiso   1.00
C30    C     0.67435   0.32166   0.82204   0.01267  Uiso   1.00
C31    C     0.69370   0.32972   0.75388   0.01267  Uiso   1.00
C32    C     0.71234   0.27714   0.71498   0.01267  Uiso   1.00
C33    C     0.70819   0.21815   0.74867   0.01267  Uiso   1.00
C34    C     0.68829   0.21464   0.81758   0.01267  Uiso   1.00
C35    C     0.79560   0.33780   0.53580   0.01267  Uiso   1.00
C36    C     0.77907   0.32962   0.60444   0.01267  Uiso   1.00
C37    C     0.73381   0.28605   0.64093   0.01267  Uiso   1.00
C38    C     0.70986   0.25342   0.60546   0.01267  Uiso   1.00
C39    C     0.73160   0.26570   0.53610   0.01267  Uiso   1.00
C40    C     0.55899   0.30980   0.10802   0.01267  Uiso   1.00
C41    C     0.52227   0.30993   0.17753   0.01267  Uiso   1.00
C42    C     0.51762   0.25118   0.21218   0.01267  Uiso   1.00
C43    C     0.54781   0.19579   0.17359   0.01267  Uiso   1.00
C44    C     0.58376   0.20003   0.10425   0.01267  Uiso   1.00
C45    C     0.78590   0.14930   0.94450   0.01267  Uiso   1.00
C46    C     0.45260   0.01550   0.79230   0.01267  Uiso   1.00
C47    C     0.21840   0.96070   0.85190   0.01267  Uiso   1.00
C48    C     0.25370   0.96760   0.89800   0.01267  Uiso   1.00
C49    C     0.33080   0.98620   0.87560   0.01267  Uiso   1.00
C50    C     0.37230   0.99810   0.80730   0.01267  Uiso   1.00
C51    C     0.33700   0.99120   0.76120   0.01267  Uiso   1.00
C52    C     0.26010   0.97250   0.78350   0.01267  Uiso   1.00
C53    C     0.05660   0.00010   0.87670   0.01267  Uiso   1.00
C54    C     0.97950   0.98310   0.89150   0.01267  Uiso   1.00
C55    C     0.89100   0.03170   0.91690   0.01267  Uiso   1.00
C56    C     0.87940   0.09740   0.92760   0.01267  Uiso   1.00
C57    C     0.95640   0.11450   0.91290   0.01267  Uiso   1.00
C58    C     0.04500   0.06580   0.88740   0.01267  Uiso   1.00
C59    C     0.99601   0.32204   0.67834   0.01267  Uiso   1.00
C60    C     0.02342   0.25388   0.67028   0.01267  Uiso   1.00
C61    C     0.98948   0.21498   0.72286   0.01267  Uiso   1.00
C62    C     0.92634   0.24867   0.78185   0.01267  Uiso   1.00
C63    C     0.90293   0.31758   0.78536   0.01267  Uiso   1.00
C64    C     0.13340   0.03580   0.66220   0.01267  Uiso   1.00
C65    C     0.10869   0.10444   0.67038   0.01267  Uiso   1.00
C66    C     0.01986   0.14093   0.71395   0.01267  Uiso   1.00
C67    C     0.96328   0.10546   0.74658   0.01267  Uiso   1.00
C68    C     0.99730   0.03610   0.73430   0.01267  Uiso   1.00
C69    C     0.86879   0.60802   0.69020   0.01267  Uiso   1.00
C70    C     0.83220   0.67753   0.69007   0.01267  Uiso   1.00
C71    C     0.76880   0.71218   0.74882   0.01267  Uiso   1.00
C72    C     0.74360   0.67359   0.80421   0.01267  Uiso   1.00
C73    C     0.78379   0.60425   0.79997   0.01267  Uiso   1.00
C74    C     0.93520   0.44450   0.85070   0.01267  Uiso   1.00
C75    C     0.46810   0.29230   0.98450   0.01267  Uiso   1.00
C76    C     0.17910   0.35190   0.03930   0.01267  Uiso   1.00
C77    C     0.22130   0.39800   0.03240   0.01267  Uiso   1.00
C78    C     0.31700   0.37560   0.01380   0.01267  Uiso   1.00
C79    C     0.37040   0.30730   0.00190   0.01267  Uiso   1.00
C80    C     0.32820   0.26120   0.00880   0.01267  Uiso   1.00
C81    C     0.23260   0.28350   0.02750   0.01267  Uiso   1.00
C82    C     0.05670   0.37670   0.99990   0.01267  Uiso   1.00
C83    C     0.96260   0.39150   0.01690   0.01267  Uiso   1.00
C84    C     0.92270   0.41690   0.96830   0.01267  Uiso   1.00
C85    C     0.97680   0.42760   0.90260   0.01267  Uiso   1.00
C86    C     0.07090   0.41290   0.88550   0.01267  Uiso   1.00
C87    C     0.11080   0.38740   0.93420   0.01267  Uiso   1.00
C88    C     0.49639   0.17796   0.82166   0.01267  Uiso   1.00
C89    C     0.44758   0.24612   0.82972   0.01267  Uiso   1.00
C90    C     0.42732   0.28502   0.77714   0.01267  Uiso   1.00
C91    C     0.45686   0.25133   0.71815   0.01267  Uiso   1.00
C92    C     0.50587   0.18242   0.71464   0.01267  Uiso   1.00
C93    C     0.33140   0.46420   0.83780   0.01267  Uiso   1.00
C94    C     0.38351   0.39556   0.82962   0.01267  Uiso   1.00
C95    C     0.37474   0.35907   0.78605   0.01267  Uiso   1.00
C96    C     0.31532   0.39454   0.75342   0.01267  Uiso   1.00
C97    C     0.26770   0.46390   0.76570   0.01267  Uiso   1.00
C98    C     0.66701   0.89198   0.80980   0.01267  Uiso   1.00
C99    C     0.69980   0.82247   0.80993   0.01267  Uiso   1.00
C100   C     0.72980   0.78782   0.75118   0.01267  Uiso   1.00
C101   C     0.72140   0.82641   0.69579   0.01267  Uiso   1.00
C102   C     0.68801   0.89575   0.70003   0.01267  Uiso   1.00
C103   C     0.73040   0.05550   0.64930   0.01267  Uiso   1.00
C104   C     0.24490   0.20770   0.51550   0.01267  Uiso   1.00
C105   C     0.07030   0.14810   0.46070   0.01267  Uiso   1.00
C106   C     0.15170   0.10200   0.46760   0.01267  Uiso   1.00
C107   C     0.20640   0.12440   0.48620   0.01267  Uiso   1.00
C108   C     0.17960   0.19270   0.49810   0.01267  Uiso   1.00
C109   C     0.09820   0.23880   0.49120   0.01267  Uiso   1.00
C110   C     0.04360   0.21650   0.47250   0.01267  Uiso   1.00
C111   C     0.93330   0.12330   0.50010   0.01267  Uiso   1.00
C112   C     0.87100   0.10850   0.48310   0.01267  Uiso   1.00
C113   C     0.80790   0.08310   0.53170   0.01267  Uiso   1.00
C114   C     0.80700   0.07240   0.59740   0.01267  Uiso   1.00
C115   C     0.86930   0.08710   0.61450   0.01267  Uiso   1.00
C116   C     0.93240   0.11260   0.56580   0.01267  Uiso   1.00
N1     N     0.29108   0.23530   0.64514   0.01267  Uiso   1.00
N2     N     0.08080   0.19280   0.99860   0.01267  Uiso   1.00
N3     N     0.41658   0.24505   0.42899   0.01267  Uiso   1.00
N4     N     0.67152   0.26470   0.85486   0.01267  Uiso   1.00
N5     N     0.77220   0.30720   0.50140   0.01267  Uiso   1.00
N6     N     0.59062   0.25495   0.07101   0.01267  Uiso   1.00
N7     N     0.93622   0.35486   0.73530   0.01267  Uiso   1.00
N8     N     0.07940   0.00140   0.69280   0.01267  Uiso   1.00
N9     N     0.84557   0.57101   0.74505   0.01267  Uiso   1.00
N10    N     0.52638   0.14514   0.76470   0.01267  Uiso   1.00
N11    N     0.27360   0.49860   0.80720   0.01267  Uiso   1.00
N12    N     0.66163   0.92899   0.75495   0.01267  Uiso   1.00
O1     O     0.43480   0.28760   0.55040   0.01267  Uiso   1.00
O2     O     0.30810   0.36000   0.54620   0.01267  Uiso   1.00
O3     O     0.75950   0.47330   0.76650   0.01267  Uiso   1.00
O4     O     0.84570   0.47357   0.66063   0.01267  Uiso   1.00
O5     O     0.44200   0.54870   0.64970   0.01267  Uiso   1.00
O6     O     0.77280   0.21240   0.94960   0.01267  Uiso   1.00
O7     O     0.71430   0.14000   0.95380   0.01267  Uiso   1.00
O8     O     0.49930   0.02670   0.73350   0.01267  Uiso   1.00
O9     O     0.47990   0.02643   0.83937   0.01267  Uiso   1.00
O10    O     0.14040   0.95130   0.85030   0.01267  Uiso   1.00
O11    O     0.98520   0.44960   0.78760   0.01267  Uiso   1.00
O12    O     0.85430   0.45380   0.86000   0.01267  Uiso   1.00
O13    O     0.52600   0.23350   0.97330   0.01267  Uiso   1.00
O14    O     0.50633   0.33937   0.97357   0.01267  Uiso   1.00
O15    O     0.09170   0.35030   0.04870   0.01267  Uiso   1.00
O16    O     0.72240   0.05040   0.71240   0.01267  Uiso   1.00
O17    O     0.66810   0.04620   0.64000   0.01267  Uiso   1.00
O18    O     0.23280   0.26650   0.52670   0.01267  Uiso   1.00
O19    O     0.31927   0.16063   0.52643   0.01267  Uiso   1.00
O20    O     0.99070   0.14970   0.45130   0.01267  Uiso   1.00
Co5    Co    0.64186   0.75762   0.46202   0.01267  Uiso   1.00
Co6    Co    0.36150   0.74238   0.03798   0.01267  Uiso   1.00
Co7    Co    0.10387   0.53799   0.25762   0.01267  Uiso   1.00
Co8    Co    0.39949   0.96201   0.24238   0.01267  Uiso   1.00
H81    H     0.63240   0.85830   0.34670   0.01267  Uiso   1.00
H82    H     0.70090   0.87120   0.23380   0.01267  Uiso   1.00
H83    H     0.87510   0.68090   0.22530   0.01267  Uiso   1.00
H84    H     0.80030   0.67390   0.33910   0.01267  Uiso   1.00
H85    H     0.79480   0.86730   0.01230   0.01267  Uiso   1.00
H86    H     0.72350   0.85280   0.12580   0.01267  Uiso   1.00
H87    H     0.96970   0.72360   0.12700   0.01267  Uiso   1.00
H88    H     0.02940   0.74230   0.01270   0.01267  Uiso   1.00
H89    H     0.50230   0.85000   0.58580   0.01267  Uiso   1.00
H90    H     0.44860   0.84970   0.70110   0.01267  Uiso   1.00
H91    H     0.60670   0.65520   0.69420   0.01267  Uiso   1.00
H92    H     0.65480   0.66120   0.57940   0.01267  Uiso   1.00
H93    H     0.37070   0.45970   0.44370   0.01267  Uiso   1.00
H94    H     0.24840   0.49070   0.40650   0.01267  Uiso   1.00
H95    H     0.42050   0.49910   0.21550   0.01267  Uiso   1.00
H96    H     0.54300   0.46800   0.25260   0.01267  Uiso   1.00
H97    H     0.68930   0.43910   0.38430   0.01267  Uiso   1.00
H98    H     0.71340   0.52030   0.42690   0.01267  Uiso   1.00
H99    H     0.47290   0.65840   0.42000   0.01267  Uiso   1.00
H100   H     0.44870   0.57730   0.37750   0.01267  Uiso   1.00
H101   H     0.33740   0.64170   0.15330   0.01267  Uiso   1.00
H102   H     0.30590   0.62880   0.26620   0.01267  Uiso   1.00
H103   H     0.28130   0.81910   0.27470   0.01267  Uiso   1.00
H104   H     0.31330   0.82610   0.16090   0.01267  Uiso   1.00
H105   H     0.17440   0.63270   0.48770   0.01267  Uiso   1.00
H106   H     0.20210   0.64720   0.37420   0.01267  Uiso   1.00
H107   H     0.32030   0.77640   0.37300   0.01267  Uiso   1.00
H108   H     0.28440   0.75770   0.48730   0.01267  Uiso   1.00
H109   H     0.43810   0.65000   0.91420   0.01267  Uiso   1.00
H110   H     0.49940   0.65030   0.79890   0.01267  Uiso   1.00
H111   H     0.45610   0.84480   0.80580   0.01267  Uiso   1.00
H112   H     0.39540   0.83880   0.92060   0.01267  Uiso   1.00
H113   H     0.77410   0.04030   0.05630   0.01267  Uiso   1.00
H114   H     0.64560   0.00930   0.09350   0.01267  Uiso   1.00
H115   H     0.63510   0.00090   0.28450   0.01267  Uiso   1.00
H116   H     0.76360   0.03200   0.24740   0.01267  Uiso   1.00
H117   H     0.01270   0.06090   0.11570   0.01267  Uiso   1.00
H118   H     0.16060   0.97970   0.07310   0.01267  Uiso   1.00
H119   H     0.05130   0.84160   0.08000   0.01267  Uiso   1.00
H120   H     0.90350   0.92270   0.12250   0.01267  Uiso   1.00
H121   H     0.97910   0.65330   0.35830   0.01267  Uiso   1.00
H122   H     0.93470   0.76620   0.37120   0.01267  Uiso   1.00
H123   H     0.10040   0.77470   0.18090   0.01267  Uiso   1.00
H124   H     0.13940   0.66090   0.17390   0.01267  Uiso   1.00
H125   H     0.80710   0.98770   0.36730   0.01267  Uiso   1.00
H126   H     0.84930   0.87420   0.35280   0.01267  Uiso   1.00
H127   H     0.09670   0.87300   0.22360   0.01267  Uiso   1.00
H128   H     0.04210   0.98730   0.24230   0.01267  Uiso   1.00
H129   H     0.08810   0.41420   0.35000   0.01267  Uiso   1.00
H130   H     0.14970   0.29890   0.34970   0.01267  Uiso   1.00
H131   H     0.30090   0.30580   0.15520   0.01267  Uiso   1.00
H132   H     0.23420   0.42060   0.16120   0.01267  Uiso   1.00
H133   H     0.81440   0.55630   0.95970   0.01267  Uiso   1.00
H134   H     0.65490   0.59350   0.99070   0.01267  Uiso   1.00
H135   H     0.63600   0.78450   0.99910   0.01267  Uiso   1.00
H136   H     0.79560   0.74740   0.96800   0.01267  Uiso   1.00
H137   H     0.07360   0.61570   0.93910   0.01267  Uiso   1.00
H138   H     0.14030   0.57310   0.02030   0.01267  Uiso   1.00
H139   H     0.89290   0.58000   0.15840   0.01267  Uiso   1.00
H140   H     0.82620   0.62250   0.07730   0.01267  Uiso   1.00
H141   H     0.49070   0.84670   0.14170   0.01267  Uiso   1.00
H142   H     0.57210   0.73380   0.12880   0.01267  Uiso   1.00
H143   H     0.55600   0.72530   0.31910   0.01267  Uiso   1.00
H144   H     0.47420   0.83910   0.32610   0.01267  Uiso   1.00
H145   H     0.66210   0.51230   0.13270   0.01267  Uiso   1.00
H146   H     0.57630   0.62580   0.14720   0.01267  Uiso   1.00
H147   H     0.69330   0.62700   0.27640   0.01267  Uiso   1.00
H148   H     0.77170   0.51270   0.25770   0.01267  Uiso   1.00
H149   H     0.35230   0.08580   0.15000   0.01267  Uiso   1.00
H150   H     0.29830   0.20110   0.15030   0.01267  Uiso   1.00
H151   H     0.26190   0.19420   0.34480   0.01267  Uiso   1.00
H152   H     0.31600   0.07940   0.33880   0.01267  Uiso   1.00
H153   H     0.83040   0.94370   0.54030   0.01267  Uiso   1.00
H154   H     0.73910   0.90650   0.50930   0.01267  Uiso   1.00
H155   H     0.91960   0.71550   0.50090   0.01267  Uiso   1.00
H156   H     0.01100   0.75260   0.53200   0.01267  Uiso   1.00
H157   H     0.12840   0.88430   0.56090   0.01267  Uiso   1.00
H158   H     0.23370   0.92690   0.47970   0.01267  Uiso   1.00
H159   H     0.13130   0.92000   0.34160   0.01267  Uiso   1.00
H160   H     0.02600   0.87750   0.42270   0.01267  Uiso   1.00
C117   C     0.68195   0.82166   0.32204   0.01267  Uiso   1.00
C118   C     0.72270   0.82972   0.25388   0.01267  Uiso   1.00
C119   C     0.79554   0.77714   0.21498   0.01267  Uiso   1.00
C120   C     0.82499   0.71815   0.24867   0.01267  Uiso   1.00
C121   C     0.77949   0.71464   0.31758   0.01267  Uiso   1.00
C122   C     0.83080   0.83780   0.03580   0.01267  Uiso   1.00
C123   C     0.78687   0.82962   0.10444   0.01267  Uiso   1.00
C124   C     0.83921   0.78605   0.14093   0.01267  Uiso   1.00
C125   C     0.93126   0.75342   0.10546   0.01267  Uiso   1.00
C126   C     0.96660   0.76570   0.03610   0.01267  Uiso   1.00
C127   C     0.52319   0.80980   0.60802   0.01267  Uiso   1.00
C128   C     0.49027   0.80993   0.67753   0.01267  Uiso   1.00
C129   C     0.51902   0.75118   0.71218   0.01267  Uiso   1.00
C130   C     0.58281   0.69579   0.67359   0.01267  Uiso   1.00
C131   C     0.61196   0.70003   0.60425   0.01267  Uiso   1.00
C132   C     0.62030   0.64930   0.44450   0.01267  Uiso   1.00
C133   C     0.23960   0.51550   0.29230   0.01267  Uiso   1.00
C134   C     0.46900   0.46070   0.35190   0.01267  Uiso   1.00
C135   C     0.38070   0.46760   0.39800   0.01267  Uiso   1.00
C136   C     0.30740   0.48620   0.37560   0.01267  Uiso   1.00
C137   C     0.32230   0.49810   0.30730   0.01267  Uiso   1.00
C138   C     0.41060   0.49120   0.26120   0.01267  Uiso   1.00
C139   C     0.48390   0.47250   0.28350   0.01267  Uiso   1.00
C140   C     0.56660   0.50010   0.37670   0.01267  Uiso   1.00
C141   C     0.64590   0.48310   0.39150   0.01267  Uiso   1.00
C142   C     0.66040   0.53170   0.41690   0.01267  Uiso   1.00
C143   C     0.59560   0.59740   0.42760   0.01267  Uiso   1.00
C144   C     0.51620   0.61450   0.41290   0.01267  Uiso   1.00
C145   C     0.50180   0.56580   0.38740   0.01267  Uiso   1.00
C146   C     0.32565   0.67834   0.17796   0.01267  Uiso   1.00
C147   C     0.30630   0.67028   0.24612   0.01267  Uiso   1.00
C148   C     0.28766   0.72286   0.28502   0.01267  Uiso   1.00
C149   C     0.29181   0.78185   0.25133   0.01267  Uiso   1.00
C150   C     0.31171   0.78536   0.18242   0.01267  Uiso   1.00
C151   C     0.20440   0.66220   0.46420   0.01267  Uiso   1.00
C152   C     0.22093   0.67038   0.39556   0.01267  Uiso   1.00
C153   C     0.26619   0.71395   0.35907   0.01267  Uiso   1.00
C154   C     0.29014   0.74658   0.39454   0.01267  Uiso   1.00
C155   C     0.26840   0.73430   0.46390   0.01267  Uiso   1.00
C156   C     0.44101   0.69020   0.89198   0.01267  Uiso   1.00
C157   C     0.47773   0.69007   0.82247   0.01267  Uiso   1.00
C158   C     0.48238   0.74882   0.78782   0.01267  Uiso   1.00
C159   C     0.45219   0.80421   0.82641   0.01267  Uiso   1.00
C160   C     0.41624   0.79997   0.89575   0.01267  Uiso   1.00
C161   C     0.21410   0.85070   0.05550   0.01267  Uiso   1.00
C162   C     0.54740   0.98450   0.20770   0.01267  Uiso   1.00
C163   C     0.78160   0.03930   0.14810   0.01267  Uiso   1.00
C164   C     0.74630   0.03240   0.10200   0.01267  Uiso   1.00
C165   C     0.66920   0.01380   0.12440   0.01267  Uiso   1.00
C166   C     0.62770   0.00190   0.19270   0.01267  Uiso   1.00
C167   C     0.66300   0.00880   0.23880   0.01267  Uiso   1.00
C168   C     0.73990   0.02750   0.21650   0.01267  Uiso   1.00
C169   C     0.94340   0.99990   0.12330   0.01267  Uiso   1.00
C170   C     0.02050   0.01690   0.10850   0.01267  Uiso   1.00
C171   C     0.10900   0.96830   0.08310   0.01267  Uiso   1.00
C172   C     0.12060   0.90260   0.07240   0.01267  Uiso   1.00
C173   C     0.04360   0.88550   0.08710   0.01267  Uiso   1.00
C174   C     0.95500   0.93420   0.11260   0.01267  Uiso   1.00
C175   C     0.00399   0.67796   0.32166   0.01267  Uiso   1.00
C176   C     0.97658   0.74612   0.32972   0.01267  Uiso   1.00
C177   C     0.01052   0.78502   0.27714   0.01267  Uiso   1.00
C178   C     0.07366   0.75133   0.21815   0.01267  Uiso   1.00
C179   C     0.09707   0.68242   0.21464   0.01267  Uiso   1.00
C180   C     0.86660   0.96420   0.33780   0.01267  Uiso   1.00
C181   C     0.89131   0.89556   0.32962   0.01267  Uiso   1.00
C182   C     0.98014   0.85907   0.28605   0.01267  Uiso   1.00
C183   C     0.03672   0.89454   0.25342   0.01267  Uiso   1.00
C184   C     0.00270   0.96390   0.26570   0.01267  Uiso   1.00
C185   C     0.13121   0.39198   0.30980   0.01267  Uiso   1.00
C186   C     0.16780   0.32247   0.30993   0.01267  Uiso   1.00
C187   C     0.23120   0.28782   0.25118   0.01267  Uiso   1.00
C188   C     0.25640   0.32641   0.19579   0.01267  Uiso   1.00
C189   C     0.21621   0.39575   0.20003   0.01267  Uiso   1.00
C190   C     0.06480   0.55550   0.14930   0.01267  Uiso   1.00
C191   C     0.53190   0.70770   0.01550   0.01267  Uiso   1.00
C192   C     0.82090   0.64810   0.96070   0.01267  Uiso   1.00
C193   C     0.77870   0.60200   0.96760   0.01267  Uiso   1.00
C194   C     0.68300   0.62440   0.98620   0.01267  Uiso   1.00
C195   C     0.62960   0.69270   0.99810   0.01267  Uiso   1.00
C196   C     0.67180   0.73880   0.99120   0.01267  Uiso   1.00
C197   C     0.76740   0.71650   0.97250   0.01267  Uiso   1.00
C198   C     0.94330   0.62330   0.00010   0.01267  Uiso   1.00
C199   C     0.03740   0.60850   0.98310   0.01267  Uiso   1.00
C200   C     0.07730   0.58310   0.03170   0.01267  Uiso   1.00
C201   C     0.02320   0.57240   0.09740   0.01267  Uiso   1.00
C202   C     0.92910   0.58710   0.11450   0.01267  Uiso   1.00
C203   C     0.88920   0.61260   0.06580   0.01267  Uiso   1.00
C204   C     0.50361   0.82204   0.17834   0.01267  Uiso   1.00
C205   C     0.55242   0.75388   0.17028   0.01267  Uiso   1.00
C206   C     0.57268   0.71498   0.22286   0.01267  Uiso   1.00
C207   C     0.54314   0.74867   0.28185   0.01267  Uiso   1.00
C208   C     0.49413   0.81758   0.28536   0.01267  Uiso   1.00
C209   C     0.66860   0.53580   0.16220   0.01267  Uiso   1.00
C210   C     0.61649   0.60444   0.17038   0.01267  Uiso   1.00
C211   C     0.62526   0.64093   0.21395   0.01267  Uiso   1.00
C212   C     0.68468   0.60546   0.24658   0.01267  Uiso   1.00
C213   C     0.73230   0.53610   0.23430   0.01267  Uiso   1.00
C214   C     0.33299   0.10802   0.19020   0.01267  Uiso   1.00
C215   C     0.30020   0.17753   0.19007   0.01267  Uiso   1.00
C216   C     0.27020   0.21218   0.24882   0.01267  Uiso   1.00
C217   C     0.27860   0.17359   0.30421   0.01267  Uiso   1.00
C218   C     0.31199   0.10425   0.29997   0.01267  Uiso   1.00
C219   C     0.26960   0.94450   0.35070   0.01267  Uiso   1.00
C220   C     0.75510   0.79230   0.48450   0.01267  Uiso   1.00
C221   C     0.92970   0.85190   0.53930   0.01267  Uiso   1.00
C222   C     0.84830   0.89800   0.53240   0.01267  Uiso   1.00
C223   C     0.79360   0.87560   0.51380   0.01267  Uiso   1.00
C224   C     0.82040   0.80730   0.50190   0.01267  Uiso   1.00
C225   C     0.90180   0.76120   0.50880   0.01267  Uiso   1.00
C226   C     0.95640   0.78350   0.52750   0.01267  Uiso   1.00
C227   C     0.06670   0.87670   0.49990   0.01267  Uiso   1.00
C228   C     0.12900   0.89150   0.51690   0.01267  Uiso   1.00
C229   C     0.19210   0.91690   0.46830   0.01267  Uiso   1.00
C230   C     0.19300   0.92760   0.40260   0.01267  Uiso   1.00
C231   C     0.13070   0.91290   0.38550   0.01267  Uiso   1.00
C232   C     0.06760   0.88740   0.43420   0.01267  Uiso   1.00
N13    N     0.70892   0.76470   0.35486   0.01267  Uiso   1.00
N14    N     0.91920   0.80720   0.00140   0.01267  Uiso   1.00
N15    N     0.58342   0.75495   0.57101   0.01267  Uiso   1.00
N16    N     0.32848   0.73530   0.14514   0.01267  Uiso   1.00
N17    N     0.22780   0.69280   0.49860   0.01267  Uiso   1.00
N18    N     0.40938   0.74505   0.92899   0.01267  Uiso   1.00
N19    N     0.06378   0.64514   0.26470   0.01267  Uiso   1.00
N20    N     0.92060   0.99860   0.30720   0.01267  Uiso   1.00
N21    N     0.15443   0.42899   0.25495   0.01267  Uiso   1.00
N22    N     0.47362   0.85486   0.23530   0.01267  Uiso   1.00
N23    N     0.72640   0.50140   0.19280   0.01267  Uiso   1.00
N24    N     0.33837   0.07101   0.24505   0.01267  Uiso   1.00
O21    O     0.56520   0.71240   0.44960   0.01267  Uiso   1.00
O22    O     0.69190   0.64000   0.45380   0.01267  Uiso   1.00
O23    O     0.24050   0.52670   0.23350   0.01267  Uiso   1.00
O24    O     0.15430   0.52643   0.33937   0.01267  Uiso   1.00
O25    O     0.55800   0.45130   0.35030   0.01267  Uiso   1.00
O26    O     0.22720   0.78760   0.05040   0.01267  Uiso   1.00
O27    O     0.28570   0.86000   0.04620   0.01267  Uiso   1.00
O28    O     0.50070   0.97330   0.26650   0.01267  Uiso   1.00
O29    O     0.52010   0.97357   0.16063   0.01267  Uiso   1.00
O30    O     0.85960   0.04870   0.14970   0.01267  Uiso   1.00
O31    O     0.01480   0.55040   0.21240   0.01267  Uiso   1.00
O32    O     0.14570   0.54620   0.14000   0.01267  Uiso   1.00
O33    O     0.47400   0.76650   0.02670   0.01267  Uiso   1.00
O34    O     0.49367   0.66063   0.02643   0.01267  Uiso   1.00
O35    O     0.90830   0.64970   0.95130   0.01267  Uiso   1.00
O36    O     0.27760   0.94960   0.28760   0.01267  Uiso   1.00
O37    O     0.33190   0.95380   0.36000   0.01267  Uiso   1.00
O38    O     0.76720   0.73350   0.47330   0.01267  Uiso   1.00
O39    O     0.68073   0.83937   0.47357   0.01267  Uiso   1.00
O40    O     0.00930   0.85030   0.54870   0.01267  Uiso   1.00
