data_EBUQEX_clean
_audit_creation_date              2014-07-02
_audit_creation_method            'Materials Studio'
_symmetry_space_group_name_H-M    'P1'
_symmetry_Int_Tables_number       1
_symmetry_cell_setting            triclinic
loop_
_symmetry_equiv_pos_as_xyz
  x,y,z
_cell_length_a                    16.2668
_cell_length_b                    16.2668
_cell_length_c                    24.0160
_cell_angle_alpha                 91.3136
_cell_angle_beta                  91.3136
_cell_angle_gamma                 107.3530
loop_
_atom_site_label
_atom_site_type_symbol
_atom_site_fract_x
_atom_site_fract_y
_atom_site_fract_z
_atom_site_U_iso_or_equiv
_atom_site_adp_type
_atom_site_occupancy
Na1    Na    0.93288   0.07430   0.00995   0.01267  Uiso   1.00
Na2    Na    0.92570   0.06712   0.49005   0.01267  Uiso   1.00
Na3    Na    0.06712   0.92570   0.99005   0.01267  Uiso   1.00
Na4    Na    0.07430   0.93288   0.50995   0.01267  Uiso   1.00
H1     H     0.45950   0.35450   0.84870   0.01267  Uiso   1.00
H2     H     0.46220   0.49240   0.89540   0.01267  Uiso   1.00
H3     H     0.77770   0.55070   0.93760   0.01267  Uiso   1.00
H4     H     0.77100   0.40680   0.90170   0.01267  Uiso   1.00
H5     H     0.51620   0.13600   0.81810   0.01267  Uiso   1.00
H6     H     0.37300   0.12260   0.77810   0.01267  Uiso   1.00
H7     H     0.17590   0.33430   0.76230   0.01267  Uiso   1.00
H8     H     0.17420   0.46480   0.81500   0.01267  Uiso   1.00
H9     H     0.38940   0.67940   0.96180   0.01267  Uiso   1.00
H10    H     0.54070   0.70390   0.98910   0.01267  Uiso   1.00
H11    H     0.66600   0.61860   0.05130   0.01267  Uiso   1.00
H12    H     0.77120   0.73180   0.09330   0.01267  Uiso   1.00
H13    H     0.83440   0.83160   0.94460   0.01267  Uiso   1.00
H14    H     0.72720   0.71980   0.90290   0.01267  Uiso   1.00
H15    H     0.93420   0.91320   0.12140   0.01267  Uiso   1.00
H16    H     0.67020   0.22540   0.78550   0.01267  Uiso   1.00
H17    H     0.76780   0.14760   0.79070   0.01267  Uiso   1.00
H18    H     0.77830   0.17430   0.95690   0.01267  Uiso   1.00
H19    H     0.68210   0.25290   0.95210   0.01267  Uiso   1.00
H20    H     0.91770   0.05810   0.83570   0.01267  Uiso   1.00
H21    H     0.15020   0.18580   0.80150   0.01267  Uiso   1.00
H22    H     0.05140   0.09120   0.74200   0.01267  Uiso   1.00
H23    H     0.23620   0.10240   0.63300   0.01267  Uiso   1.00
H24    H     0.33440   0.19980   0.69110   0.01267  Uiso   1.00
H25    H     0.21700   0.54620   0.97290   0.01267  Uiso   1.00
H26    H     0.13450   0.63710   0.98870   0.01267  Uiso   1.00
H27    H     0.18320   0.72780   0.83650   0.01267  Uiso   1.00
H28    H     0.27090   0.64190   0.82210   0.01267  Uiso   1.00
H29    H     0.05220   0.82760   0.88480   0.01267  Uiso   1.00
H30    H     0.64550   0.54050   0.65130   0.01267  Uiso   1.00
H31    H     0.50760   0.53780   0.60460   0.01267  Uiso   1.00
H32    H     0.44930   0.22230   0.56240   0.01267  Uiso   1.00
H33    H     0.59320   0.22900   0.59830   0.01267  Uiso   1.00
H34    H     0.86400   0.48380   0.68190   0.01267  Uiso   1.00
H35    H     0.87740   0.62700   0.72190   0.01267  Uiso   1.00
H36    H     0.66570   0.82410   0.73770   0.01267  Uiso   1.00
H37    H     0.53520   0.82580   0.68500   0.01267  Uiso   1.00
H38    H     0.32060   0.61060   0.53820   0.01267  Uiso   1.00
H39    H     0.29610   0.45930   0.51090   0.01267  Uiso   1.00
H40    H     0.38140   0.33400   0.44870   0.01267  Uiso   1.00
H41    H     0.26820   0.22880   0.40670   0.01267  Uiso   1.00
H42    H     0.16840   0.16560   0.55540   0.01267  Uiso   1.00
H43    H     0.28020   0.27280   0.59710   0.01267  Uiso   1.00
H44    H     0.08680   0.06580   0.37860   0.01267  Uiso   1.00
H45    H     0.77460   0.32980   0.71450   0.01267  Uiso   1.00
H46    H     0.85240   0.23220   0.70930   0.01267  Uiso   1.00
H47    H     0.82570   0.22170   0.54310   0.01267  Uiso   1.00
H48    H     0.74710   0.31790   0.54790   0.01267  Uiso   1.00
H49    H     0.94190   0.08230   0.66430   0.01267  Uiso   1.00
H50    H     0.81420   0.84980   0.69850   0.01267  Uiso   1.00
H51    H     0.90880   0.94860   0.75800   0.01267  Uiso   1.00
H52    H     0.89760   0.76380   0.86700   0.01267  Uiso   1.00
H53    H     0.80020   0.66560   0.80890   0.01267  Uiso   1.00
H54    H     0.45380   0.78300   0.52710   0.01267  Uiso   1.00
H55    H     0.36290   0.86550   0.51130   0.01267  Uiso   1.00
H56    H     0.27220   0.81680   0.66350   0.01267  Uiso   1.00
H57    H     0.35810   0.72910   0.67790   0.01267  Uiso   1.00
H58    H     0.17240   0.94780   0.61520   0.01267  Uiso   1.00
H59    H     0.54050   0.64550   0.15130   0.01267  Uiso   1.00
H60    H     0.53780   0.50760   0.10460   0.01267  Uiso   1.00
H61    H     0.22230   0.44930   0.06240   0.01267  Uiso   1.00
H62    H     0.22900   0.59320   0.09830   0.01267  Uiso   1.00
H63    H     0.48380   0.86400   0.18190   0.01267  Uiso   1.00
H64    H     0.62700   0.87740   0.22190   0.01267  Uiso   1.00
H65    H     0.82410   0.66570   0.23770   0.01267  Uiso   1.00
H66    H     0.82580   0.53520   0.18500   0.01267  Uiso   1.00
H67    H     0.61060   0.32060   0.03820   0.01267  Uiso   1.00
H68    H     0.45930   0.29610   0.01090   0.01267  Uiso   1.00
H69    H     0.33400   0.38140   0.94870   0.01267  Uiso   1.00
H70    H     0.22880   0.26820   0.90670   0.01267  Uiso   1.00
H71    H     0.16560   0.16840   0.05540   0.01267  Uiso   1.00
H72    H     0.27280   0.28020   0.09710   0.01267  Uiso   1.00
H73    H     0.06580   0.08680   0.87860   0.01267  Uiso   1.00
H74    H     0.32980   0.77460   0.21450   0.01267  Uiso   1.00
H75    H     0.23220   0.85240   0.20930   0.01267  Uiso   1.00
H76    H     0.22170   0.82570   0.04310   0.01267  Uiso   1.00
H77    H     0.31790   0.74710   0.04790   0.01267  Uiso   1.00
H78    H     0.08230   0.94190   0.16430   0.01267  Uiso   1.00
H79    H     0.84980   0.81420   0.19850   0.01267  Uiso   1.00
H80    H     0.94860   0.90880   0.25800   0.01267  Uiso   1.00
H81    H     0.76380   0.89760   0.36700   0.01267  Uiso   1.00
H82    H     0.66560   0.80020   0.30890   0.01267  Uiso   1.00
H83    H     0.78300   0.45380   0.02710   0.01267  Uiso   1.00
H84    H     0.86550   0.36290   0.01130   0.01267  Uiso   1.00
H85    H     0.81680   0.27220   0.16350   0.01267  Uiso   1.00
H86    H     0.72910   0.35810   0.17790   0.01267  Uiso   1.00
H87    H     0.94780   0.17240   0.11520   0.01267  Uiso   1.00
H88    H     0.35450   0.45950   0.34870   0.01267  Uiso   1.00
H89    H     0.49240   0.46220   0.39540   0.01267  Uiso   1.00
H90    H     0.55070   0.77770   0.43760   0.01267  Uiso   1.00
H91    H     0.40680   0.77100   0.40170   0.01267  Uiso   1.00
H92    H     0.13600   0.51620   0.31810   0.01267  Uiso   1.00
H93    H     0.12260   0.37300   0.27810   0.01267  Uiso   1.00
H94    H     0.33430   0.17590   0.26230   0.01267  Uiso   1.00
H95    H     0.46480   0.17420   0.31500   0.01267  Uiso   1.00
H96    H     0.67940   0.38940   0.46180   0.01267  Uiso   1.00
H97    H     0.70390   0.54070   0.48910   0.01267  Uiso   1.00
H98    H     0.61860   0.66600   0.55130   0.01267  Uiso   1.00
H99    H     0.73180   0.77120   0.59330   0.01267  Uiso   1.00
H100   H     0.83160   0.83440   0.44460   0.01267  Uiso   1.00
H101   H     0.71980   0.72720   0.40290   0.01267  Uiso   1.00
H102   H     0.91320   0.93420   0.62140   0.01267  Uiso   1.00
H103   H     0.22540   0.67020   0.28550   0.01267  Uiso   1.00
H104   H     0.14760   0.76780   0.29070   0.01267  Uiso   1.00
H105   H     0.17430   0.77830   0.45690   0.01267  Uiso   1.00
H106   H     0.25290   0.68210   0.45210   0.01267  Uiso   1.00
H107   H     0.05810   0.91770   0.33570   0.01267  Uiso   1.00
H108   H     0.18580   0.15020   0.30150   0.01267  Uiso   1.00
H109   H     0.09120   0.05140   0.24200   0.01267  Uiso   1.00
H110   H     0.10240   0.23620   0.13300   0.01267  Uiso   1.00
H111   H     0.19980   0.33440   0.19110   0.01267  Uiso   1.00
H112   H     0.54620   0.21700   0.47290   0.01267  Uiso   1.00
H113   H     0.63710   0.13450   0.48870   0.01267  Uiso   1.00
H114   H     0.72780   0.18320   0.33650   0.01267  Uiso   1.00
H115   H     0.64190   0.27090   0.32210   0.01267  Uiso   1.00
H116   H     0.82760   0.05220   0.38480   0.01267  Uiso   1.00
C1     C     0.53383   0.58903   0.94353   0.01267  Uiso   1.00
C2     C     0.61729   0.58295   0.94501   0.01267  Uiso   1.00
C3     C     0.64217   0.51435   0.92337   0.01267  Uiso   1.00
C4     C     0.72832   0.50798   0.92499   0.01267  Uiso   1.00
C5     C     0.72481   0.42893   0.90492   0.01267  Uiso   1.00
C6     C     0.63542   0.38488   0.88931   0.01267  Uiso   1.00
C7     C     0.60435   0.30083   0.86679   0.01267  Uiso   1.00
C8     C     0.52211   0.26397   0.84308   0.01267  Uiso   1.00
C9     C     0.48857   0.17843   0.81859   0.01267  Uiso   1.00
C10    C     0.40942   0.17128   0.79648   0.01267  Uiso   1.00
C11    C     0.39097   0.25121   0.80614   0.01267  Uiso   1.00
C12    C     0.31571   0.27003   0.78938   0.01267  Uiso   1.00
C13    C     0.29478   0.34456   0.80539   0.01267  Uiso   1.00
C14    C     0.21752   0.36522   0.78835   0.01267  Uiso   1.00
C15    C     0.21665   0.43731   0.81704   0.01267  Uiso   1.00
C16    C     0.29449   0.46345   0.85155   0.01267  Uiso   1.00
C17    C     0.31718   0.53478   0.88908   0.01267  Uiso   1.00
C18    C     0.39593   0.56645   0.91857   0.01267  Uiso   1.00
C19    C     0.42314   0.64446   0.95213   0.01267  Uiso   1.00
C20    C     0.50670   0.65792   0.96719   0.01267  Uiso   1.00
C21    C     0.68593   0.65659   0.97207   0.01267  Uiso   1.00
C22    C     0.69993   0.66151   0.02953   0.01267  Uiso   1.00
C23    C     0.76329   0.72909   0.05474   0.01267  Uiso   1.00
C24    C     0.81503   0.79279   0.02308   0.01267  Uiso   1.00
C25    C     0.80055   0.78863   0.96639   0.01267  Uiso   1.00
C26    C     0.73631   0.72125   0.94131   0.01267  Uiso   1.00
C27    C     0.88276   0.86740   0.04847   0.01267  Uiso   1.00
C28    C     0.66495   0.24705   0.86839   0.01267  Uiso   1.00
C29    C     0.69177   0.21533   0.82008   0.01267  Uiso   1.00
C30    C     0.75044   0.16888   0.82320   0.01267  Uiso   1.00
C31    C     0.78375   0.15369   0.87436   0.01267  Uiso   1.00
C32    C     0.75708   0.18482   0.92243   0.01267  Uiso   1.00
C33    C     0.69891   0.23147   0.91941   0.01267  Uiso   1.00
C34    C     0.84807   0.10535   0.87910   0.01267  Uiso   1.00
C35    C     0.25294   0.20536   0.75225   0.01267  Uiso   1.00
C36    C     0.16762   0.17036   0.76725   0.01267  Uiso   1.00
C37    C     0.10845   0.11281   0.73169   0.01267  Uiso   1.00
C38    C     0.13296   0.08730   0.68143   0.01267  Uiso   1.00
C39    C     0.21856   0.11996   0.66659   0.01267  Uiso   1.00
C40    C     0.27751   0.17831   0.70160   0.01267  Uiso   1.00
C41    C     0.06925   0.02333   0.64311   0.01267  Uiso   1.00
C42    C     0.25540   0.58574   0.89656   0.01267  Uiso   1.00
C43    C     0.21194   0.58408   0.94553   0.01267  Uiso   1.00
C44    C     0.16109   0.63763   0.95473   0.01267  Uiso   1.00
C45    C     0.14987   0.69097   0.91424   0.01267  Uiso   1.00
C46    C     0.19089   0.69195   0.86443   0.01267  Uiso   1.00
C47    C     0.24335   0.64015   0.85576   0.01267  Uiso   1.00
C48    C     0.09739   0.75049   0.92426   0.01267  Uiso   1.00
C49    C     0.41097   0.46617   0.55647   0.01267  Uiso   1.00
C50    C     0.41705   0.38271   0.55499   0.01267  Uiso   1.00
C51    C     0.48565   0.35783   0.57663   0.01267  Uiso   1.00
C52    C     0.49202   0.27168   0.57501   0.01267  Uiso   1.00
C53    C     0.57107   0.27519   0.59508   0.01267  Uiso   1.00
C54    C     0.61512   0.36458   0.61069   0.01267  Uiso   1.00
C55    C     0.69917   0.39565   0.63321   0.01267  Uiso   1.00
C56    C     0.73603   0.47789   0.65692   0.01267  Uiso   1.00
C57    C     0.82157   0.51143   0.68141   0.01267  Uiso   1.00
C58    C     0.82872   0.59058   0.70352   0.01267  Uiso   1.00
C59    C     0.74879   0.60903   0.69386   0.01267  Uiso   1.00
C60    C     0.72997   0.68429   0.71062   0.01267  Uiso   1.00
C61    C     0.65544   0.70522   0.69461   0.01267  Uiso   1.00
C62    C     0.63478   0.78248   0.71165   0.01267  Uiso   1.00
C63    C     0.56269   0.78335   0.68296   0.01267  Uiso   1.00
C64    C     0.53655   0.70551   0.64845   0.01267  Uiso   1.00
C65    C     0.46522   0.68282   0.61092   0.01267  Uiso   1.00
C66    C     0.43355   0.60407   0.58143   0.01267  Uiso   1.00
C67    C     0.35554   0.57686   0.54787   0.01267  Uiso   1.00
C68    C     0.34208   0.49330   0.53281   0.01267  Uiso   1.00
C69    C     0.34341   0.31407   0.52793   0.01267  Uiso   1.00
C70    C     0.33849   0.30007   0.47047   0.01267  Uiso   1.00
C71    C     0.27091   0.23671   0.44526   0.01267  Uiso   1.00
C72    C     0.20721   0.18497   0.47692   0.01267  Uiso   1.00
C73    C     0.21137   0.19945   0.53361   0.01267  Uiso   1.00
C74    C     0.27875   0.26369   0.55869   0.01267  Uiso   1.00
C75    C     0.13260   0.11724   0.45153   0.01267  Uiso   1.00
C76    C     0.75295   0.33505   0.63161   0.01267  Uiso   1.00
C77    C     0.78467   0.30823   0.67992   0.01267  Uiso   1.00
C78    C     0.83112   0.24956   0.67680   0.01267  Uiso   1.00
C79    C     0.84631   0.21625   0.62564   0.01267  Uiso   1.00
C80    C     0.81518   0.24292   0.57757   0.01267  Uiso   1.00
C81    C     0.76853   0.30109   0.58059   0.01267  Uiso   1.00
C82    C     0.89465   0.15193   0.62090   0.01267  Uiso   1.00
C83    C     0.79464   0.74706   0.74775   0.01267  Uiso   1.00
C84    C     0.82964   0.83238   0.73275   0.01267  Uiso   1.00
C85    C     0.88719   0.89155   0.76831   0.01267  Uiso   1.00
C86    C     0.91270   0.86704   0.81857   0.01267  Uiso   1.00
C87    C     0.88004   0.78144   0.83341   0.01267  Uiso   1.00
C88    C     0.82169   0.72249   0.79840   0.01267  Uiso   1.00
C89    C     0.97667   0.93075   0.85689   0.01267  Uiso   1.00
C90    C     0.41426   0.74460   0.60344   0.01267  Uiso   1.00
C91    C     0.41592   0.78806   0.55447   0.01267  Uiso   1.00
C92    C     0.36237   0.83891   0.54527   0.01267  Uiso   1.00
C93    C     0.30903   0.85013   0.58576   0.01267  Uiso   1.00
C94    C     0.30805   0.80911   0.63557   0.01267  Uiso   1.00
C95    C     0.35985   0.75665   0.64424   0.01267  Uiso   1.00
C96    C     0.24951   0.90261   0.57574   0.01267  Uiso   1.00
C97    C     0.46617   0.41097   0.05647   0.01267  Uiso   1.00
C98    C     0.38271   0.41705   0.05499   0.01267  Uiso   1.00
C99    C     0.35783   0.48565   0.07663   0.01267  Uiso   1.00
C100   C     0.27168   0.49202   0.07501   0.01267  Uiso   1.00
C101   C     0.27519   0.57107   0.09508   0.01267  Uiso   1.00
C102   C     0.36458   0.61512   0.11069   0.01267  Uiso   1.00
C103   C     0.39565   0.69917   0.13321   0.01267  Uiso   1.00
C104   C     0.47789   0.73603   0.15692   0.01267  Uiso   1.00
C105   C     0.51143   0.82157   0.18141   0.01267  Uiso   1.00
C106   C     0.59058   0.82872   0.20352   0.01267  Uiso   1.00
C107   C     0.60903   0.74879   0.19386   0.01267  Uiso   1.00
C108   C     0.68429   0.72997   0.21062   0.01267  Uiso   1.00
C109   C     0.70522   0.65544   0.19461   0.01267  Uiso   1.00
C110   C     0.78248   0.63478   0.21165   0.01267  Uiso   1.00
C111   C     0.78335   0.56269   0.18296   0.01267  Uiso   1.00
C112   C     0.70551   0.53655   0.14845   0.01267  Uiso   1.00
C113   C     0.68282   0.46522   0.11092   0.01267  Uiso   1.00
C114   C     0.60407   0.43355   0.08143   0.01267  Uiso   1.00
C115   C     0.57686   0.35554   0.04787   0.01267  Uiso   1.00
C116   C     0.49330   0.34208   0.03281   0.01267  Uiso   1.00
C117   C     0.31407   0.34341   0.02793   0.01267  Uiso   1.00
C118   C     0.30007   0.33849   0.97047   0.01267  Uiso   1.00
C119   C     0.23671   0.27091   0.94526   0.01267  Uiso   1.00
C120   C     0.18497   0.20721   0.97692   0.01267  Uiso   1.00
C121   C     0.19945   0.21137   0.03361   0.01267  Uiso   1.00
C122   C     0.26369   0.27875   0.05869   0.01267  Uiso   1.00
C123   C     0.11724   0.13260   0.95153   0.01267  Uiso   1.00
C124   C     0.33505   0.75295   0.13161   0.01267  Uiso   1.00
C125   C     0.30823   0.78467   0.17992   0.01267  Uiso   1.00
C126   C     0.24956   0.83112   0.17680   0.01267  Uiso   1.00
C127   C     0.21625   0.84631   0.12564   0.01267  Uiso   1.00
C128   C     0.24292   0.81518   0.07757   0.01267  Uiso   1.00
C129   C     0.30109   0.76853   0.08059   0.01267  Uiso   1.00
C130   C     0.15193   0.89465   0.12090   0.01267  Uiso   1.00
C131   C     0.74706   0.79464   0.24775   0.01267  Uiso   1.00
C132   C     0.83238   0.82964   0.23275   0.01267  Uiso   1.00
C133   C     0.89155   0.88719   0.26831   0.01267  Uiso   1.00
C134   C     0.86704   0.91270   0.31857   0.01267  Uiso   1.00
C135   C     0.78144   0.88004   0.33341   0.01267  Uiso   1.00
C136   C     0.72249   0.82169   0.29840   0.01267  Uiso   1.00
C137   C     0.93075   0.97667   0.35689   0.01267  Uiso   1.00
C138   C     0.74460   0.41426   0.10344   0.01267  Uiso   1.00
C139   C     0.78806   0.41592   0.05447   0.01267  Uiso   1.00
C140   C     0.83891   0.36237   0.04527   0.01267  Uiso   1.00
C141   C     0.85013   0.30903   0.08576   0.01267  Uiso   1.00
C142   C     0.80911   0.30805   0.13557   0.01267  Uiso   1.00
C143   C     0.75665   0.35985   0.14424   0.01267  Uiso   1.00
C144   C     0.90261   0.24951   0.07574   0.01267  Uiso   1.00
C145   C     0.58903   0.53383   0.44353   0.01267  Uiso   1.00
C146   C     0.58295   0.61729   0.44501   0.01267  Uiso   1.00
C147   C     0.51435   0.64217   0.42337   0.01267  Uiso   1.00
C148   C     0.50798   0.72832   0.42499   0.01267  Uiso   1.00
C149   C     0.42893   0.72481   0.40492   0.01267  Uiso   1.00
C150   C     0.38488   0.63542   0.38931   0.01267  Uiso   1.00
C151   C     0.30083   0.60435   0.36679   0.01267  Uiso   1.00
C152   C     0.26397   0.52211   0.34308   0.01267  Uiso   1.00
C153   C     0.17843   0.48857   0.31859   0.01267  Uiso   1.00
C154   C     0.17128   0.40942   0.29648   0.01267  Uiso   1.00
C155   C     0.25121   0.39097   0.30614   0.01267  Uiso   1.00
C156   C     0.27003   0.31571   0.28938   0.01267  Uiso   1.00
C157   C     0.34456   0.29478   0.30539   0.01267  Uiso   1.00
C158   C     0.36522   0.21752   0.28835   0.01267  Uiso   1.00
C159   C     0.43731   0.21665   0.31704   0.01267  Uiso   1.00
C160   C     0.46345   0.29449   0.35155   0.01267  Uiso   1.00
C161   C     0.53478   0.31718   0.38908   0.01267  Uiso   1.00
C162   C     0.56645   0.39593   0.41857   0.01267  Uiso   1.00
C163   C     0.64446   0.42314   0.45213   0.01267  Uiso   1.00
C164   C     0.65792   0.50670   0.46719   0.01267  Uiso   1.00
C165   C     0.65659   0.68593   0.47207   0.01267  Uiso   1.00
C166   C     0.66151   0.69993   0.52953   0.01267  Uiso   1.00
C167   C     0.72909   0.76329   0.55474   0.01267  Uiso   1.00
C168   C     0.79279   0.81503   0.52308   0.01267  Uiso   1.00
C169   C     0.78863   0.80055   0.46639   0.01267  Uiso   1.00
C170   C     0.72125   0.73631   0.44131   0.01267  Uiso   1.00
C171   C     0.86740   0.88276   0.54847   0.01267  Uiso   1.00
C172   C     0.24705   0.66495   0.36839   0.01267  Uiso   1.00
C173   C     0.21533   0.69177   0.32008   0.01267  Uiso   1.00
C174   C     0.16888   0.75044   0.32320   0.01267  Uiso   1.00
C175   C     0.15369   0.78375   0.37436   0.01267  Uiso   1.00
C176   C     0.18482   0.75708   0.42243   0.01267  Uiso   1.00
C177   C     0.23147   0.69891   0.41941   0.01267  Uiso   1.00
C178   C     0.10535   0.84807   0.37910   0.01267  Uiso   1.00
C179   C     0.20536   0.25294   0.25225   0.01267  Uiso   1.00
C180   C     0.17036   0.16762   0.26725   0.01267  Uiso   1.00
C181   C     0.11281   0.10845   0.23169   0.01267  Uiso   1.00
C182   C     0.08730   0.13296   0.18143   0.01267  Uiso   1.00
C183   C     0.11996   0.21856   0.16659   0.01267  Uiso   1.00
C184   C     0.17831   0.27751   0.20160   0.01267  Uiso   1.00
C185   C     0.02333   0.06925   0.14311   0.01267  Uiso   1.00
C186   C     0.58574   0.25540   0.39656   0.01267  Uiso   1.00
C187   C     0.58408   0.21194   0.44553   0.01267  Uiso   1.00
C188   C     0.63763   0.16109   0.45473   0.01267  Uiso   1.00
C189   C     0.69097   0.14987   0.41424   0.01267  Uiso   1.00
C190   C     0.69195   0.19089   0.36443   0.01267  Uiso   1.00
C191   C     0.64015   0.24335   0.35576   0.01267  Uiso   1.00
C192   C     0.75049   0.09739   0.42426   0.01267  Uiso   1.00
N1     N     0.58672   0.43962   0.89967   0.01267  Uiso   1.00
N2     N     0.46085   0.30495   0.83561   0.01267  Uiso   1.00
N3     N     0.34147   0.40739   0.84312   0.01267  Uiso   1.00
N4     N     0.46398   0.53378   0.91556   0.01267  Uiso   1.00
N5     N     0.56038   0.41328   0.60033   0.01267  Uiso   1.00
N6     N     0.69505   0.53915   0.66439   0.01267  Uiso   1.00
N7     N     0.59261   0.65853   0.65688   0.01267  Uiso   1.00
N8     N     0.46622   0.53602   0.58444   0.01267  Uiso   1.00
N9     N     0.41328   0.56038   0.10033   0.01267  Uiso   1.00
N10    N     0.53915   0.69505   0.16439   0.01267  Uiso   1.00
N11    N     0.65853   0.59261   0.15688   0.01267  Uiso   1.00
N12    N     0.53602   0.46622   0.08444   0.01267  Uiso   1.00
N13    N     0.43962   0.58672   0.39967   0.01267  Uiso   1.00
N14    N     0.30495   0.46085   0.33561   0.01267  Uiso   1.00
N15    N     0.40739   0.34147   0.34312   0.01267  Uiso   1.00
N16    N     0.53378   0.46398   0.41556   0.01267  Uiso   1.00
O1     O     0.92746   0.92470   0.02006   0.01267  Uiso   1.00
O2     O     0.89185   0.86767   0.10231   0.01267  Uiso   1.00
O3     O     0.87439   0.08549   0.82991   0.01267  Uiso   1.00
O4     O     0.87481   0.08607   0.92311   0.01267  Uiso   1.00
O5     O     0.98991   0.00595   0.65391   0.01267  Uiso   1.00
O6     O     0.09670   0.98944   0.60305   0.01267  Uiso   1.00
O7     O     0.07678   0.77050   0.96957   0.01267  Uiso   1.00
O8     O     0.07718   0.78280   0.87763   0.01267  Uiso   1.00
O9     O     0.07530   0.07254   0.47994   0.01267  Uiso   1.00
O10    O     0.13233   0.10815   0.39769   0.01267  Uiso   1.00
O11    O     0.91451   0.12561   0.67009   0.01267  Uiso   1.00
O12    O     0.91393   0.12519   0.57689   0.01267  Uiso   1.00
O13    O     0.99405   0.01009   0.84609   0.01267  Uiso   1.00
O14    O     0.01056   0.90330   0.89695   0.01267  Uiso   1.00
O15    O     0.22950   0.92322   0.53043   0.01267  Uiso   1.00
O16    O     0.21720   0.92282   0.62237   0.01267  Uiso   1.00
O17    O     0.07254   0.07530   0.97994   0.01267  Uiso   1.00
O18    O     0.10815   0.13233   0.89769   0.01267  Uiso   1.00
O19    O     0.12561   0.91451   0.17009   0.01267  Uiso   1.00
O20    O     0.12519   0.91393   0.07689   0.01267  Uiso   1.00
O21    O     0.01009   0.99405   0.34609   0.01267  Uiso   1.00
O22    O     0.90330   0.01056   0.39695   0.01267  Uiso   1.00
O23    O     0.92322   0.22950   0.03043   0.01267  Uiso   1.00
O24    O     0.92282   0.21720   0.12237   0.01267  Uiso   1.00
O25    O     0.92470   0.92746   0.52006   0.01267  Uiso   1.00
O26    O     0.86767   0.89185   0.60231   0.01267  Uiso   1.00
O27    O     0.08549   0.87439   0.32991   0.01267  Uiso   1.00
O28    O     0.08607   0.87481   0.42311   0.01267  Uiso   1.00
O29    O     0.00595   0.98991   0.15391   0.01267  Uiso   1.00
O30    O     0.98944   0.09670   0.10305   0.01267  Uiso   1.00
O31    O     0.77050   0.07678   0.46957   0.01267  Uiso   1.00
O32    O     0.78280   0.07718   0.37763   0.01267  Uiso   1.00
