data_EBUREA_clean
_audit_creation_date              2014-07-02
_audit_creation_method            'Materials Studio'
_symmetry_space_group_name_H-M    'P1'
_symmetry_Int_Tables_number       1
_symmetry_cell_setting            triclinic
loop_
_symmetry_equiv_pos_as_xyz
  x,y,z
_cell_length_a                    7.2470
_cell_length_b                    15.5873
_cell_length_c                    19.3370
_cell_angle_alpha                 106.3690
_cell_angle_beta                  90.0000
_cell_angle_gamma                 103.4420
loop_
_atom_site_label
_atom_site_type_symbol
_atom_site_fract_x
_atom_site_fract_y
_atom_site_fract_z
_atom_site_U_iso_or_equiv
_atom_site_adp_type
_atom_site_occupancy
Mn1    Mn    0.83875   0.35366   0.08992   0.01267  Uiso   1.00
Mn2    Mn    0.87062   0.58406   0.04905   0.01267  Uiso   1.00
Mn3    Mn    0.39981   0.56908   0.23072   0.01267  Uiso   1.00
Mn4    Mn    0.51491   0.35366   0.58992   0.01267  Uiso   1.00
Mn5    Mn    0.71344   0.58406   0.54905   0.01267  Uiso   1.00
Mn6    Mn    0.16927   0.56908   0.73072   0.01267  Uiso   1.00
H1     H     0.36850   0.21660   0.20230   0.01267  Uiso   1.00
H2     H     0.22350   0.23860   0.40580   0.01267  Uiso   1.00
H3     H     0.50200   0.46440   0.35400   0.01267  Uiso   1.00
H4     H     0.99560   0.95120   0.10750   0.01267  Uiso   1.00
H5     H     0.81710   0.80140   0.08710   0.01267  Uiso   1.00
H6     H     0.84270   0.83060   0.30010   0.01267  Uiso   1.00
H7     H     0.01920   0.98260   0.32250   0.01267  Uiso   1.00
H8     H     0.32690   0.78820   0.30620   0.01267  Uiso   1.00
H9     H     0.49040   0.93780   0.35810   0.01267  Uiso   1.00
H10    H     0.51110   0.98300   0.16210   0.01267  Uiso   1.00
H11    H     0.34010   0.83180   0.10980   0.01267  Uiso   1.00
H12    H     0.68220   0.22340   0.39740   0.01267  Uiso   1.00
H13    H     0.00180   0.45900   0.37090   0.01267  Uiso   1.00
H14    H     0.88210   0.22880   0.20280   0.01267  Uiso   1.00
H15    H     0.84810   0.21660   0.70230   0.01267  Uiso   1.00
H16    H     0.01510   0.23860   0.90580   0.01267  Uiso   1.00
H17    H     0.96240   0.46440   0.85400   0.01267  Uiso   1.00
H18    H     0.95560   0.95120   0.60750   0.01267  Uiso   1.00
H19    H     0.98430   0.80140   0.58710   0.01267  Uiso   1.00
H20    H     0.98790   0.83060   0.80010   0.01267  Uiso   1.00
H21    H     0.96340   0.98260   0.82250   0.01267  Uiso   1.00
H22    H     0.46130   0.78820   0.80620   0.01267  Uiso   1.00
H23    H     0.44740   0.93780   0.85810   0.01267  Uiso   1.00
H24    H     0.47190   0.98300   0.66210   0.01267  Uiso   1.00
H25    H     0.49170   0.83180   0.60980   0.01267  Uiso   1.00
H26    H     0.54120   0.22340   0.89740   0.01267  Uiso   1.00
H27    H     0.45720   0.45900   0.87090   0.01267  Uiso   1.00
H28    H     0.34670   0.22880   0.70280   0.01267  Uiso   1.00
C1     C     0.56010   0.39200   0.21610   0.01267  Uiso   1.00
C2     C     0.45270   0.34700   0.26970   0.01267  Uiso   1.00
C3     C     0.36560   0.25320   0.24930   0.01267  Uiso   1.00
C4     C     0.27250   0.21480   0.30200   0.01267  Uiso   1.00
C5     C     0.27770   0.26600   0.37140   0.01267  Uiso   1.00
C6     C     0.36450   0.36080   0.39190   0.01267  Uiso   1.00
C7     C     0.37160   0.41640   0.46920   0.01267  Uiso   1.00
C8     C     0.44850   0.40140   0.34100   0.01267  Uiso   1.00
C9     C     0.02100   0.98080   0.21530   0.01267  Uiso   1.00
C10    C     0.96450   0.92740   0.14610   0.01267  Uiso   1.00
C11    C     0.86020   0.83720   0.13400   0.01267  Uiso   1.00
C12    C     0.81940   0.79980   0.19090   0.01267  Uiso   1.00
C13    C     0.70310   0.70120   0.17580   0.01267  Uiso   1.00
C14    C     0.87520   0.85500   0.26170   0.01267  Uiso   1.00
C15    C     0.97890   0.94600   0.27560   0.01267  Uiso   1.00
C16    C     0.19950   0.69740   0.16850   0.01267  Uiso   1.00
C17    C     0.31610   0.79320   0.20220   0.01267  Uiso   1.00
C18    C     0.36320   0.82700   0.27740   0.01267  Uiso   1.00
C19    C     0.46170   0.91640   0.30840   0.01267  Uiso   1.00
C20    C     0.51930   0.97580   0.26580   0.01267  Uiso   1.00
C21    C     0.47360   0.94380   0.19070   0.01267  Uiso   1.00
C22    C     0.37160   0.85300   0.15930   0.01267  Uiso   1.00
C23    C     0.76860   0.20840   0.29470   0.01267  Uiso   1.00
C24    C     0.75110   0.25520   0.36800   0.01267  Uiso   1.00
C25    C     0.83870   0.35040   0.39620   0.01267  Uiso   1.00
C26    C     0.79950   0.40000   0.46940   0.01267  Uiso   1.00
C27    C     0.94310   0.39680   0.35220   0.01267  Uiso   1.00
C28    C     0.96120   0.35160   0.28040   0.01267  Uiso   1.00
C29    C     0.07180   0.40280   0.23220   0.01267  Uiso   1.00
C30    C     0.87240   0.25820   0.25130   0.01267  Uiso   1.00
C31    C     0.83190   0.39200   0.71610   0.01267  Uiso   1.00
C32    C     0.89430   0.34700   0.76970   0.01267  Uiso   1.00
C33    C     0.88760   0.25320   0.74930   0.01267  Uiso   1.00
C34    C     0.94230   0.21480   0.80200   0.01267  Uiso   1.00
C35    C     0.98830   0.26600   0.87140   0.01267  Uiso   1.00
C36    C     0.99630   0.36080   0.89190   0.01267  Uiso   1.00
C37    C     0.04480   0.41640   0.96920   0.01267  Uiso   1.00
C38    C     0.95290   0.40140   0.84100   0.01267  Uiso   1.00
C39    C     0.95980   0.98080   0.71530   0.01267  Uiso   1.00
C40    C     0.96290   0.92740   0.64610   0.01267  Uiso   1.00
C41    C     0.97700   0.83720   0.63400   0.01267  Uiso   1.00
C42    C     0.98040   0.79980   0.69090   0.01267  Uiso   1.00
C43    C     0.99810   0.70120   0.67580   0.01267  Uiso   1.00
C44    C     0.97980   0.85500   0.76170   0.01267  Uiso   1.00
C45    C     0.96710   0.94600   0.77560   0.01267  Uiso   1.00
C46    C     0.49790   0.69740   0.66850   0.01267  Uiso   1.00
C47    C     0.47710   0.79320   0.70220   0.01267  Uiso   1.00
C48    C     0.46380   0.82700   0.77740   0.01267  Uiso   1.00
C49    C     0.45470   0.91640   0.80840   0.01267  Uiso   1.00
C50    C     0.45650   0.97580   0.76580   0.01267  Uiso   1.00
C51    C     0.47020   0.94380   0.69070   0.01267  Uiso   1.00
C52    C     0.48140   0.85300   0.65930   0.01267  Uiso   1.00
C53    C     0.43980   0.20840   0.79470   0.01267  Uiso   1.00
C54    C     0.50410   0.25520   0.86800   0.01267  Uiso   1.00
C55    C     0.51170   0.35040   0.89620   0.01267  Uiso   1.00
C56    C     0.60050   0.40000   0.96940   0.01267  Uiso   1.00
C57    C     0.45370   0.39680   0.85220   0.01267  Uiso   1.00
C58    C     0.39040   0.35160   0.78040   0.01267  Uiso   1.00
C59    C     0.33100   0.40280   0.73220   0.01267  Uiso   1.00
C60    C     0.38580   0.25820   0.75130   0.01267  Uiso   1.00
N1     N     0.17990   0.11940   0.28860   0.01267  Uiso   1.00
N2     N     0.12160   0.07620   0.22510   0.01267  Uiso   1.00
N3     N     0.62020   0.06780   0.30170   0.01267  Uiso   1.00
N4     N     0.68000   0.11560   0.26110   0.01267  Uiso   1.00
N5     N     0.93950   0.11940   0.78860   0.01267  Uiso   1.00
N6     N     0.95460   0.07620   0.72510   0.01267  Uiso   1.00
N7     N     0.44760   0.06780   0.80170   0.01267  Uiso   1.00
N8     N     0.43560   0.11560   0.76110   0.01267  Uiso   1.00
O1     O     0.60273   0.33826   0.15920   0.01267  Uiso   1.00
O2     O     0.60197   0.47834   0.23200   0.01267  Uiso   1.00
O3     O     0.45431   0.50122   0.48620   0.01267  Uiso   1.00
O4     O     0.30113   0.37686   0.51640   0.01267  Uiso   1.00
O5     O     0.64556   0.67532   0.23080   0.01267  Uiso   1.00
O6     O     0.67220   0.65240   0.11270   0.01267  Uiso   1.00
O7     O     0.11784   0.68128   0.10720   0.01267  Uiso   1.00
O8     O     0.18126   0.63892   0.20400   0.01267  Uiso   1.00
O9     O     0.69879   0.35418   0.50640   0.01267  Uiso   1.00
O10    O     0.86608   0.48636   0.49140   0.01267  Uiso   1.00
O11    O     0.16657   0.48394   0.26310   0.01267  Uiso   1.00
O12    O     0.06001   0.36402   0.16490   0.01267  Uiso   1.00
O13    O     0.87413   0.50966   0.13740   0.01267  Uiso   1.00
O14    O     0.73553   0.33826   0.65920   0.01267  Uiso   1.00
O15    O     0.87637   0.47834   0.73200   0.01267  Uiso   1.00
O16    O     0.04691   0.50122   0.98620   0.01267  Uiso   1.00
O17    O     0.07573   0.37686   0.01640   0.01267  Uiso   1.00
O18    O     0.02976   0.67532   0.73080   0.01267  Uiso   1.00
O19    O     0.98020   0.65240   0.61270   0.01267  Uiso   1.00
O20    O     0.56344   0.68128   0.60720   0.01267  Uiso   1.00
O21    O     0.45766   0.63892   0.70400   0.01267  Uiso   1.00
O22    O     0.65539   0.35418   0.00640   0.01267  Uiso   1.00
O23    O     0.62028   0.48636   0.99140   0.01267  Uiso   1.00
O24    O     0.31737   0.48394   0.76310   0.01267  Uiso   1.00
O25    O     0.30401   0.36402   0.66490   0.01267  Uiso   1.00
O26    O     0.63553   0.50966   0.63740   0.01267  Uiso   1.00
