data_ECAHAT_clean
_audit_creation_date              2014-07-02
_audit_creation_method            'Materials Studio'
_symmetry_space_group_name_H-M    'P1'
_symmetry_Int_Tables_number       1
_symmetry_cell_setting            triclinic
loop_
_symmetry_equiv_pos_as_xyz
  x,y,z
_cell_length_a                    7.7165
_cell_length_b                    21.7460
_cell_length_c                    21.7460
_cell_angle_alpha                 120.0000
_cell_angle_beta                  90.0000
_cell_angle_gamma                 90.0000
loop_
_atom_site_label
_atom_site_type_symbol
_atom_site_fract_x
_atom_site_fract_y
_atom_site_fract_z
_atom_site_U_iso_or_equiv
_atom_site_adp_type
_atom_site_occupancy
Zn1    Zn    0.00000   0.50000   0.50000   0.01267  Uiso   1.00
Zn2    Zn    0.00000   0.00000   0.50000   0.01267  Uiso   1.00
Zn3    Zn    0.00000   0.50000   0.00000   0.01267  Uiso   1.00
H1     H     0.43770   0.34520   0.38210   0.01267  Uiso   1.00
H2     H     0.32050   0.31980   0.31280   0.01267  Uiso   1.00
H3     H     0.32690   0.27360   0.35140   0.01267  Uiso   1.00
H4     H     0.08580   0.27750   0.40670   0.01267  Uiso   1.00
H5     H     0.91990   0.21130   0.41560   0.01267  Uiso   1.00
H6     H     0.71590   0.13970   0.42570   0.01267  Uiso   1.00
H7     H     0.42090   0.30870   0.54610   0.01267  Uiso   1.00
H8     H     0.61860   0.38000   0.53040   0.01267  Uiso   1.00
H9     H     0.58350   0.09180   0.48080   0.01267  Uiso   1.00
H10    H     0.37890   0.01770   0.48340   0.01267  Uiso   1.00
H11    H     0.00950   0.15230   0.51580   0.01267  Uiso   1.00
H12    H     0.20410   0.23190   0.51590   0.01267  Uiso   1.00
H13    H     0.43770   0.03690   0.65480   0.01267  Uiso   1.00
H14    H     0.32050   0.99300   0.68020   0.01267  Uiso   1.00
H15    H     0.32690   0.07780   0.72640   0.01267  Uiso   1.00
H16    H     0.08580   0.12920   0.72250   0.01267  Uiso   1.00
H17    H     0.91990   0.20430   0.78870   0.01267  Uiso   1.00
H18    H     0.71590   0.28600   0.86030   0.01267  Uiso   1.00
H19    H     0.42090   0.23740   0.69130   0.01267  Uiso   1.00
H20    H     0.61860   0.15040   0.62000   0.01267  Uiso   1.00
H21    H     0.58350   0.38900   0.90820   0.01267  Uiso   1.00
H22    H     0.37890   0.46570   0.98230   0.01267  Uiso   1.00
H23    H     0.00950   0.36350   0.84770   0.01267  Uiso   1.00
H24    H     0.20410   0.28400   0.76810   0.01267  Uiso   1.00
H25    H     0.43770   0.61790   0.96310   0.01267  Uiso   1.00
H26    H     0.32050   0.68720   0.00700   0.01267  Uiso   1.00
H27    H     0.32690   0.64860   0.92220   0.01267  Uiso   1.00
H28    H     0.08580   0.59330   0.87080   0.01267  Uiso   1.00
H29    H     0.91990   0.58440   0.79570   0.01267  Uiso   1.00
H30    H     0.71590   0.57430   0.71400   0.01267  Uiso   1.00
H31    H     0.42090   0.45390   0.76260   0.01267  Uiso   1.00
H32    H     0.61860   0.46960   0.84960   0.01267  Uiso   1.00
H33    H     0.58350   0.51920   0.61100   0.01267  Uiso   1.00
H34    H     0.37890   0.51660   0.53430   0.01267  Uiso   1.00
H35    H     0.00950   0.48420   0.63650   0.01267  Uiso   1.00
H36    H     0.20410   0.48410   0.71600   0.01267  Uiso   1.00
H37    H     0.56230   0.65480   0.61790   0.01267  Uiso   1.00
H38    H     0.67950   0.68020   0.68720   0.01267  Uiso   1.00
H39    H     0.67310   0.72640   0.64860   0.01267  Uiso   1.00
H40    H     0.91420   0.72250   0.59330   0.01267  Uiso   1.00
H41    H     0.08010   0.78870   0.58440   0.01267  Uiso   1.00
H42    H     0.28410   0.86030   0.57430   0.01267  Uiso   1.00
H43    H     0.57910   0.69130   0.45390   0.01267  Uiso   1.00
H44    H     0.38140   0.62000   0.46960   0.01267  Uiso   1.00
H45    H     0.41650   0.90820   0.51920   0.01267  Uiso   1.00
H46    H     0.62110   0.98230   0.51660   0.01267  Uiso   1.00
H47    H     0.99050   0.84770   0.48420   0.01267  Uiso   1.00
H48    H     0.79590   0.76810   0.48410   0.01267  Uiso   1.00
H49    H     0.56230   0.96310   0.34520   0.01267  Uiso   1.00
H50    H     0.67950   0.00700   0.31980   0.01267  Uiso   1.00
H51    H     0.67310   0.92220   0.27360   0.01267  Uiso   1.00
H52    H     0.91420   0.87080   0.27750   0.01267  Uiso   1.00
H53    H     0.08010   0.79570   0.21130   0.01267  Uiso   1.00
H54    H     0.28410   0.71400   0.13970   0.01267  Uiso   1.00
H55    H     0.57910   0.76260   0.30870   0.01267  Uiso   1.00
H56    H     0.38140   0.84960   0.38000   0.01267  Uiso   1.00
H57    H     0.41650   0.61100   0.09180   0.01267  Uiso   1.00
H58    H     0.62110   0.53430   0.01770   0.01267  Uiso   1.00
H59    H     0.99050   0.63650   0.15230   0.01267  Uiso   1.00
H60    H     0.79590   0.71600   0.23190   0.01267  Uiso   1.00
H61    H     0.56230   0.38210   0.03690   0.01267  Uiso   1.00
H62    H     0.67950   0.31280   0.99300   0.01267  Uiso   1.00
H63    H     0.67310   0.35140   0.07780   0.01267  Uiso   1.00
H64    H     0.91420   0.40670   0.12920   0.01267  Uiso   1.00
H65    H     0.08010   0.41560   0.20430   0.01267  Uiso   1.00
H66    H     0.28410   0.42570   0.28600   0.01267  Uiso   1.00
H67    H     0.57910   0.54610   0.23740   0.01267  Uiso   1.00
H68    H     0.38140   0.53040   0.15040   0.01267  Uiso   1.00
H69    H     0.41650   0.48080   0.38900   0.01267  Uiso   1.00
H70    H     0.62110   0.48340   0.46570   0.01267  Uiso   1.00
H71    H     0.99050   0.51580   0.36350   0.01267  Uiso   1.00
H72    H     0.79590   0.51590   0.28400   0.01267  Uiso   1.00
C1     C     0.32900   0.32188   0.35877   0.01267  Uiso   1.00
C2     C     0.17764   0.36364   0.40504   0.01267  Uiso   1.00
C3     C     0.06061   0.32617   0.42360   0.01267  Uiso   1.00
C4     C     0.91076   0.35338   0.46445   0.01267  Uiso   1.00
C5     C     0.78746   0.30382   0.47091   0.01267  Uiso   1.00
C6     C     0.81579   0.23171   0.44113   0.01267  Uiso   1.00
C7     C     0.69512   0.18938   0.44798   0.01267  Uiso   1.00
C8     C     0.54643   0.21604   0.48566   0.01267  Uiso   1.00
C9     C     0.52100   0.28798   0.51776   0.01267  Uiso   1.00
C10    C     0.64050   0.33049   0.50898   0.01267  Uiso   1.00
C11    C     0.41842   0.16820   0.49173   0.01267  Uiso   1.00
C12    C     0.46498   0.10535   0.48633   0.01267  Uiso   1.00
C13    C     0.34189   0.06181   0.48889   0.01267  Uiso   1.00
C14    C     0.12845   0.13951   0.50786   0.01267  Uiso   1.00
C15    C     0.24300   0.18665   0.50667   0.01267  Uiso   1.00
C16    C     0.32900   0.03689   0.67812   0.01267  Uiso   1.00
C17    C     0.17764   0.04140   0.63636   0.01267  Uiso   1.00
C18    C     0.06061   0.09743   0.67383   0.01267  Uiso   1.00
C19    C     0.91076   0.11107   0.64662   0.01267  Uiso   1.00
C20    C     0.78746   0.16709   0.69618   0.01267  Uiso   1.00
C21    C     0.81579   0.20942   0.76829   0.01267  Uiso   1.00
C22    C     0.69512   0.25860   0.81062   0.01267  Uiso   1.00
C23    C     0.54643   0.26962   0.78396   0.01267  Uiso   1.00
C24    C     0.52100   0.22978   0.71202   0.01267  Uiso   1.00
C25    C     0.64050   0.17849   0.66951   0.01267  Uiso   1.00
C26    C     0.41842   0.32353   0.83180   0.01267  Uiso   1.00
C27    C     0.46498   0.38098   0.89465   0.01267  Uiso   1.00
C28    C     0.34189   0.42708   0.93819   0.01267  Uiso   1.00
C29    C     0.12845   0.36835   0.86049   0.01267  Uiso   1.00
C30    C     0.24300   0.32002   0.81335   0.01267  Uiso   1.00
C31    C     0.32900   0.64123   0.96311   0.01267  Uiso   1.00
C32    C     0.17764   0.59496   0.95860   0.01267  Uiso   1.00
C33    C     0.06061   0.57640   0.90257   0.01267  Uiso   1.00
C34    C     0.91076   0.53555   0.88893   0.01267  Uiso   1.00
C35    C     0.78746   0.52909   0.83291   0.01267  Uiso   1.00
C36    C     0.81579   0.55887   0.79058   0.01267  Uiso   1.00
C37    C     0.69512   0.55202   0.74140   0.01267  Uiso   1.00
C38    C     0.54643   0.51434   0.73038   0.01267  Uiso   1.00
C39    C     0.52100   0.48224   0.77022   0.01267  Uiso   1.00
C40    C     0.64050   0.49102   0.82151   0.01267  Uiso   1.00
C41    C     0.41842   0.50827   0.67647   0.01267  Uiso   1.00
C42    C     0.46498   0.51367   0.61902   0.01267  Uiso   1.00
C43    C     0.34189   0.51111   0.57292   0.01267  Uiso   1.00
C44    C     0.12845   0.49214   0.63165   0.01267  Uiso   1.00
C45    C     0.24300   0.49333   0.67998   0.01267  Uiso   1.00
C46    C     0.67100   0.67812   0.64123   0.01267  Uiso   1.00
C47    C     0.82236   0.63636   0.59496   0.01267  Uiso   1.00
C48    C     0.93939   0.67383   0.57640   0.01267  Uiso   1.00
C49    C     0.08924   0.64662   0.53555   0.01267  Uiso   1.00
C50    C     0.21254   0.69618   0.52909   0.01267  Uiso   1.00
C51    C     0.18421   0.76829   0.55887   0.01267  Uiso   1.00
C52    C     0.30488   0.81062   0.55202   0.01267  Uiso   1.00
C53    C     0.45357   0.78396   0.51434   0.01267  Uiso   1.00
C54    C     0.47900   0.71202   0.48224   0.01267  Uiso   1.00
C55    C     0.35950   0.66951   0.49102   0.01267  Uiso   1.00
C56    C     0.58158   0.83180   0.50827   0.01267  Uiso   1.00
C57    C     0.53502   0.89465   0.51367   0.01267  Uiso   1.00
C58    C     0.65811   0.93819   0.51111   0.01267  Uiso   1.00
C59    C     0.87155   0.86049   0.49214   0.01267  Uiso   1.00
C60    C     0.75700   0.81335   0.49333   0.01267  Uiso   1.00
C61    C     0.67100   0.96311   0.32188   0.01267  Uiso   1.00
C62    C     0.82236   0.95860   0.36364   0.01267  Uiso   1.00
C63    C     0.93939   0.90257   0.32617   0.01267  Uiso   1.00
C64    C     0.08924   0.88893   0.35338   0.01267  Uiso   1.00
C65    C     0.21254   0.83291   0.30382   0.01267  Uiso   1.00
C66    C     0.18421   0.79058   0.23171   0.01267  Uiso   1.00
C67    C     0.30488   0.74140   0.18938   0.01267  Uiso   1.00
C68    C     0.45357   0.73038   0.21604   0.01267  Uiso   1.00
C69    C     0.47900   0.77022   0.28798   0.01267  Uiso   1.00
C70    C     0.35950   0.82151   0.33049   0.01267  Uiso   1.00
C71    C     0.58158   0.67647   0.16820   0.01267  Uiso   1.00
C72    C     0.53502   0.61902   0.10535   0.01267  Uiso   1.00
C73    C     0.65811   0.57292   0.06181   0.01267  Uiso   1.00
C74    C     0.87155   0.63165   0.13951   0.01267  Uiso   1.00
C75    C     0.75700   0.67998   0.18665   0.01267  Uiso   1.00
C76    C     0.67100   0.35877   0.03689   0.01267  Uiso   1.00
C77    C     0.82236   0.40504   0.04140   0.01267  Uiso   1.00
C78    C     0.93939   0.42360   0.09743   0.01267  Uiso   1.00
C79    C     0.08924   0.46445   0.11107   0.01267  Uiso   1.00
C80    C     0.21254   0.47091   0.16709   0.01267  Uiso   1.00
C81    C     0.18421   0.44113   0.20942   0.01267  Uiso   1.00
C82    C     0.30488   0.44798   0.25860   0.01267  Uiso   1.00
C83    C     0.45357   0.48566   0.26962   0.01267  Uiso   1.00
C84    C     0.47900   0.51776   0.22978   0.01267  Uiso   1.00
C85    C     0.35950   0.50898   0.17849   0.01267  Uiso   1.00
C86    C     0.58158   0.49173   0.32353   0.01267  Uiso   1.00
C87    C     0.53502   0.48633   0.38098   0.01267  Uiso   1.00
C88    C     0.65811   0.48889   0.42708   0.01267  Uiso   1.00
C89    C     0.87155   0.50786   0.36835   0.01267  Uiso   1.00
C90    C     0.75700   0.50667   0.32002   0.01267  Uiso   1.00
N1     N     0.17498   0.07658   0.49842   0.01267  Uiso   1.00
N2     N     0.17498   0.42184   0.92342   0.01267  Uiso   1.00
N3     N     0.17498   0.50158   0.57816   0.01267  Uiso   1.00
N4     N     0.82502   0.92342   0.50158   0.01267  Uiso   1.00
N5     N     0.82502   0.57816   0.07658   0.01267  Uiso   1.00
N6     N     0.82502   0.49842   0.42184   0.01267  Uiso   1.00
O1     O     0.86510   0.41800   0.49692   0.01267  Uiso   1.00
O2     O     0.16697   0.42770   0.42224   0.01267  Uiso   1.00
O3     O     0.86510   0.07892   0.58200   0.01267  Uiso   1.00
O4     O     0.16697   0.99454   0.57230   0.01267  Uiso   1.00
O5     O     0.86510   0.50308   0.92108   0.01267  Uiso   1.00
O6     O     0.16697   0.57776   0.00546   0.01267  Uiso   1.00
O7     O     0.13490   0.58200   0.50308   0.01267  Uiso   1.00
O8     O     0.83303   0.57230   0.57776   0.01267  Uiso   1.00
O9     O     0.13490   0.92108   0.41800   0.01267  Uiso   1.00
O10    O     0.83303   0.00546   0.42770   0.01267  Uiso   1.00
O11    O     0.13490   0.49692   0.07892   0.01267  Uiso   1.00
O12    O     0.83303   0.42224   0.99454   0.01267  Uiso   1.00
