data_ECAHOH_clean
_audit_creation_date              2014-07-02
_audit_creation_method            'Materials Studio'
_symmetry_space_group_name_H-M    'P1'
_symmetry_Int_Tables_number       1
_symmetry_cell_setting            triclinic
loop_
_symmetry_equiv_pos_as_xyz
  x,y,z
_cell_length_a                    7.7410
_cell_length_b                    15.5967
_cell_length_c                    15.5967
_cell_angle_alpha                 62.6810
_cell_angle_beta                  80.4772
_cell_angle_gamma                 99.5228
loop_
_atom_site_label
_atom_site_type_symbol
_atom_site_fract_x
_atom_site_fract_y
_atom_site_fract_z
_atom_site_U_iso_or_equiv
_atom_site_adp_type
_atom_site_occupancy
Cu1    Cu    0.50000   0.00000   0.50000   0.01267  Uiso   1.00
H1     H     0.13800   0.95620   0.32130   0.01267  Uiso   1.00
H2     H     0.22120   0.88010   0.30070   0.01267  Uiso   1.00
H3     H     0.31760   0.99560   0.23500   0.01267  Uiso   1.00
H4     H     0.39190   0.80060   0.39730   0.01267  Uiso   1.00
H5     H     0.85990   0.81600   0.51980   0.01267  Uiso   1.00
H6     H     0.01610   0.70140   0.53150   0.01267  Uiso   1.00
H7     H     0.64370   0.55930   0.46920   0.01267  Uiso   1.00
H8     H     0.47300   0.66780   0.45710   0.01267  Uiso   1.00
H9     H     0.86200   0.04380   0.67870   0.01267  Uiso   1.00
H10    H     0.77880   0.11990   0.69930   0.01267  Uiso   1.00
H11    H     0.68240   0.00440   0.76500   0.01267  Uiso   1.00
H12    H     0.60810   0.19940   0.60270   0.01267  Uiso   1.00
H13    H     0.14010   0.18400   0.48020   0.01267  Uiso   1.00
H14    H     0.98390   0.29860   0.46850   0.01267  Uiso   1.00
H15    H     0.35630   0.44070   0.53080   0.01267  Uiso   1.00
H16    H     0.52700   0.33220   0.54290   0.01267  Uiso   1.00
C1     C     0.24920   0.94230   0.30110   0.01267  Uiso   1.00
C2     C     0.35990   0.93379   0.37389   0.01267  Uiso   1.00
C3     C     0.43063   0.85091   0.41182   0.01267  Uiso   1.00
C4     C     0.55406   0.83754   0.46916   0.01267  Uiso   1.00
C5     C     0.64822   0.75750   0.48404   0.01267  Uiso   1.00
C6     C     0.81315   0.76452   0.50837   0.01267  Uiso   1.00
C7     C     0.90620   0.69510   0.51530   0.01267  Uiso   1.00
C8     C     0.68820   0.61215   0.47915   0.01267  Uiso   1.00
C9     C     0.58450   0.67733   0.47113   0.01267  Uiso   1.00
C10    C     0.75080   0.05770   0.69890   0.01267  Uiso   1.00
C11    C     0.64010   0.06621   0.62611   0.01267  Uiso   1.00
C12    C     0.56937   0.14909   0.58818   0.01267  Uiso   1.00
C13    C     0.44594   0.16246   0.53084   0.01267  Uiso   1.00
C14    C     0.35178   0.24250   0.51596   0.01267  Uiso   1.00
C15    C     0.18685   0.23548   0.49163   0.01267  Uiso   1.00
C16    C     0.09380   0.30490   0.48470   0.01267  Uiso   1.00
C17    C     0.31180   0.38785   0.52085   0.01267  Uiso   1.00
C18    C     0.41550   0.32267   0.52887   0.01267  Uiso   1.00
N1     N     0.84831   0.61929   0.50006   0.01267  Uiso   1.00
N2     N     0.15169   0.38071   0.49994   0.01267  Uiso   1.00
O1     O     0.38194   0.00248   0.39536   0.01267  Uiso   1.00
O2     O     0.60265   0.89139   0.50654   0.01267  Uiso   1.00
O3     O     0.61806   0.99752   0.60464   0.01267  Uiso   1.00
O4     O     0.39735   0.10861   0.49346   0.01267  Uiso   1.00
Cu2    Cu    0.00000   0.50000   0.50000   0.01267  Uiso   1.00
H17    H     0.45930   0.32130   0.72250   0.01267  Uiso   1.00
H18    H     0.52190   0.30070   0.81920   0.01267  Uiso   1.00
H19    H     0.55260   0.23500   0.76940   0.01267  Uiso   1.00
H20    H     0.78920   0.39730   0.80210   0.01267  Uiso   1.00
H21    H     0.37970   0.51980   0.66420   0.01267  Uiso   1.00
H22    H     0.54760   0.53150   0.76710   0.01267  Uiso   1.00
H23    H     0.11290   0.46920   0.97150   0.01267  Uiso   1.00
H24    H     0.93010   0.45710   0.87510   0.01267  Uiso   1.00
H25    H     0.54070   0.67870   0.27750   0.01267  Uiso   1.00
H26    H     0.47810   0.69930   0.18080   0.01267  Uiso   1.00
H27    H     0.44740   0.76500   0.23060   0.01267  Uiso   1.00
H28    H     0.21080   0.60270   0.19790   0.01267  Uiso   1.00
H29    H     0.62030   0.48020   0.33580   0.01267  Uiso   1.00
H30    H     0.45240   0.46850   0.23290   0.01267  Uiso   1.00
H31    H     0.88710   0.53080   0.02850   0.01267  Uiso   1.00
H32    H     0.06990   0.54290   0.12490   0.01267  Uiso   1.00
C19    C     0.55030   0.30110   0.75660   0.01267  Uiso   1.00
C20    C     0.73379   0.37389   0.69232   0.01267  Uiso   1.00
C21    C     0.84245   0.41182   0.73727   0.01267  Uiso   1.00
C22    C     0.02322   0.46916   0.69330   0.01267  Uiso   1.00
C23    C     0.13226   0.48404   0.75846   0.01267  Uiso   1.00
C24    C     0.32152   0.50837   0.72711   0.01267  Uiso   1.00
C25    C     0.42150   0.51530   0.78960   0.01267  Uiso   1.00
C26    C     0.16735   0.47915   0.90870   0.01267  Uiso   1.00
C27    C     0.05563   0.47113   0.85154   0.01267  Uiso   1.00
C28    C     0.44970   0.69890   0.24340   0.01267  Uiso   1.00
C29    C     0.26621   0.62611   0.30768   0.01267  Uiso   1.00
C30    C     0.15755   0.58818   0.26273   0.01267  Uiso   1.00
C31    C     0.97678   0.53084   0.30670   0.01267  Uiso   1.00
C32    C     0.86774   0.51596   0.24154   0.01267  Uiso   1.00
C33    C     0.67848   0.49163   0.27289   0.01267  Uiso   1.00
C34    C     0.57850   0.48470   0.21040   0.01267  Uiso   1.00
C35    C     0.83265   0.52085   0.09130   0.01267  Uiso   1.00
C36    C     0.94437   0.52887   0.14846   0.01267  Uiso   1.00
N3     N     0.34837   0.50006   0.88065   0.01267  Uiso   1.00
N4     N     0.65163   0.49994   0.11935   0.01267  Uiso   1.00
O5     O     0.77730   0.39536   0.60216   0.01267  Uiso   1.00
O6     O     0.10919   0.50654   0.60207   0.01267  Uiso   1.00
O7     O     0.22270   0.60464   0.39784   0.01267  Uiso   1.00
O8     O     0.89081   0.49346   0.39793   0.01267  Uiso   1.00
Cu3    Cu    0.50000   0.50000  -0.00000   0.01267  Uiso   1.00
H33    H     0.18180   0.72250   0.95620   0.01267  Uiso   1.00
H34    H     0.34110   0.81920   0.88010   0.01267  Uiso   1.00
H35    H     0.32200   0.76940   0.99560   0.01267  Uiso   1.00
H36    H     0.59130   0.80210   0.80060   0.01267  Uiso   1.00
H37    H     0.04390   0.66420   0.81600   0.01267  Uiso   1.00
H38    H     0.31470   0.76710   0.70140   0.01267  Uiso   1.00
H39    H     0.08440   0.97150   0.55930   0.01267  Uiso   1.00
H40    H     0.80520   0.87510   0.66780   0.01267  Uiso   1.00
H41    H     0.81820   0.27750   0.04380   0.01267  Uiso   1.00
H42    H     0.65890   0.18080   0.11990   0.01267  Uiso   1.00
H43    H     0.67800   0.23060   0.00440   0.01267  Uiso   1.00
H44    H     0.40870   0.19790   0.19940   0.01267  Uiso   1.00
H45    H     0.95610   0.33580   0.18400   0.01267  Uiso   1.00
H46    H     0.68530   0.23290   0.29860   0.01267  Uiso   1.00
H47    H     0.91560   0.02850   0.44070   0.01267  Uiso   1.00
H48    H     0.19480   0.12490   0.33220   0.01267  Uiso   1.00
C37    C     0.30690   0.75660   0.94230   0.01267  Uiso   1.00
C38    C     0.42611   0.69232   0.93379   0.01267  Uiso   1.00
C39    C     0.57972   0.73727   0.85091   0.01267  Uiso   1.00
C40    C     0.71652   0.69330   0.83754   0.01267  Uiso   1.00
C41    C     0.89072   0.75846   0.75750   0.01267  Uiso   1.00
C42    C     0.04863   0.72711   0.76452   0.01267  Uiso   1.00
C43    C     0.21110   0.78960   0.69510   0.01267  Uiso   1.00
C44    C     0.07605   0.90870   0.61215   0.01267  Uiso   1.00
C45    C     0.90717   0.85154   0.67733   0.01267  Uiso   1.00
C46    C     0.69310   0.24340   0.05770   0.01267  Uiso   1.00
C47    C     0.57389   0.30768   0.06621   0.01267  Uiso   1.00
C48    C     0.42028   0.26273   0.14909   0.01267  Uiso   1.00
C49    C     0.28348   0.30670   0.16246   0.01267  Uiso   1.00
C50    C     0.10928   0.24154   0.24250   0.01267  Uiso   1.00
C51    C     0.95137   0.27289   0.23548   0.01267  Uiso   1.00
C52    C     0.78890   0.21040   0.30490   0.01267  Uiso   1.00
C53    C     0.92395   0.09130   0.38785   0.01267  Uiso   1.00
C54    C     0.09283   0.14846   0.32267   0.01267  Uiso   1.00
N5     N     0.22902   0.88065   0.61929   0.01267  Uiso   1.00
N6     N     0.77098   0.11935   0.38071   0.01267  Uiso   1.00
O9     O     0.37946   0.60216   0.00248   0.01267  Uiso   1.00
O10    O     0.71126   0.60207   0.89139   0.01267  Uiso   1.00
O11    O     0.62054   0.39784   0.99752   0.01267  Uiso   1.00
O12    O     0.28874   0.39793   0.10861   0.01267  Uiso   1.00
