data_ECAHEX_clean
_audit_creation_date              2014-07-02
_audit_creation_method            'Materials Studio'
_symmetry_space_group_name_H-M    'P1'
_symmetry_Int_Tables_number       1
_symmetry_cell_setting            triclinic
loop_
_symmetry_equiv_pos_as_xyz
  x,y,z
_cell_length_a                    7.7554
_cell_length_b                    15.6408
_cell_length_c                    15.6408
_cell_angle_alpha                 62.6759
_cell_angle_beta                  80.4864
_cell_angle_gamma                 99.5136
loop_
_atom_site_label
_atom_site_type_symbol
_atom_site_fract_x
_atom_site_fract_y
_atom_site_fract_z
_atom_site_U_iso_or_equiv
_atom_site_adp_type
_atom_site_occupancy
Cu1    Cu    0.50000   0.00000   0.50000   0.01267  Uiso   1.00
H1     H     0.81040   0.94240   0.72980   0.01267  Uiso   1.00
H2     H     0.64030   0.88740   0.82330   0.01267  Uiso   1.00
H3     H     0.69510   0.00420   0.75710   0.01267  Uiso   1.00
H4     H     0.40400   0.80290   0.80240   0.01267  Uiso   1.00
H5     H     0.19390   0.66980   0.87390   0.01267  Uiso   1.00
H6     H     0.95470   0.81590   0.66450   0.01267  Uiso   1.00
H7     H     0.68480   0.70120   0.76790   0.01267  Uiso   1.00
H8     H     0.91680   0.56070   0.96970   0.01267  Uiso   1.00
H9     H     0.18960   0.05760   0.27020   0.01267  Uiso   1.00
H10    H     0.35970   0.11260   0.17670   0.01267  Uiso   1.00
H11    H     0.30490   0.99580   0.24290   0.01267  Uiso   1.00
H12    H     0.59600   0.19710   0.19760   0.01267  Uiso   1.00
H13    H     0.80610   0.33020   0.12610   0.01267  Uiso   1.00
H14    H     0.04530   0.18410   0.33550   0.01267  Uiso   1.00
H15    H     0.31520   0.29880   0.23210   0.01267  Uiso   1.00
H16    H     0.08320   0.43930   0.03030   0.01267  Uiso   1.00
C1     C     0.69010   0.94290   0.75640   0.01267  Uiso   1.00
C2     C     0.57212   0.93432   0.69226   0.01267  Uiso   1.00
C3     C     0.41741   0.85258   0.73715   0.01267  Uiso   1.00
C4     C     0.28258   0.83920   0.69296   0.01267  Uiso   1.00
C5     C     0.10829   0.75910   0.75773   0.01267  Uiso   1.00
C6     C     0.09211   0.67918   0.85025   0.01267  Uiso   1.00
C7     C     0.95085   0.76483   0.72728   0.01267  Uiso   1.00
C8     C     0.78874   0.69514   0.78992   0.01267  Uiso   1.00
C9     C     0.92442   0.61368   0.90712   0.01267  Uiso   1.00
C10    C     0.30990   0.05710   0.24360   0.01267  Uiso   1.00
C11    C     0.42788   0.06568   0.30774   0.01267  Uiso   1.00
C12    C     0.58259   0.14742   0.26285   0.01267  Uiso   1.00
C13    C     0.71742   0.16080   0.30704   0.01267  Uiso   1.00
C14    C     0.89171   0.24090   0.24227   0.01267  Uiso   1.00
C15    C     0.90789   0.32082   0.14975   0.01267  Uiso   1.00
C16    C     0.04915   0.23517   0.27272   0.01267  Uiso   1.00
C17    C     0.21126   0.30486   0.21008   0.01267  Uiso   1.00
C18    C     0.07558   0.38632   0.09288   0.01267  Uiso   1.00
N1     N     0.77207   0.62009   0.87978   0.01267  Uiso   1.00
N2     N     0.22793   0.37991   0.12022   0.01267  Uiso   1.00
O1     O     0.28831   0.89188   0.60155   0.01267  Uiso   1.00
O2     O     0.62032   0.00246   0.60200   0.01267  Uiso   1.00
O3     O     0.71169   0.10812   0.39845   0.01267  Uiso   1.00
O4     O     0.37968   0.99754   0.39800   0.01267  Uiso   1.00
Cu2    Cu    0.00000   0.50000   0.50000   0.01267  Uiso   1.00
H17    H     0.54020   0.72980   0.32780   0.01267  Uiso   1.00
H18    H     0.46360   0.82330   0.28930   0.01267  Uiso   1.00
H19    H     0.45220   0.75710   0.23870   0.01267  Uiso   1.00
H20    H     0.20640   0.80240   0.39470   0.01267  Uiso   1.00
H21    H     0.06780   0.87390   0.45630   0.01267  Uiso   1.00
H22    H     0.61920   0.66450   0.51960   0.01267  Uiso   1.00
H23    H     0.45270   0.76790   0.53090   0.01267  Uiso   1.00
H24    H     0.88650   0.96970   0.46960   0.01267  Uiso   1.00
H25    H     0.45980   0.27020   0.67220   0.01267  Uiso   1.00
H26    H     0.53640   0.17670   0.71070   0.01267  Uiso   1.00
H27    H     0.54780   0.24290   0.76130   0.01267  Uiso   1.00
H28    H     0.79360   0.19760   0.60530   0.01267  Uiso   1.00
H29    H     0.93220   0.12610   0.54370   0.01267  Uiso   1.00
H30    H     0.38080   0.33550   0.48040   0.01267  Uiso   1.00
H31    H     0.54730   0.23210   0.46910   0.01267  Uiso   1.00
H32    H     0.11350   0.03030   0.53040   0.01267  Uiso   1.00
C19    C     0.44650   0.75640   0.30070   0.01267  Uiso   1.00
C20    C     0.26438   0.69226   0.37342   0.01267  Uiso   1.00
C21    C     0.15456   0.73715   0.41027   0.01267  Uiso   1.00
C22    C     0.97554   0.69296   0.46784   0.01267  Uiso   1.00
C23    C     0.86602   0.75773   0.48317   0.01267  Uiso   1.00
C24    C     0.94236   0.85025   0.47057   0.01267  Uiso   1.00
C25    C     0.67813   0.72728   0.50789   0.01267  Uiso   1.00
C26    C     0.57866   0.78992   0.51494   0.01267  Uiso   1.00
C27    C     0.83154   0.90712   0.47920   0.01267  Uiso   1.00
C28    C     0.55350   0.24360   0.69930   0.01267  Uiso   1.00
C29    C     0.73562   0.30774   0.62658   0.01267  Uiso   1.00
C30    C     0.84544   0.26285   0.58973   0.01267  Uiso   1.00
C31    C     0.02446   0.30704   0.53216   0.01267  Uiso   1.00
C32    C     0.13398   0.24227   0.51683   0.01267  Uiso   1.00
C33    C     0.05764   0.14975   0.52943   0.01267  Uiso   1.00
C34    C     0.32187   0.27272   0.49211   0.01267  Uiso   1.00
C35    C     0.42134   0.21008   0.48506   0.01267  Uiso   1.00
C36    C     0.16846   0.09288   0.52080   0.01267  Uiso   1.00
N3     N     0.65185   0.87978   0.50013   0.01267  Uiso   1.00
N4     N     0.34815   0.12022   0.49987   0.01267  Uiso   1.00
O5     O     0.88986   0.60155   0.50657   0.01267  Uiso   1.00
O6     O     0.22232   0.60200   0.39554   0.01267  Uiso   1.00
O7     O     0.11014   0.39845   0.49343   0.01267  Uiso   1.00
O8     O     0.77768   0.39800   0.60446   0.01267  Uiso   1.00
Cu3    Cu    0.50000   0.50000   0.00000   0.01267  Uiso   1.00
H33    H     0.86800   0.32780   0.94240   0.01267  Uiso   1.00
H34    H     0.75290   0.28930   0.88740   0.01267  Uiso   1.00
H35    H     0.69090   0.23870   0.00420   0.01267  Uiso   1.00
H36    H     0.60110   0.39470   0.80290   0.01267  Uiso   1.00
H37    H     0.52410   0.45630   0.66980   0.01267  Uiso   1.00
H38    H     0.13880   0.51960   0.81590   0.01267  Uiso   1.00
H39    H     0.98360   0.53090   0.70120   0.01267  Uiso   1.00
H40    H     0.35610   0.46960   0.56070   0.01267  Uiso   1.00
H41    H     0.13200   0.67220   0.05760   0.01267  Uiso   1.00
H42    H     0.24710   0.71070   0.11260   0.01267  Uiso   1.00
H43    H     0.30910   0.76130   0.99580   0.01267  Uiso   1.00
H44    H     0.39890   0.60530   0.19710   0.01267  Uiso   1.00
H45    H     0.47590   0.54370   0.33020   0.01267  Uiso   1.00
H46    H     0.86120   0.48040   0.18410   0.01267  Uiso   1.00
H47    H     0.01640   0.46910   0.29880   0.01267  Uiso   1.00
H48    H     0.64390   0.53040   0.43930   0.01267  Uiso   1.00
C37    C     0.74720   0.30070   0.94290   0.01267  Uiso   1.00
C38    C     0.63780   0.37342   0.93432   0.01267  Uiso   1.00
C39    C     0.56483   0.41027   0.85258   0.01267  Uiso   1.00
C40    C     0.44338   0.46784   0.83920   0.01267  Uiso   1.00
C41    C     0.34919   0.48317   0.75910   0.01267  Uiso   1.00
C42    C     0.41293   0.47057   0.67918   0.01267  Uiso   1.00
C43    C     0.18602   0.50789   0.76483   0.01267  Uiso   1.00
C44    C     0.09360   0.51494   0.69514   0.01267  Uiso   1.00
C45    C     0.31074   0.47920   0.61368   0.01267  Uiso   1.00
C46    C     0.25280   0.69930   0.05710   0.01267  Uiso   1.00
C47    C     0.36220   0.62658   0.06568   0.01267  Uiso   1.00
C48    C     0.43517   0.58973   0.14742   0.01267  Uiso   1.00
C49    C     0.55662   0.53216   0.16080   0.01267  Uiso   1.00
C50    C     0.65081   0.51683   0.24090   0.01267  Uiso   1.00
C51    C     0.58707   0.52943   0.32082   0.01267  Uiso   1.00
C52    C     0.81398   0.49211   0.23517   0.01267  Uiso   1.00
C53    C     0.90640   0.48506   0.30486   0.01267  Uiso   1.00
C54    C     0.68926   0.52080   0.38632   0.01267  Uiso   1.00
N5     N     0.15198   0.50013   0.62009   0.01267  Uiso   1.00
N6     N     0.84802   0.49987   0.37991   0.01267  Uiso   1.00
O9     O     0.39643   0.50657   0.89188   0.01267  Uiso   1.00
O10    O     0.61786   0.39554   0.00246   0.01267  Uiso   1.00
O11    O     0.60357   0.49343   0.10812   0.01267  Uiso   1.00
O12    O     0.38214   0.60446   0.99754   0.01267  Uiso   1.00
