data_ECASAD_clean
_audit_creation_date              2014-07-02
_audit_creation_method            'Materials Studio'
_symmetry_space_group_name_H-M    'P1'
_symmetry_Int_Tables_number       1
_symmetry_cell_setting            triclinic
loop_
_symmetry_equiv_pos_as_xyz
  x,y,z
_cell_length_a                    9.0656
_cell_length_b                    10.2290
_cell_length_c                    11.7640
_cell_angle_alpha                 115.7700
_cell_angle_beta                  90.1891
_cell_angle_gamma                 90.0000
loop_
_atom_site_label
_atom_site_type_symbol
_atom_site_fract_x
_atom_site_fract_y
_atom_site_fract_z
_atom_site_U_iso_or_equiv
_atom_site_adp_type
_atom_site_occupancy
Zn1    Zn    0.92996   0.15376   0.44688   0.01267  Uiso   1.00
Zn2    Zn    0.57004   0.70688   0.55312   0.01267  Uiso   1.00
Zn3    Zn    0.07004   0.84624   0.55312   0.01267  Uiso   1.00
Zn4    Zn    0.42996   0.29312   0.44688   0.01267  Uiso   1.00
P1     P     0.73671   0.43544   0.55614   0.01267  Uiso   1.00
P2     P     0.76329   0.87930   0.44386   0.01267  Uiso   1.00
P3     P     0.26329   0.56456   0.44386   0.01267  Uiso   1.00
P4     P     0.23671   0.12070   0.55614   0.01267  Uiso   1.00
H1     H     0.88590   0.52730   0.69360   0.01267  Uiso   1.00
H2     H     0.01460   0.85590   0.24020   0.01267  Uiso   1.00
H3     H     0.15380   0.76200   0.06080   0.01267  Uiso   1.00
H4     H     0.21270   0.16540   0.09540   0.01267  Uiso   1.00
H5     H     0.06880   0.24780   0.27400   0.01267  Uiso   1.00
H6     H     0.61410   0.83370   0.30640   0.01267  Uiso   1.00
H7     H     0.48540   0.61570   0.75980   0.01267  Uiso   1.00
H8     H     0.34620   0.70120   0.93920   0.01267  Uiso   1.00
H9     H     0.28730   0.07000   0.90460   0.01267  Uiso   1.00
H10    H     0.43120   0.97380   0.72600   0.01267  Uiso   1.00
H11    H     0.11410   0.47270   0.30640   0.01267  Uiso   1.00
H12    H     0.98540   0.14410   0.75980   0.01267  Uiso   1.00
H13    H     0.84620   0.23800   0.93920   0.01267  Uiso   1.00
H14    H     0.78730   0.83460   0.90460   0.01267  Uiso   1.00
H15    H     0.93120   0.75220   0.72600   0.01267  Uiso   1.00
H16    H     0.38590   0.16630   0.69360   0.01267  Uiso   1.00
H17    H     0.51460   0.38430   0.24020   0.01267  Uiso   1.00
H18    H     0.65380   0.29880   0.06080   0.01267  Uiso   1.00
H19    H     0.71270   0.93000   0.09540   0.01267  Uiso   1.00
H20    H     0.56880   0.02620   0.27400   0.01267  Uiso   1.00
C1     C     0.05490   0.91890   0.21080   0.01267  Uiso   1.00
C2     C     0.13920   0.86172   0.10304   0.01267  Uiso   1.00
C3     C     0.20240   0.95345   0.05730   0.01267  Uiso   1.00
C4     C     0.17400   0.09999   0.12298   0.01267  Uiso   1.00
C5     C     0.08700   0.14874   0.23068   0.01267  Uiso   1.00
C6     C     0.44510   0.70810   0.78920   0.01267  Uiso   1.00
C7     C     0.36080   0.75868   0.89696   0.01267  Uiso   1.00
C8     C     0.29760   0.89615   0.94270   0.01267  Uiso   1.00
C9     C     0.32600   0.97701   0.87702   0.01267  Uiso   1.00
C10    C     0.41300   0.91806   0.76932   0.01267  Uiso   1.00
C11    C     0.94510   0.08110   0.78920   0.01267  Uiso   1.00
C12    C     0.86080   0.13828   0.89696   0.01267  Uiso   1.00
C13    C     0.79760   0.04655   0.94270   0.01267  Uiso   1.00
C14    C     0.82600   0.90001   0.87702   0.01267  Uiso   1.00
C15    C     0.91300   0.85126   0.76932   0.01267  Uiso   1.00
C16    C     0.55490   0.29190   0.21080   0.01267  Uiso   1.00
C17    C     0.63920   0.24132   0.10304   0.01267  Uiso   1.00
C18    C     0.70240   0.10385   0.05730   0.01267  Uiso   1.00
C19    C     0.67400   0.02299   0.12298   0.01267  Uiso   1.00
C20    C     0.58700   0.08194   0.23068   0.01267  Uiso   1.00
N1     N     0.02850   0.06088   0.27496   0.01267  Uiso   1.00
N2     N     0.47150   0.78592   0.72504   0.01267  Uiso   1.00
N3     N     0.97150   0.93912   0.72504   0.01267  Uiso   1.00
N4     N     0.52850   0.21408   0.27496   0.01267  Uiso   1.00
O1     O     0.84150   0.33044   0.45902   0.01267  Uiso   1.00
O2     O     0.09160   0.19983   0.56786   0.01267  Uiso   1.00
O3     O     0.71540   0.56253   0.52518   0.01267  Uiso   1.00
O4     O     0.80600   0.48871   0.69142   0.01267  Uiso   1.00
O5     O     0.65850   0.87142   0.54098   0.01267  Uiso   1.00
O6     O     0.40840   0.63197   0.43214   0.01267  Uiso   1.00
O7     O     0.78460   0.03735   0.47482   0.01267  Uiso   1.00
O8     O     0.69400   0.79729   0.30858   0.01267  Uiso   1.00
O9     O     0.15850   0.66956   0.54098   0.01267  Uiso   1.00
O10    O     0.90840   0.80017   0.43214   0.01267  Uiso   1.00
O11    O     0.28460   0.43747   0.47482   0.01267  Uiso   1.00
O12    O     0.19400   0.51129   0.30858   0.01267  Uiso   1.00
O13    O     0.34150   0.12858   0.45902   0.01267  Uiso   1.00
O14    O     0.59160   0.36803   0.56786   0.01267  Uiso   1.00
O15    O     0.21540   0.96265   0.52518   0.01267  Uiso   1.00
O16    O     0.30600   0.20271   0.69142   0.01267  Uiso   1.00
