data_image0
_cell_length_a       11.4325
_cell_length_b       23.171
_cell_length_c       9.7852
_cell_angle_alpha    90
_cell_angle_beta     102.152
_cell_angle_gamma    90

_symmetry_space_group_name_H-M    "P 1"
_symmetry_int_tables_number       1

loop_
  _symmetry_equiv_pos_as_xyz
  'x, y, z'

loop_
  _atom_site_label
  _atom_site_occupancy
  _atom_site_fract_x
  _atom_site_fract_y
  _atom_site_fract_z
  _atom_site_thermal_displace_type
  _atom_site_B_iso_or_equiv
  _atom_site_type_symbol
  O1       1.0000 0.19600  0.14586  0.71940  Biso   1.000  O
  O2       1.0000 0.27700  0.23369  0.73250  Biso   1.000  O
  O3       1.0000 0.65600  0.20888  0.35720  Biso   1.000  O
  H1       1.0000 0.69450  0.23580  0.33460  Biso   1.000  H
  O4       1.0000 0.54180  0.27916  0.41110  Biso   1.000  O
  C1       1.0000 0.42750  0.20202  0.55980  Biso   1.000  C
  H2       1.0000 0.41300  0.24120  0.56930  Biso   1.000  H
  C2       1.0000 0.38630  0.10342  0.60610  Biso   1.000  C
  H3       1.0000 0.34370  0.07640  0.64610  Biso   1.000  H
  C3       1.0000 0.51180  0.18437  0.48520  Biso   1.000  C
  C4       1.0000 0.36470  0.16169  0.62000  Biso   1.000  C
  C5       1.0000 0.27140  0.18107  0.69690  Biso   1.000  C
  C6       1.0000 0.53460  0.12615  0.47230  Biso   1.000  C
  H4       1.0000 0.59200  0.11440  0.42350  Biso   1.000  H
  C7       1.0000 0.49220  0.02460  0.51140  Biso   1.000  C
  C8       1.0000 0.47160  0.08494  0.53240  Biso   1.000  C
  C9       1.0000 0.57360  0.22859  0.41390  Biso   1.000  C
  O5       1.0000 0.69600  0.64586  0.71940  Biso   1.000  O
  O6       1.0000 0.77700  0.73369  0.73250  Biso   1.000  O
  O7       1.0000 0.15600  0.70888  0.35720  Biso   1.000  O
  H5       1.0000 0.19450  0.73580  0.33460  Biso   1.000  H
  O8       1.0000 0.04180  0.77916  0.41110  Biso   1.000  O
  C10      1.0000 0.92750  0.70202  0.55980  Biso   1.000  C
  H6       1.0000 0.91300  0.74120  0.56930  Biso   1.000  H
  C11      1.0000 0.88630  0.60342  0.60610  Biso   1.000  C
  H7       1.0000 0.84370  0.57640  0.64610  Biso   1.000  H
  C12      1.0000 0.01180  0.68437  0.48520  Biso   1.000  C
  C13      1.0000 0.86470  0.66169  0.62000  Biso   1.000  C
  C14      1.0000 0.77140  0.68107  0.69690  Biso   1.000  C
  C15      1.0000 0.03460  0.62615  0.47230  Biso   1.000  C
  H8       1.0000 0.09200  0.61440  0.42350  Biso   1.000  H
  C16      1.0000 0.99220  0.52460  0.51140  Biso   1.000  C
  C17      1.0000 0.97160  0.58494  0.53240  Biso   1.000  C
  C18      1.0000 0.07360  0.72859  0.41390  Biso   1.000  C
  O9       1.0000 0.80400  0.14586  0.78060  Biso   1.000  O
  O10      1.0000 0.72300  0.23369  0.76750  Biso   1.000  O
  O11      1.0000 0.34400  0.20888  0.14280  Biso   1.000  O
  H9       1.0000 0.30550  0.23580  0.16540  Biso   1.000  H
  O12      1.0000 0.45820  0.27916  0.08890  Biso   1.000  O
  C19      1.0000 0.57250  0.20202  0.94020  Biso   1.000  C
  H10      1.0000 0.58700  0.24120  0.93070  Biso   1.000  H
  C20      1.0000 0.61370  0.10342  0.89390  Biso   1.000  C
  H11      1.0000 0.65630  0.07640  0.85390  Biso   1.000  H
  C21      1.0000 0.48820  0.18437  0.01480  Biso   1.000  C
  C22      1.0000 0.63530  0.16169  0.88000  Biso   1.000  C
  C23      1.0000 0.72860  0.18107  0.80310  Biso   1.000  C
  C24      1.0000 0.46540  0.12615  0.02770  Biso   1.000  C
  H12      1.0000 0.40800  0.11440  0.07650  Biso   1.000  H
  C25      1.0000 0.50780  0.02460  0.98860  Biso   1.000  C
  C26      1.0000 0.52840  0.08494  0.96760  Biso   1.000  C
  C27      1.0000 0.42640  0.22859  0.08610  Biso   1.000  C
  O13      1.0000 0.30400  0.64586  0.78060  Biso   1.000  O
  O14      1.0000 0.22300  0.73369  0.76750  Biso   1.000  O
  O15      1.0000 0.84400  0.70888  0.14280  Biso   1.000  O
  H13      1.0000 0.80550  0.73580  0.16540  Biso   1.000  H
  O16      1.0000 0.95820  0.77916  0.08890  Biso   1.000  O
  C28      1.0000 0.07250  0.70202  0.94020  Biso   1.000  C
  H14      1.0000 0.08700  0.74120  0.93070  Biso   1.000  H
  C29      1.0000 0.11370  0.60342  0.89390  Biso   1.000  C
  H15      1.0000 0.15630  0.57640  0.85390  Biso   1.000  H
  C30      1.0000 0.98820  0.68437  0.01480  Biso   1.000  C
  C31      1.0000 0.13530  0.66169  0.88000  Biso   1.000  C
  C32      1.0000 0.22860  0.68107  0.80310  Biso   1.000  C
  C33      1.0000 0.96540  0.62615  0.02770  Biso   1.000  C
  H16      1.0000 0.90800  0.61440  0.07650  Biso   1.000  H
  C34      1.0000 0.00780  0.52460  0.98860  Biso   1.000  C
  C35      1.0000 0.02840  0.58494  0.96760  Biso   1.000  C
  C36      1.0000 0.92640  0.72859  0.08610  Biso   1.000  C
  O17      1.0000 0.80400  0.85414  0.28060  Biso   1.000  O
  O18      1.0000 0.72300  0.76631  0.26750  Biso   1.000  O
  O19      1.0000 0.34400  0.79112  0.64280  Biso   1.000  O
  H17      1.0000 0.30550  0.76420  0.66540  Biso   1.000  H
  O20      1.0000 0.45820  0.72084  0.58890  Biso   1.000  O
  C37      1.0000 0.57250  0.79798  0.44020  Biso   1.000  C
  H18      1.0000 0.58700  0.75880  0.43070  Biso   1.000  H
  C38      1.0000 0.61370  0.89658  0.39390  Biso   1.000  C
  H19      1.0000 0.65630  0.92360  0.35390  Biso   1.000  H
  C39      1.0000 0.48820  0.81563  0.51480  Biso   1.000  C
  C40      1.0000 0.63530  0.83831  0.38000  Biso   1.000  C
  C41      1.0000 0.72860  0.81893  0.30310  Biso   1.000  C
  C42      1.0000 0.46540  0.87385  0.52770  Biso   1.000  C
  H20      1.0000 0.40800  0.88560  0.57650  Biso   1.000  H
  C43      1.0000 0.50780  0.97540  0.48860  Biso   1.000  C
  C44      1.0000 0.52840  0.91506  0.46760  Biso   1.000  C
  C45      1.0000 0.42640  0.77141  0.58610  Biso   1.000  C
  O21      1.0000 0.30400  0.35414  0.28060  Biso   1.000  O
  O22      1.0000 0.22300  0.26631  0.26750  Biso   1.000  O
  O23      1.0000 0.84400  0.29112  0.64280  Biso   1.000  O
  H21      1.0000 0.80550  0.26420  0.66540  Biso   1.000  H
  O24      1.0000 0.95820  0.22084  0.58890  Biso   1.000  O
  C46      1.0000 0.07250  0.29798  0.44020  Biso   1.000  C
  H22      1.0000 0.08700  0.25880  0.43070  Biso   1.000  H
  C47      1.0000 0.11370  0.39658  0.39390  Biso   1.000  C
  H23      1.0000 0.15630  0.42360  0.35390  Biso   1.000  H
  C48      1.0000 0.98820  0.31563  0.51480  Biso   1.000  C
  C49      1.0000 0.13530  0.33831  0.38000  Biso   1.000  C
  C50      1.0000 0.22860  0.31893  0.30310  Biso   1.000  C
  C51      1.0000 0.96540  0.37385  0.52770  Biso   1.000  C
  H24      1.0000 0.90800  0.38560  0.57650  Biso   1.000  H
  C52      1.0000 0.00780  0.47540  0.48860  Biso   1.000  C
  C53      1.0000 0.02840  0.41506  0.46760  Biso   1.000  C
  C54      1.0000 0.92640  0.27141  0.58610  Biso   1.000  C
  O25      1.0000 0.19600  0.85414  0.21940  Biso   1.000  O
  O26      1.0000 0.27700  0.76631  0.23250  Biso   1.000  O
  O27      1.0000 0.65600  0.79112  0.85720  Biso   1.000  O
  H25      1.0000 0.69450  0.76420  0.83460  Biso   1.000  H
  O28      1.0000 0.54180  0.72084  0.91110  Biso   1.000  O
  C55      1.0000 0.42750  0.79798  0.05980  Biso   1.000  C
  H26      1.0000 0.41300  0.75880  0.06930  Biso   1.000  H
  C56      1.0000 0.38630  0.89658  0.10610  Biso   1.000  C
  H27      1.0000 0.34370  0.92360  0.14610  Biso   1.000  H
  C57      1.0000 0.51180  0.81563  0.98520  Biso   1.000  C
  C58      1.0000 0.36470  0.83831  0.12000  Biso   1.000  C
  C59      1.0000 0.27140  0.81893  0.19690  Biso   1.000  C
  C60      1.0000 0.53460  0.87385  0.97230  Biso   1.000  C
  H28      1.0000 0.59200  0.88560  0.92350  Biso   1.000  H
  C61      1.0000 0.49220  0.97540  0.01140  Biso   1.000  C
  C62      1.0000 0.47160  0.91506  0.03240  Biso   1.000  C
  C63      1.0000 0.57360  0.77141  0.91390  Biso   1.000  C
  O29      1.0000 0.69600  0.35414  0.21940  Biso   1.000  O
  O30      1.0000 0.77700  0.26631  0.23250  Biso   1.000  O
  O31      1.0000 0.15600  0.29112  0.85720  Biso   1.000  O
  H29      1.0000 0.19450  0.26420  0.83460  Biso   1.000  H
  O32      1.0000 0.04180  0.22084  0.91110  Biso   1.000  O
  C64      1.0000 0.92750  0.29798  0.05980  Biso   1.000  C
  H30      1.0000 0.91300  0.25880  0.06930  Biso   1.000  H
  C65      1.0000 0.88630  0.39658  0.10610  Biso   1.000  C
  H31      1.0000 0.84370  0.42360  0.14610  Biso   1.000  H
  C66      1.0000 0.01180  0.31563  0.98520  Biso   1.000  C
  C67      1.0000 0.86470  0.33831  0.12000  Biso   1.000  C
  C68      1.0000 0.77140  0.31893  0.19690  Biso   1.000  C
  C69      1.0000 0.03460  0.37385  0.97230  Biso   1.000  C
  H32      1.0000 0.09200  0.38560  0.92350  Biso   1.000  H
  C70      1.0000 0.99220  0.47540  0.01140  Biso   1.000  C
  C71      1.0000 0.97160  0.41506  0.03240  Biso   1.000  C
  C72      1.0000 0.07360  0.27141  0.91390  Biso   1.000  C
  Ca1      1.0000 0.00000  0.14614  0.75000  Biso   1.000  Ca
  Ca2      1.0000 0.50000  0.64614  0.75000  Biso   1.000  Ca
  Ca3      1.0000 0.00000  0.85386  0.25000  Biso   1.000  Ca
  Ca4      1.0000 0.50000  0.35386  0.25000  Biso   1.000  Ca
