data_ECEZAO01_clean
_audit_creation_date              2014-07-02
_audit_creation_method            'Materials Studio'
_symmetry_space_group_name_H-M    'P1'
_symmetry_Int_Tables_number       1
_symmetry_cell_setting            triclinic
loop_
_symmetry_equiv_pos_as_xyz
  x,y,z
_cell_length_a                    6.3722
_cell_length_b                    9.9992
_cell_length_c                    11.2234
_cell_angle_alpha                 116.4530
_cell_angle_beta                  96.3409
_cell_angle_gamma                 90.0000
loop_
_atom_site_label
_atom_site_type_symbol
_atom_site_fract_x
_atom_site_fract_y
_atom_site_fract_z
_atom_site_U_iso_or_equiv
_atom_site_adp_type
_atom_site_occupancy
Ni1    Ni    0.50000   0.84882   0.00000   0.01267  Uiso   1.00
Ni2    Ni    0.50000   0.15118   0.00000   0.01267  Uiso   1.00
Ni3    Ni    0.00000   0.00000   0.00000   0.01267  Uiso   1.00
H1     H     0.07660   0.52030   0.65860   0.01267  Uiso   1.00
H2     H     0.78780   0.55650   0.65800   0.01267  Uiso   1.00
H3     H     0.79670   0.67040   0.59860   0.01267  Uiso   1.00
H4     H     0.28640   0.62570   0.53240   0.01267  Uiso   1.00
H5     H     0.33540   0.50600   0.58380   0.01267  Uiso   1.00
H6     H     0.92340   0.86170   0.34140   0.01267  Uiso   1.00
H7     H     0.21220   0.89850   0.34200   0.01267  Uiso   1.00
H8     H     0.20330   0.07180   0.40140   0.01267  Uiso   1.00
H9     H     0.71360   0.09330   0.46760   0.01267  Uiso   1.00
H10    H     0.66460   0.92220   0.41620   0.01267  Uiso   1.00
H11    H     0.92340   0.47970   0.34140   0.01267  Uiso   1.00
H12    H     0.21220   0.44350   0.34200   0.01267  Uiso   1.00
H13    H     0.20330   0.32960   0.40140   0.01267  Uiso   1.00
H14    H     0.71360   0.37430   0.46760   0.01267  Uiso   1.00
H15    H     0.66460   0.49400   0.41620   0.01267  Uiso   1.00
H16    H     0.07660   0.13830   0.65860   0.01267  Uiso   1.00
H17    H     0.78780   0.10150   0.65800   0.01267  Uiso   1.00
H18    H     0.79670   0.92820   0.59860   0.01267  Uiso   1.00
H19    H     0.28640   0.90670   0.53240   0.01267  Uiso   1.00
H20    H     0.33540   0.07780   0.58380   0.01267  Uiso   1.00
C1     C     0.07030   0.60417   0.63574   0.01267  Uiso   1.00
C2     C     0.85190   0.57784   0.59348   0.01267  Uiso   1.00
C3     C     0.22380   0.54401   0.54322   0.01267  Uiso   1.00
C4     C     0.14970   0.71622   0.77724   0.01267  Uiso   1.00
C5     C     0.92970   0.96843   0.36426   0.01267  Uiso   1.00
C6     C     0.14810   0.98436   0.40652   0.01267  Uiso   1.00
C7     C     0.77620   0.00079   0.45678   0.01267  Uiso   1.00
C8     C     0.85030   0.93898   0.22276   0.01267  Uiso   1.00
C9     C     0.92970   0.39583   0.36426   0.01267  Uiso   1.00
C10    C     0.14810   0.42216   0.40652   0.01267  Uiso   1.00
C11    C     0.77620   0.45599   0.45678   0.01267  Uiso   1.00
C12    C     0.85030   0.28378   0.22276   0.01267  Uiso   1.00
C13    C     0.07030   0.03157   0.63574   0.01267  Uiso   1.00
C14    C     0.85190   0.01564   0.59348   0.01267  Uiso   1.00
C15    C     0.22380   0.99921   0.54322   0.01267  Uiso   1.00
C16    C     0.14970   0.06102   0.77724   0.01267  Uiso   1.00
O1     O     0.34510   0.73959   0.80978   0.01267  Uiso   1.00
O2     O     0.01120   0.77986   0.85492   0.01267  Uiso   1.00
O3     O     0.65490   0.92981   0.19022   0.01267  Uiso   1.00
O4     O     0.98880   0.92494   0.14508   0.01267  Uiso   1.00
O5     O     0.65490   0.26041   0.19022   0.01267  Uiso   1.00
O6     O     0.98880   0.22014   0.14508   0.01267  Uiso   1.00
O7     O     0.34510   0.07019   0.80978   0.01267  Uiso   1.00
O8     O     0.01120   0.07506   0.85492   0.01267  Uiso   1.00
O9     O     0.68300   0.97101   0.94202   0.01267  Uiso   1.00
O10    O     0.31700   0.02899   0.05798   0.01267  Uiso   1.00
