data_ECIWUJ_clean
_audit_creation_date              2014-07-02
_audit_creation_method            'Materials Studio'
_symmetry_space_group_name_H-M    'P1'
_symmetry_Int_Tables_number       1
_symmetry_cell_setting            triclinic
loop_
_symmetry_equiv_pos_as_xyz
  x,y,z
_cell_length_a                    7.7911
_cell_length_b                    9.2984
_cell_length_c                    10.6284
_cell_angle_alpha                 65.3200
_cell_angle_beta                  86.1990
_cell_angle_gamma                 78.1450
loop_
_atom_site_label
_atom_site_type_symbol
_atom_site_fract_x
_atom_site_fract_y
_atom_site_fract_z
_atom_site_U_iso_or_equiv
_atom_site_adp_type
_atom_site_occupancy
Zn1    Zn    0.36488   0.43675   0.45589   0.01267  Uiso   1.00
Zn2    Zn    0.63512   0.56325   0.54411   0.01267  Uiso   1.00
H1     H     0.07020   0.18850   0.57220   0.01267  Uiso   1.00
H2     H     0.71820   0.03770   0.41140   0.01267  Uiso   1.00
H3     H     0.35480   0.24350   0.28840   0.01267  Uiso   1.00
H4     H     0.20480   0.26920   0.09890   0.01267  Uiso   1.00
H5     H     0.29900   0.00400   0.84200   0.01267  Uiso   1.00
H6     H     0.01600   0.59200   0.32200   0.01267  Uiso   1.00
H7     H     0.65300   0.20700   0.92800   0.01267  Uiso   1.00
H8     H     0.87700   0.62100   0.12500   0.01267  Uiso   1.00
H9     H     0.92980   0.81150   0.42780   0.01267  Uiso   1.00
H10    H     0.28180   0.96230   0.58860   0.01267  Uiso   1.00
H11    H     0.64520   0.75650   0.71160   0.01267  Uiso   1.00
H12    H     0.79520   0.73080   0.90110   0.01267  Uiso   1.00
H13    H     0.70100   0.99600   0.15800   0.01267  Uiso   1.00
H14    H     0.98400   0.40800   0.67800   0.01267  Uiso   1.00
H15    H     0.34700   0.79300   0.07200   0.01267  Uiso   1.00
H16    H     0.12300   0.37900   0.87500   0.01267  Uiso   1.00
C1     C     0.43830   0.26720   0.72910   0.01267  Uiso   1.00
C2     C     0.46760   0.12920   0.87040   0.01267  Uiso   1.00
C3     C     0.37580   0.00500   0.90990   0.01267  Uiso   1.00
C4     C     0.59170   0.12370   0.96130   0.01267  Uiso   1.00
C5     C     0.73980   0.27970   0.47940   0.01267  Uiso   1.00
C6     C     0.04230   0.11240   0.54280   0.01267  Uiso   1.00
C7     C     0.83250   0.02230   0.44690   0.01267  Uiso   1.00
C8     C     0.26030   0.33230   0.24900   0.01267  Uiso   1.00
C9     C     0.17500   0.35030   0.13320   0.01267  Uiso   1.00
C10    C     0.04500   0.48510   0.06490   0.01267  Uiso   1.00
C11    C     0.97410   0.55940   0.14780   0.01267  Uiso   1.00
C12    C     0.06220   0.53140   0.26630   0.01267  Uiso   1.00
C13    C     0.87480   0.13560   0.48880   0.01267  Uiso   1.00
C14    C     0.56170   0.73280   0.27090   0.01267  Uiso   1.00
C15    C     0.53240   0.87080   0.12960   0.01267  Uiso   1.00
C16    C     0.62420   0.99500   0.09010   0.01267  Uiso   1.00
C17    C     0.40830   0.87630   0.03870   0.01267  Uiso   1.00
C18    C     0.26020   0.72030   0.52060   0.01267  Uiso   1.00
C19    C     0.95770   0.88760   0.45720   0.01267  Uiso   1.00
C20    C     0.16750   0.97770   0.55310   0.01267  Uiso   1.00
C21    C     0.73970   0.66770   0.75100   0.01267  Uiso   1.00
C22    C     0.82500   0.64970   0.86680   0.01267  Uiso   1.00
C23    C     0.95500   0.51490   0.93510   0.01267  Uiso   1.00
C24    C     0.02590   0.44060   0.85220   0.01267  Uiso   1.00
C25    C     0.93780   0.46860   0.73370   0.01267  Uiso   1.00
C26    C     0.12520   0.86440   0.51120   0.01267  Uiso   1.00
N1     N     0.21550   0.43420   0.30710   0.01267  Uiso   1.00
N2     N     0.78450   0.56580   0.69290   0.01267  Uiso   1.00
O1     O     0.32760   0.26690   0.64870   0.01267  Uiso   1.00
O2     O     0.52830   0.37340   0.70080   0.01267  Uiso   1.00
O3     O     0.58420   0.28420   0.44600   0.01267  Uiso   1.00
O4     O     0.78970   0.38380   0.50900   0.01267  Uiso   1.00
O5     O     0.67240   0.73310   0.35130   0.01267  Uiso   1.00
O6     O     0.47170   0.62660   0.29920   0.01267  Uiso   1.00
O7     O     0.41580   0.71580   0.55400   0.01267  Uiso   1.00
O8     O     0.21030   0.61620   0.49100   0.01267  Uiso   1.00
