data_ECIWOC_clean
_audit_creation_date              2014-07-02
_audit_creation_method            'Materials Studio'
_symmetry_space_group_name_H-M    'P1'
_symmetry_Int_Tables_number       1
_symmetry_cell_setting            triclinic
loop_
_symmetry_equiv_pos_as_xyz
  x,y,z
_cell_length_a                    6.7802
_cell_length_b                    22.0278
_cell_length_c                    24.3992
_cell_angle_alpha                 105.0960
_cell_angle_beta                  90.0000
_cell_angle_gamma                 90.0000
loop_
_atom_site_label
_atom_site_type_symbol
_atom_site_fract_x
_atom_site_fract_y
_atom_site_fract_z
_atom_site_U_iso_or_equiv
_atom_site_adp_type
_atom_site_occupancy
Zn1    Zn    0.52972   0.76124   0.56330   0.01267  Uiso   1.00
Zn2    Zn    0.52504   0.73508   0.41829   0.01267  Uiso   1.00
Zn3    Zn    0.02972   0.23876   0.93670   0.01267  Uiso   1.00
Zn4    Zn    0.02504   0.26492   0.08171   0.01267  Uiso   1.00
Zn5    Zn    0.47028   0.23876   0.43670   0.01267  Uiso   1.00
Zn6    Zn    0.47496   0.26492   0.58171   0.01267  Uiso   1.00
Zn7    Zn    0.97028   0.76124   0.06330   0.01267  Uiso   1.00
Zn8    Zn    0.97496   0.73508   0.91829   0.01267  Uiso   1.00
H1     H     0.30910   0.59690   0.60750   0.01267  Uiso   1.00
H2     H     0.84590   0.63300   0.51620   0.01267  Uiso   1.00
H3     H     0.08490   0.90480   0.60100   0.01267  Uiso   1.00
H4     H     0.53670   0.99940   0.55710   0.01267  Uiso   1.00
H5     H     0.59150   0.80820   0.80390   0.01267  Uiso   1.00
H6     H     0.61490   0.69120   0.65260   0.01267  Uiso   1.00
H7     H     0.86870   0.67780   0.71020   0.01267  Uiso   1.00
H8     H     0.32970   0.82350   0.74830   0.01267  Uiso   1.00
H9     H     0.17370   0.63920   0.72060   0.01267  Uiso   1.00
H10    H     0.91310   0.82340   0.60650   0.01267  Uiso   1.00
H11    H     0.43970   0.62470   0.77530   0.01267  Uiso   1.00
H12    H     0.17260   0.81280   0.66240   0.01267  Uiso   1.00
H13    H     0.08010   0.13270   0.51870   0.01267  Uiso   1.00
H14    H     0.75260   0.08280   0.63900   0.01267  Uiso   1.00
H15    H     0.54510   0.16650   0.63950   0.01267  Uiso   1.00
H16    H     0.87690   0.98870   0.60420   0.01267  Uiso   1.00
H17    H     0.85860   0.21190   0.52080   0.01267  Uiso   1.00
H18    H     0.32580   0.08140   0.55410   0.01267  Uiso   1.00
H19    H     0.03420   0.41790   0.60660   0.01267  Uiso   1.00
H20    H     0.87880   0.32590   0.60810   0.01267  Uiso   1.00
H21    H     0.67970   0.54810   0.53250   0.01267  Uiso   1.00
H22    H     0.14060   0.51240   0.62430   0.01267  Uiso   1.00
H23    H     0.37130   0.38880   0.56990   0.01267  Uiso   1.00
H24    H     0.51190   0.48490   0.56840   0.01267  Uiso   1.00
H25    H     0.54000   0.78100   0.49500   0.01267  Uiso   1.00
H26    H     0.80910   0.40310   0.89250   0.01267  Uiso   1.00
H27    H     0.34590   0.36700   0.98380   0.01267  Uiso   1.00
H28    H     0.58490   0.09520   0.89900   0.01267  Uiso   1.00
H29    H     0.03670   0.00060   0.94290   0.01267  Uiso   1.00
H30    H     0.09150   0.19180   0.69610   0.01267  Uiso   1.00
H31    H     0.11490   0.30880   0.84740   0.01267  Uiso   1.00
H32    H     0.36870   0.32220   0.78980   0.01267  Uiso   1.00
H33    H     0.82970   0.17650   0.75170   0.01267  Uiso   1.00
H34    H     0.67370   0.36080   0.77940   0.01267  Uiso   1.00
H35    H     0.41310   0.17660   0.89350   0.01267  Uiso   1.00
H36    H     0.93970   0.37530   0.72470   0.01267  Uiso   1.00
H37    H     0.67260   0.18720   0.83760   0.01267  Uiso   1.00
H38    H     0.58010   0.86730   0.98130   0.01267  Uiso   1.00
H39    H     0.25260   0.91720   0.86100   0.01267  Uiso   1.00
H40    H     0.04510   0.83350   0.86050   0.01267  Uiso   1.00
H41    H     0.37690   0.01130   0.89580   0.01267  Uiso   1.00
H42    H     0.35860   0.78810   0.97920   0.01267  Uiso   1.00
H43    H     0.82580   0.91860   0.94590   0.01267  Uiso   1.00
H44    H     0.53420   0.58210   0.89340   0.01267  Uiso   1.00
H45    H     0.37880   0.67410   0.89190   0.01267  Uiso   1.00
H46    H     0.17970   0.45190   0.96750   0.01267  Uiso   1.00
H47    H     0.64060   0.48760   0.87570   0.01267  Uiso   1.00
H48    H     0.87130   0.61120   0.93010   0.01267  Uiso   1.00
H49    H     0.01190   0.51510   0.93160   0.01267  Uiso   1.00
H50    H     0.04000   0.21900   0.00500   0.01267  Uiso   1.00
H51    H     0.69090   0.40310   0.39250   0.01267  Uiso   1.00
H52    H     0.15410   0.36700   0.48380   0.01267  Uiso   1.00
H53    H     0.91510   0.09520   0.39900   0.01267  Uiso   1.00
H54    H     0.46330   0.00060   0.44290   0.01267  Uiso   1.00
H55    H     0.40850   0.19180   0.19610   0.01267  Uiso   1.00
H56    H     0.38510   0.30880   0.34740   0.01267  Uiso   1.00
H57    H     0.13130   0.32220   0.28980   0.01267  Uiso   1.00
H58    H     0.67030   0.17650   0.25170   0.01267  Uiso   1.00
H59    H     0.82630   0.36080   0.27940   0.01267  Uiso   1.00
H60    H     0.08690   0.17660   0.39350   0.01267  Uiso   1.00
H61    H     0.56030   0.37530   0.22470   0.01267  Uiso   1.00
H62    H     0.82740   0.18720   0.33760   0.01267  Uiso   1.00
H63    H     0.91990   0.86730   0.48130   0.01267  Uiso   1.00
H64    H     0.24740   0.91720   0.36100   0.01267  Uiso   1.00
H65    H     0.45490   0.83350   0.36050   0.01267  Uiso   1.00
H66    H     0.12310   0.01130   0.39580   0.01267  Uiso   1.00
H67    H     0.14140   0.78810   0.47920   0.01267  Uiso   1.00
H68    H     0.67420   0.91860   0.44590   0.01267  Uiso   1.00
H69    H     0.96580   0.58210   0.39340   0.01267  Uiso   1.00
H70    H     0.12120   0.67410   0.39190   0.01267  Uiso   1.00
H71    H     0.32030   0.45190   0.46750   0.01267  Uiso   1.00
H72    H     0.85940   0.48760   0.37570   0.01267  Uiso   1.00
H73    H     0.62870   0.61120   0.43010   0.01267  Uiso   1.00
H74    H     0.48810   0.51510   0.43160   0.01267  Uiso   1.00
H75    H     0.46000   0.21900   0.50500   0.01267  Uiso   1.00
H76    H     0.19090   0.59690   0.10750   0.01267  Uiso   1.00
H77    H     0.65410   0.63300   0.01620   0.01267  Uiso   1.00
H78    H     0.41510   0.90480   0.10100   0.01267  Uiso   1.00
H79    H     0.96330   0.99940   0.05710   0.01267  Uiso   1.00
H80    H     0.90850   0.80820   0.30390   0.01267  Uiso   1.00
H81    H     0.88510   0.69120   0.15260   0.01267  Uiso   1.00
H82    H     0.63130   0.67780   0.21020   0.01267  Uiso   1.00
H83    H     0.17030   0.82350   0.24830   0.01267  Uiso   1.00
H84    H     0.32630   0.63920   0.22060   0.01267  Uiso   1.00
H85    H     0.58690   0.82340   0.10650   0.01267  Uiso   1.00
H86    H     0.06030   0.62470   0.27530   0.01267  Uiso   1.00
H87    H     0.32740   0.81280   0.16240   0.01267  Uiso   1.00
H88    H     0.41990   0.13270   0.01870   0.01267  Uiso   1.00
H89    H     0.74740   0.08280   0.13900   0.01267  Uiso   1.00
H90    H     0.95490   0.16650   0.13950   0.01267  Uiso   1.00
H91    H     0.62310   0.98870   0.10420   0.01267  Uiso   1.00
H92    H     0.64140   0.21190   0.02080   0.01267  Uiso   1.00
H93    H     0.17420   0.08140   0.05410   0.01267  Uiso   1.00
H94    H     0.46580   0.41790   0.10660   0.01267  Uiso   1.00
H95    H     0.62120   0.32590   0.10810   0.01267  Uiso   1.00
H96    H     0.82030   0.54810   0.03250   0.01267  Uiso   1.00
H97    H     0.35940   0.51240   0.12430   0.01267  Uiso   1.00
H98    H     0.12870   0.38880   0.06990   0.01267  Uiso   1.00
H99    H     0.98810   0.48490   0.06840   0.01267  Uiso   1.00
H100   H     0.96000   0.78100   0.99500   0.01267  Uiso   1.00
C1     C     0.46630   0.88790   0.57510   0.01267  Uiso   1.00
C2     C     0.09630   0.62340   0.55990   0.01267  Uiso   1.00
C3     C     0.20340   0.67860   0.54830   0.01267  Uiso   1.00
C4     C     0.18090   0.58700   0.59210   0.01267  Uiso   1.00
C5     C     0.90680   0.60810   0.53800   0.01267  Uiso   1.00
C6     C     0.33230   0.94310   0.57810   0.01267  Uiso   1.00
C7     C     0.70080   0.70540   0.83460   0.01267  Uiso   1.00
C8     C     0.13550   0.94130   0.59200   0.01267  Uiso   1.00
C9     C     0.40080   0.99630   0.56550   0.01267  Uiso   1.00
C10    C     0.53870   0.71520   0.79600   0.01267  Uiso   1.00
C11    C     0.50650   0.77410   0.78710   0.01267  Uiso   1.00
C12    C     0.05220   0.74300   0.69250   0.01267  Uiso   1.00
C13    C     0.73070   0.71600   0.65430   0.01267  Uiso   1.00
C14    C     0.88120   0.70780   0.68870   0.01267  Uiso   1.00
C15    C     0.22180   0.73310   0.72770   0.01267  Uiso   1.00
C16    C     0.35120   0.78300   0.75390   0.01267  Uiso   1.00
C17    C     0.25780   0.67350   0.73710   0.01267  Uiso   1.00
C18    C     0.90520   0.79290   0.62760   0.01267  Uiso   1.00
C19    C     0.41480   0.66530   0.77000   0.01267  Uiso   1.00
C20    C     0.05930   0.78700   0.66080   0.01267  Uiso   1.00
C21    C     0.94360   0.09710   0.57880   0.01267  Uiso   1.00
C22    C     0.97020   0.13800   0.54360   0.01267  Uiso   1.00
C23    C     0.77910   0.10890   0.61450   0.01267  Uiso   1.00
C24    C     0.65410   0.15890   0.61420   0.01267  Uiso   1.00
C25    C     0.07880   0.04420   0.57860   0.01267  Uiso   1.00
C26    C     0.01060   0.99090   0.59330   0.01267  Uiso   1.00
C27    C     0.83770   0.18550   0.54540   0.01267  Uiso   1.00
C28    C     0.27530   0.04580   0.56460   0.01267  Uiso   1.00
C29    C     0.89700   0.41340   0.59870   0.01267  Uiso   1.00
C30    C     0.79250   0.46280   0.58580   0.01267  Uiso   1.00
C31    C     0.80310   0.35870   0.59990   0.01267  Uiso   1.00
C32    C     0.89290   0.51980   0.57940   0.01267  Uiso   1.00
C33    C     0.80840   0.55770   0.54770   0.01267  Uiso   1.00
C34    C     0.08050   0.53650   0.60170   0.01267  Uiso   1.00
C35    C     0.50800   0.39520   0.57780   0.01267  Uiso   1.00
C36    C     0.59210   0.45270   0.57620   0.01267  Uiso   1.00
C37    C     0.96630   0.11210   0.92490   0.01267  Uiso   1.00
C38    C     0.59630   0.37660   0.94010   0.01267  Uiso   1.00
C39    C     0.70340   0.32140   0.95170   0.01267  Uiso   1.00
C40    C     0.68090   0.41300   0.90790   0.01267  Uiso   1.00
C41    C     0.40680   0.39190   0.96200   0.01267  Uiso   1.00
C42    C     0.83230   0.05690   0.92190   0.01267  Uiso   1.00
C43    C     0.20080   0.29460   0.66540   0.01267  Uiso   1.00
C44    C     0.63550   0.05870   0.90800   0.01267  Uiso   1.00
C45    C     0.90080   0.00370   0.93450   0.01267  Uiso   1.00
C46    C     0.03870   0.28480   0.70400   0.01267  Uiso   1.00
C47    C     0.00650   0.22590   0.71290   0.01267  Uiso   1.00
C48    C     0.55220   0.25700   0.80750   0.01267  Uiso   1.00
C49    C     0.23070   0.28400   0.84570   0.01267  Uiso   1.00
C50    C     0.38120   0.29220   0.81130   0.01267  Uiso   1.00
C51    C     0.72180   0.26690   0.77230   0.01267  Uiso   1.00
C52    C     0.85120   0.21700   0.74610   0.01267  Uiso   1.00
C53    C     0.75780   0.32650   0.76290   0.01267  Uiso   1.00
C54    C     0.40520   0.20710   0.87240   0.01267  Uiso   1.00
C55    C     0.91480   0.33470   0.73000   0.01267  Uiso   1.00
C56    C     0.55930   0.21300   0.83920   0.01267  Uiso   1.00
C57    C     0.44360   0.90290   0.92120   0.01267  Uiso   1.00
C58    C     0.47020   0.86200   0.95640   0.01267  Uiso   1.00
C59    C     0.27910   0.89110   0.88550   0.01267  Uiso   1.00
C60    C     0.15410   0.84110   0.88580   0.01267  Uiso   1.00
C61    C     0.57880   0.95580   0.92140   0.01267  Uiso   1.00
C62    C     0.51060   0.00910   0.90670   0.01267  Uiso   1.00
C63    C     0.33770   0.81450   0.95460   0.01267  Uiso   1.00
C64    C     0.77530   0.95420   0.93540   0.01267  Uiso   1.00
C65    C     0.39700   0.58660   0.90130   0.01267  Uiso   1.00
C66    C     0.29250   0.53720   0.91420   0.01267  Uiso   1.00
C67    C     0.30310   0.64130   0.90010   0.01267  Uiso   1.00
C68    C     0.39290   0.48020   0.92060   0.01267  Uiso   1.00
C69    C     0.30840   0.44230   0.95230   0.01267  Uiso   1.00
C70    C     0.58050   0.46350   0.89830   0.01267  Uiso   1.00
C71    C     0.00800   0.60480   0.92220   0.01267  Uiso   1.00
C72    C     0.09210   0.54730   0.92380   0.01267  Uiso   1.00
C73    C     0.53370   0.11210   0.42490   0.01267  Uiso   1.00
C74    C     0.90370   0.37660   0.44010   0.01267  Uiso   1.00
C75    C     0.79660   0.32140   0.45170   0.01267  Uiso   1.00
C76    C     0.81910   0.41300   0.40790   0.01267  Uiso   1.00
C77    C     0.09320   0.39190   0.46200   0.01267  Uiso   1.00
C78    C     0.66770   0.05690   0.42190   0.01267  Uiso   1.00
C79    C     0.29920   0.29460   0.16540   0.01267  Uiso   1.00
C80    C     0.86450   0.05870   0.40800   0.01267  Uiso   1.00
C81    C     0.59920   0.00370   0.43450   0.01267  Uiso   1.00
C82    C     0.46130   0.28480   0.20400   0.01267  Uiso   1.00
C83    C     0.49350   0.22590   0.21290   0.01267  Uiso   1.00
C84    C     0.94780   0.25700   0.30750   0.01267  Uiso   1.00
C85    C     0.26930   0.28400   0.34570   0.01267  Uiso   1.00
C86    C     0.11880   0.29220   0.31130   0.01267  Uiso   1.00
C87    C     0.77820   0.26690   0.27230   0.01267  Uiso   1.00
C88    C     0.64880   0.21700   0.24610   0.01267  Uiso   1.00
C89    C     0.74220   0.32650   0.26290   0.01267  Uiso   1.00
C90    C     0.09480   0.20710   0.37240   0.01267  Uiso   1.00
C91    C     0.58520   0.33470   0.23000   0.01267  Uiso   1.00
C92    C     0.94070   0.21300   0.33920   0.01267  Uiso   1.00
C93    C     0.05640   0.90290   0.42120   0.01267  Uiso   1.00
C94    C     0.02980   0.86200   0.45640   0.01267  Uiso   1.00
C95    C     0.22090   0.89110   0.38550   0.01267  Uiso   1.00
C96    C     0.34590   0.84110   0.38580   0.01267  Uiso   1.00
C97    C     0.92120   0.95580   0.42140   0.01267  Uiso   1.00
C98    C     0.98940   0.00910   0.40670   0.01267  Uiso   1.00
C99    C     0.16230   0.81450   0.45460   0.01267  Uiso   1.00
C100   C     0.72470   0.95420   0.43540   0.01267  Uiso   1.00
C101   C     0.10300   0.58660   0.40130   0.01267  Uiso   1.00
C102   C     0.20750   0.53720   0.41420   0.01267  Uiso   1.00
C103   C     0.19690   0.64130   0.40010   0.01267  Uiso   1.00
C104   C     0.10710   0.48020   0.42060   0.01267  Uiso   1.00
C105   C     0.19160   0.44230   0.45230   0.01267  Uiso   1.00
C106   C     0.91950   0.46350   0.39830   0.01267  Uiso   1.00
C107   C     0.49200   0.60480   0.42220   0.01267  Uiso   1.00
C108   C     0.40790   0.54730   0.42380   0.01267  Uiso   1.00
C109   C     0.03370   0.88790   0.07510   0.01267  Uiso   1.00
C110   C     0.40370   0.62340   0.05990   0.01267  Uiso   1.00
C111   C     0.29660   0.67860   0.04830   0.01267  Uiso   1.00
C112   C     0.31910   0.58700   0.09210   0.01267  Uiso   1.00
C113   C     0.59320   0.60810   0.03800   0.01267  Uiso   1.00
C114   C     0.16770   0.94310   0.07810   0.01267  Uiso   1.00
C115   C     0.79920   0.70540   0.33460   0.01267  Uiso   1.00
C116   C     0.36450   0.94130   0.09200   0.01267  Uiso   1.00
C117   C     0.09920   0.99630   0.06550   0.01267  Uiso   1.00
C118   C     0.96130   0.71520   0.29600   0.01267  Uiso   1.00
C119   C     0.99350   0.77410   0.28710   0.01267  Uiso   1.00
C120   C     0.44780   0.74300   0.19250   0.01267  Uiso   1.00
C121   C     0.76930   0.71600   0.15430   0.01267  Uiso   1.00
C122   C     0.61880   0.70780   0.18870   0.01267  Uiso   1.00
C123   C     0.27820   0.73310   0.22770   0.01267  Uiso   1.00
C124   C     0.14880   0.78300   0.25390   0.01267  Uiso   1.00
C125   C     0.24220   0.67350   0.23710   0.01267  Uiso   1.00
C126   C     0.59480   0.79290   0.12760   0.01267  Uiso   1.00
C127   C     0.08520   0.66530   0.27000   0.01267  Uiso   1.00
C128   C     0.44070   0.78700   0.16080   0.01267  Uiso   1.00
C129   C     0.55640   0.09710   0.07880   0.01267  Uiso   1.00
C130   C     0.52980   0.13800   0.04360   0.01267  Uiso   1.00
C131   C     0.72090   0.10890   0.11450   0.01267  Uiso   1.00
C132   C     0.84590   0.15890   0.11420   0.01267  Uiso   1.00
C133   C     0.42120   0.04420   0.07860   0.01267  Uiso   1.00
C134   C     0.48940   0.99090   0.09330   0.01267  Uiso   1.00
C135   C     0.66230   0.18550   0.04540   0.01267  Uiso   1.00
C136   C     0.22470   0.04580   0.06460   0.01267  Uiso   1.00
C137   C     0.60300   0.41340   0.09870   0.01267  Uiso   1.00
C138   C     0.70750   0.46280   0.08580   0.01267  Uiso   1.00
C139   C     0.69690   0.35870   0.09990   0.01267  Uiso   1.00
C140   C     0.60710   0.51980   0.07940   0.01267  Uiso   1.00
C141   C     0.69160   0.55770   0.04770   0.01267  Uiso   1.00
C142   C     0.41950   0.53650   0.10170   0.01267  Uiso   1.00
C143   C     0.99200   0.39520   0.07780   0.01267  Uiso   1.00
C144   C     0.90790   0.45270   0.07620   0.01267  Uiso   1.00
N1     N     0.73990   0.75750   0.62292   0.01267  Uiso   1.00
N2     N     0.68060   0.19670   0.57978   0.01267  Uiso   1.00
N3     N     0.61080   0.34930   0.59002   0.01267  Uiso   1.00
N4     N     0.23990   0.24250   0.87708   0.01267  Uiso   1.00
N5     N     0.18060   0.80330   0.92022   0.01267  Uiso   1.00
N6     N     0.11080   0.65070   0.90998   0.01267  Uiso   1.00
N7     N     0.26010   0.24250   0.37708   0.01267  Uiso   1.00
N8     N     0.31940   0.80330   0.42022   0.01267  Uiso   1.00
N9     N     0.38920   0.65070   0.40998   0.01267  Uiso   1.00
N10    N     0.76010   0.75750   0.12292   0.01267  Uiso   1.00
N11    N     0.81940   0.19670   0.07978   0.01267  Uiso   1.00
N12    N     0.88920   0.34930   0.09002   0.01267  Uiso   1.00
O1     O     0.37340   0.68927   0.57129   0.01267  Uiso   1.00
O2     O     0.38100   0.83893   0.58191   0.01267  Uiso   1.00
O3     O     0.65850   0.74425   0.48963   0.01267  Uiso   1.00
O4     O     0.80090   0.75280   0.86038   0.01267  Uiso   1.00
O5     O     0.12330   0.71036   0.51939   0.01267  Uiso   1.00
O6     O     0.72800   0.65150   0.84090   0.01267  Uiso   1.00
O7     O     0.64380   0.89110   0.56540   0.01267  Uiso   1.00
O8     O     0.87340   0.31073   0.92871   0.01267  Uiso   1.00
O9     O     0.88100   0.16107   0.91809   0.01267  Uiso   1.00
O10    O     0.15850   0.25575   0.01037   0.01267  Uiso   1.00
O11    O     0.30090   0.24720   0.63962   0.01267  Uiso   1.00
O12    O     0.62330   0.28964   0.98061   0.01267  Uiso   1.00
O13    O     0.22800   0.34850   0.65910   0.01267  Uiso   1.00
O14    O     0.14380   0.10890   0.93460   0.01267  Uiso   1.00
O15    O     0.62660   0.31073   0.42871   0.01267  Uiso   1.00
O16    O     0.61900   0.16107   0.41809   0.01267  Uiso   1.00
O17    O     0.34150   0.25575   0.51037   0.01267  Uiso   1.00
O18    O     0.19910   0.24720   0.13962   0.01267  Uiso   1.00
O19    O     0.87670   0.28964   0.48061   0.01267  Uiso   1.00
O20    O     0.27200   0.34850   0.15910   0.01267  Uiso   1.00
O21    O     0.35620   0.10890   0.43460   0.01267  Uiso   1.00
O22    O     0.12660   0.68927   0.07129   0.01267  Uiso   1.00
O23    O     0.11900   0.83893   0.08191   0.01267  Uiso   1.00
O24    O     0.84150   0.74425   0.98963   0.01267  Uiso   1.00
O25    O     0.69910   0.75280   0.36038   0.01267  Uiso   1.00
O26    O     0.37670   0.71036   0.01939   0.01267  Uiso   1.00
O27    O     0.77200   0.65150   0.34090   0.01267  Uiso   1.00
O28    O     0.85620   0.89110   0.06540   0.01267  Uiso   1.00
