data_image0
_cell_length_a       8.6868
_cell_length_b       17.428
_cell_length_c       9.1589
_cell_angle_alpha    90
_cell_angle_beta     109.604
_cell_angle_gamma    90

_symmetry_space_group_name_H-M    "P 1"
_symmetry_int_tables_number       1

loop_
  _symmetry_equiv_pos_as_xyz
  'x, y, z'

loop_
  _atom_site_label
  _atom_site_occupancy
  _atom_site_fract_x
  _atom_site_fract_y
  _atom_site_fract_z
  _atom_site_thermal_displace_type
  _atom_site_B_iso_or_equiv
  _atom_site_type_symbol
  H1       1.0000 0.55000  0.78800  0.89800  Biso   1.000  H
  P1       1.0000 0.20373  0.78832  0.02722  Biso   1.000  P
  P2       1.0000 0.34018  0.07040  0.86820  Biso   1.000  P
  P3       1.0000 0.25208  0.83769  0.49490  Biso   1.000  P
  Al1      1.0000 0.49030  0.83114  0.31030  Biso   1.000  Al
  Al2      1.0000 0.36173  0.88868  0.83616  Biso   1.000  Al
  Al3      1.0000 0.43534  0.70402  0.70270  Biso   1.000  Al
  O1       1.0000 0.28060  0.98819  0.84000  Biso   1.000  O
  O2       1.0000 0.36470  0.77330  0.16210  Biso   1.000  O
  O3       1.0000 0.16430  0.71637  0.92550  Biso   1.000  O
  O4       1.0000 0.06710  0.80550  0.08930  Biso   1.000  O
  O5       1.0000 0.19010  0.12110  0.81950  Biso   1.000  O
  O6       1.0000 0.44680  0.08890  0.76800  Biso   1.000  O
  O7       1.0000 0.26670  0.89074  0.63020  Biso   1.000  O
  O8       1.0000 0.27330  0.75376  0.54470  Biso   1.000  O
  O9       1.0000 0.45800  0.79010  0.82120  Biso   1.000  O
  O10      1.0000 0.08510  0.84904  0.37220  Biso   1.000  O
  O11      1.0000 0.22590  0.85620  0.93190  Biso   1.000  O
  O12      1.0000 0.44060  0.08320  0.03760  Biso   1.000  O
  O13      1.0000 0.38270  0.86280  0.42680  Biso   1.000  O
  H2       1.0000 0.95000  0.28800  0.60200  Biso   1.000  H
  P4       1.0000 0.29627  0.28832  0.47278  Biso   1.000  P
  P5       1.0000 0.15982  0.57040  0.63180  Biso   1.000  P
  P6       1.0000 0.24792  0.33769  0.00510  Biso   1.000  P
  Al4      1.0000 0.00970  0.33114  0.18970  Biso   1.000  Al
  Al5      1.0000 0.13827  0.38868  0.66384  Biso   1.000  Al
  Al6      1.0000 0.06466  0.20402  0.79730  Biso   1.000  Al
  O14      1.0000 0.21940  0.48819  0.66000  Biso   1.000  O
  O15      1.0000 0.13530  0.27330  0.33790  Biso   1.000  O
  O16      1.0000 0.33570  0.21637  0.57450  Biso   1.000  O
  O17      1.0000 0.43290  0.30550  0.41070  Biso   1.000  O
  O18      1.0000 0.30990  0.62110  0.68050  Biso   1.000  O
  O19      1.0000 0.05320  0.58890  0.73200  Biso   1.000  O
  O20      1.0000 0.23330  0.39074  0.86980  Biso   1.000  O
  O21      1.0000 0.22670  0.25376  0.95530  Biso   1.000  O
  O22      1.0000 0.04200  0.29010  0.67880  Biso   1.000  O
  O23      1.0000 0.41490  0.34904  0.12780  Biso   1.000  O
  O24      1.0000 0.27410  0.35620  0.56810  Biso   1.000  O
  O25      1.0000 0.05940  0.58320  0.46240  Biso   1.000  O
  O26      1.0000 0.11730  0.36280  0.07320  Biso   1.000  O
  H3       1.0000 0.45000  0.21200  0.10200  Biso   1.000  H
  P7       1.0000 0.79627  0.21168  0.97278  Biso   1.000  P
  P8       1.0000 0.65982  0.92960  0.13180  Biso   1.000  P
  P9       1.0000 0.74792  0.16231  0.50510  Biso   1.000  P
  Al7      1.0000 0.50970  0.16886  0.68970  Biso   1.000  Al
  Al8      1.0000 0.63827  0.11132  0.16384  Biso   1.000  Al
  Al9      1.0000 0.56466  0.29598  0.29730  Biso   1.000  Al
  O27      1.0000 0.71940  0.01181  0.16000  Biso   1.000  O
  O28      1.0000 0.63530  0.22670  0.83790  Biso   1.000  O
  O29      1.0000 0.83570  0.28363  0.07450  Biso   1.000  O
  O30      1.0000 0.93290  0.19450  0.91070  Biso   1.000  O
  O31      1.0000 0.80990  0.87890  0.18050  Biso   1.000  O
  O32      1.0000 0.55320  0.91110  0.23200  Biso   1.000  O
  O33      1.0000 0.73330  0.10926  0.36980  Biso   1.000  O
  O34      1.0000 0.72670  0.24624  0.45530  Biso   1.000  O
  O35      1.0000 0.54200  0.20990  0.17880  Biso   1.000  O
  O36      1.0000 0.91490  0.15096  0.62780  Biso   1.000  O
  O37      1.0000 0.77410  0.14380  0.06810  Biso   1.000  O
  O38      1.0000 0.55940  0.91680  0.96240  Biso   1.000  O
  O39      1.0000 0.61730  0.13720  0.57320  Biso   1.000  O
  H4       1.0000 0.05000  0.71200  0.39800  Biso   1.000  H
  P10      1.0000 0.70373  0.71168  0.52722  Biso   1.000  P
  P11      1.0000 0.84018  0.42960  0.36820  Biso   1.000  P
  P12      1.0000 0.75208  0.66231  0.99490  Biso   1.000  P
  Al10     1.0000 0.99030  0.66886  0.81030  Biso   1.000  Al
  Al11     1.0000 0.86173  0.61132  0.33616  Biso   1.000  Al
  Al12     1.0000 0.93534  0.79598  0.20270  Biso   1.000  Al
  O40      1.0000 0.78060  0.51181  0.34000  Biso   1.000  O
  O41      1.0000 0.86470  0.72670  0.66210  Biso   1.000  O
  O42      1.0000 0.66430  0.78363  0.42550  Biso   1.000  O
  O43      1.0000 0.56710  0.69450  0.58930  Biso   1.000  O
  O44      1.0000 0.69010  0.37890  0.31950  Biso   1.000  O
  O45      1.0000 0.94680  0.41110  0.26800  Biso   1.000  O
  O46      1.0000 0.76670  0.60926  0.13020  Biso   1.000  O
  O47      1.0000 0.77330  0.74624  0.04470  Biso   1.000  O
  O48      1.0000 0.95800  0.70990  0.32120  Biso   1.000  O
  O49      1.0000 0.58510  0.65096  0.87220  Biso   1.000  O
  O50      1.0000 0.72590  0.64380  0.43190  Biso   1.000  O
  O51      1.0000 0.94060  0.41680  0.53760  Biso   1.000  O
  O52      1.0000 0.88270  0.63720  0.92680  Biso   1.000  O
