data_image0
_cell_length_a       13.5792
_cell_length_b       10.3511
_cell_length_c       17.4655
_cell_angle_alpha    90
_cell_angle_beta     90
_cell_angle_gamma    90

_symmetry_space_group_name_H-M    "P 1"
_symmetry_int_tables_number       1

loop_
  _symmetry_equiv_pos_as_xyz
  'x, y, z'

loop_
  _atom_site_label
  _atom_site_occupancy
  _atom_site_fract_x
  _atom_site_fract_y
  _atom_site_fract_z
  _atom_site_thermal_displace_type
  _atom_site_B_iso_or_equiv
  _atom_site_type_symbol
  Al1      1.0000 0.56095  0.12550  0.60690  Biso   1.000  Al
  Al2      1.0000 0.48405  0.17330  0.80027  Biso   1.000  Al
  Al3      1.0000 0.23853  0.36710  0.69486  Biso   1.000  Al
  P1       1.0000 0.56698  0.13296  0.42290  Biso   1.000  P
  P2       1.0000 0.46668  0.37322  0.66933  Biso   1.000  P
  P3       1.0000 0.75300  0.12637  0.70648  Biso   1.000  P
  O1       1.0000 0.65880  0.08880  0.37770  Biso   1.000  O
  O2       1.0000 0.53120  0.26020  0.38880  Biso   1.000  O
  O3       1.0000 0.59710  0.15320  0.50610  Biso   1.000  O
  O4       1.0000 0.48700  0.03000  0.41710  Biso   1.000  O
  O5       1.0000 0.51910  0.28980  0.60910  Biso   1.000  O
  O6       1.0000 0.49440  0.33430  0.75110  Biso   1.000  O
  O7       1.0000 0.35600  0.35560  0.65610  Biso   1.000  O
  O8       1.0000 0.49560  0.51290  0.65500  Biso   1.000  O
  O9       1.0000 0.85310  0.17960  0.68510  Biso   1.000  O
  O10      1.0000 0.76220  0.98700  0.73550  Biso   1.000  O
  O11      1.0000 0.68880  0.12350  0.63460  Biso   1.000  O
  O12      1.0000 0.70610  0.21370  0.76860  Biso   1.000  O
  O13      1.0000 0.50980  0.09840  0.70660  Biso   1.000  O
  Al4      1.0000 0.93905  0.87450  0.10690  Biso   1.000  Al
  Al5      1.0000 0.01595  0.82670  0.30027  Biso   1.000  Al
  Al6      1.0000 0.26147  0.63290  0.19486  Biso   1.000  Al
  P4       1.0000 0.93302  0.86704  0.92290  Biso   1.000  P
  P5       1.0000 0.03332  0.62678  0.16933  Biso   1.000  P
  P6       1.0000 0.74700  0.87363  0.20648  Biso   1.000  P
  O14      1.0000 0.84120  0.91120  0.87770  Biso   1.000  O
  O15      1.0000 0.96880  0.73980  0.88880  Biso   1.000  O
  O16      1.0000 0.90290  0.84680  0.00610  Biso   1.000  O
  O17      1.0000 0.01300  0.97000  0.91710  Biso   1.000  O
  O18      1.0000 0.98090  0.71020  0.10910  Biso   1.000  O
  O19      1.0000 0.00560  0.66570  0.25110  Biso   1.000  O
  O20      1.0000 0.14400  0.64440  0.15610  Biso   1.000  O
  O21      1.0000 0.00440  0.48710  0.15500  Biso   1.000  O
  O22      1.0000 0.64690  0.82040  0.18510  Biso   1.000  O
  O23      1.0000 0.73780  0.01300  0.23550  Biso   1.000  O
  O24      1.0000 0.81120  0.87650  0.13460  Biso   1.000  O
  O25      1.0000 0.79390  0.78630  0.26860  Biso   1.000  O
  O26      1.0000 0.99020  0.90160  0.20660  Biso   1.000  O
  Al7      1.0000 0.43905  0.62550  0.89310  Biso   1.000  Al
  Al8      1.0000 0.51595  0.67330  0.69973  Biso   1.000  Al
  Al9      1.0000 0.76147  0.86710  0.80514  Biso   1.000  Al
  P7       1.0000 0.43302  0.63296  0.07710  Biso   1.000  P
  P8       1.0000 0.53332  0.87322  0.83067  Biso   1.000  P
  P9       1.0000 0.24700  0.62637  0.79352  Biso   1.000  P
  O27      1.0000 0.34120  0.58880  0.12230  Biso   1.000  O
  O28      1.0000 0.46880  0.76020  0.11120  Biso   1.000  O
  O29      1.0000 0.40290  0.65320  0.99390  Biso   1.000  O
  O30      1.0000 0.51300  0.53000  0.08290  Biso   1.000  O
  O31      1.0000 0.48090  0.78980  0.89090  Biso   1.000  O
  O32      1.0000 0.50560  0.83430  0.74890  Biso   1.000  O
  O33      1.0000 0.64400  0.85560  0.84390  Biso   1.000  O
  O34      1.0000 0.50440  0.01290  0.84500  Biso   1.000  O
  O35      1.0000 0.14690  0.67960  0.81490  Biso   1.000  O
  O36      1.0000 0.23780  0.48700  0.76450  Biso   1.000  O
  O37      1.0000 0.31120  0.62350  0.86540  Biso   1.000  O
  O38      1.0000 0.29390  0.71370  0.73140  Biso   1.000  O
  O39      1.0000 0.49020  0.59840  0.79340  Biso   1.000  O
  Al10     1.0000 0.06095  0.37450  0.39310  Biso   1.000  Al
  Al11     1.0000 0.98405  0.32670  0.19973  Biso   1.000  Al
  Al12     1.0000 0.73853  0.13290  0.30514  Biso   1.000  Al
  P10      1.0000 0.06698  0.36704  0.57710  Biso   1.000  P
  P11      1.0000 0.96668  0.12678  0.33067  Biso   1.000  P
  P12      1.0000 0.25300  0.37363  0.29352  Biso   1.000  P
  O40      1.0000 0.15880  0.41120  0.62230  Biso   1.000  O
  O41      1.0000 0.03120  0.23980  0.61120  Biso   1.000  O
  O42      1.0000 0.09710  0.34680  0.49390  Biso   1.000  O
  O43      1.0000 0.98700  0.47000  0.58290  Biso   1.000  O
  O44      1.0000 0.01910  0.21020  0.39090  Biso   1.000  O
  O45      1.0000 0.99440  0.16570  0.24890  Biso   1.000  O
  O46      1.0000 0.85600  0.14440  0.34390  Biso   1.000  O
  O47      1.0000 0.99560  0.98710  0.34500  Biso   1.000  O
  O48      1.0000 0.35310  0.32040  0.31490  Biso   1.000  O
  O49      1.0000 0.26220  0.51300  0.26450  Biso   1.000  O
  O50      1.0000 0.18880  0.37650  0.36540  Biso   1.000  O
  O51      1.0000 0.20610  0.28630  0.23140  Biso   1.000  O
  O52      1.0000 0.00980  0.40160  0.29340  Biso   1.000  O
  Al13     1.0000 0.43905  0.87450  0.39310  Biso   1.000  Al
  Al14     1.0000 0.51595  0.82670  0.19973  Biso   1.000  Al
  Al15     1.0000 0.76147  0.63290  0.30514  Biso   1.000  Al
  P13      1.0000 0.43302  0.86704  0.57710  Biso   1.000  P
  P14      1.0000 0.53332  0.62678  0.33067  Biso   1.000  P
  P15      1.0000 0.24700  0.87363  0.29352  Biso   1.000  P
  O53      1.0000 0.34120  0.91120  0.62230  Biso   1.000  O
  O54      1.0000 0.46880  0.73980  0.61120  Biso   1.000  O
  O55      1.0000 0.40290  0.84680  0.49390  Biso   1.000  O
  O56      1.0000 0.51300  0.97000  0.58290  Biso   1.000  O
  O57      1.0000 0.48090  0.71020  0.39090  Biso   1.000  O
  O58      1.0000 0.50560  0.66570  0.24890  Biso   1.000  O
  O59      1.0000 0.64400  0.64440  0.34390  Biso   1.000  O
  O60      1.0000 0.50440  0.48710  0.34500  Biso   1.000  O
  O61      1.0000 0.14690  0.82040  0.31490  Biso   1.000  O
  O62      1.0000 0.23780  0.01300  0.26450  Biso   1.000  O
  O63      1.0000 0.31120  0.87650  0.36540  Biso   1.000  O
  O64      1.0000 0.29390  0.78630  0.23140  Biso   1.000  O
  O65      1.0000 0.49020  0.90160  0.29340  Biso   1.000  O
  Al16     1.0000 0.06095  0.12550  0.89310  Biso   1.000  Al
  Al17     1.0000 0.98405  0.17330  0.69973  Biso   1.000  Al
  Al18     1.0000 0.73853  0.36710  0.80514  Biso   1.000  Al
  P16      1.0000 0.06698  0.13296  0.07710  Biso   1.000  P
  P17      1.0000 0.96668  0.37322  0.83067  Biso   1.000  P
  P18      1.0000 0.25300  0.12637  0.79352  Biso   1.000  P
  O66      1.0000 0.15880  0.08880  0.12230  Biso   1.000  O
  O67      1.0000 0.03120  0.26020  0.11120  Biso   1.000  O
  O68      1.0000 0.09710  0.15320  0.99390  Biso   1.000  O
  O69      1.0000 0.98700  0.03000  0.08290  Biso   1.000  O
  O70      1.0000 0.01910  0.28980  0.89090  Biso   1.000  O
  O71      1.0000 0.99440  0.33430  0.74890  Biso   1.000  O
  O72      1.0000 0.85600  0.35560  0.84390  Biso   1.000  O
  O73      1.0000 0.99560  0.51290  0.84500  Biso   1.000  O
  O74      1.0000 0.35310  0.17960  0.81490  Biso   1.000  O
  O75      1.0000 0.26220  0.98700  0.76450  Biso   1.000  O
  O76      1.0000 0.18880  0.12350  0.86540  Biso   1.000  O
  O77      1.0000 0.20610  0.21370  0.73140  Biso   1.000  O
  O78      1.0000 0.00980  0.09840  0.79340  Biso   1.000  O
  Al19     1.0000 0.56095  0.37450  0.10690  Biso   1.000  Al
  Al20     1.0000 0.48405  0.32670  0.30027  Biso   1.000  Al
  Al21     1.0000 0.23853  0.13290  0.19486  Biso   1.000  Al
  P19      1.0000 0.56698  0.36704  0.92290  Biso   1.000  P
  P20      1.0000 0.46668  0.12678  0.16933  Biso   1.000  P
  P21      1.0000 0.75300  0.37363  0.20648  Biso   1.000  P
  O79      1.0000 0.65880  0.41120  0.87770  Biso   1.000  O
  O80      1.0000 0.53120  0.23980  0.88880  Biso   1.000  O
  O81      1.0000 0.59710  0.34680  0.00610  Biso   1.000  O
  O82      1.0000 0.48700  0.47000  0.91710  Biso   1.000  O
  O83      1.0000 0.51910  0.21020  0.10910  Biso   1.000  O
  O84      1.0000 0.49440  0.16570  0.25110  Biso   1.000  O
  O85      1.0000 0.35600  0.14440  0.15610  Biso   1.000  O
  O86      1.0000 0.49560  0.98710  0.15500  Biso   1.000  O
  O87      1.0000 0.85310  0.32040  0.18510  Biso   1.000  O
  O88      1.0000 0.76220  0.51300  0.23550  Biso   1.000  O
  O89      1.0000 0.68880  0.37650  0.13460  Biso   1.000  O
  O90      1.0000 0.70610  0.28630  0.26860  Biso   1.000  O
  O91      1.0000 0.50980  0.40160  0.20660  Biso   1.000  O
  Al22     1.0000 0.93905  0.62550  0.60690  Biso   1.000  Al
  Al23     1.0000 0.01595  0.67330  0.80027  Biso   1.000  Al
  Al24     1.0000 0.26147  0.86710  0.69486  Biso   1.000  Al
  P22      1.0000 0.93302  0.63296  0.42290  Biso   1.000  P
  P23      1.0000 0.03332  0.87322  0.66933  Biso   1.000  P
  P24      1.0000 0.74700  0.62637  0.70648  Biso   1.000  P
  O92      1.0000 0.84120  0.58880  0.37770  Biso   1.000  O
  O93      1.0000 0.96880  0.76020  0.38880  Biso   1.000  O
  O94      1.0000 0.90290  0.65320  0.50610  Biso   1.000  O
  O95      1.0000 0.01300  0.53000  0.41710  Biso   1.000  O
  O96      1.0000 0.98090  0.78980  0.60910  Biso   1.000  O
  O97      1.0000 0.00560  0.83430  0.75110  Biso   1.000  O
  O98      1.0000 0.14400  0.85560  0.65610  Biso   1.000  O
  O99      1.0000 0.00440  0.01290  0.65500  Biso   1.000  O
  O100     1.0000 0.64690  0.67960  0.68510  Biso   1.000  O
  O101     1.0000 0.73780  0.48700  0.73550  Biso   1.000  O
  O102     1.0000 0.81120  0.62350  0.63460  Biso   1.000  O
  O103     1.0000 0.79390  0.71370  0.76860  Biso   1.000  O
  O104     1.0000 0.99020  0.59840  0.70660  Biso   1.000  O
