data_image0
_cell_length_a       12.3804
_cell_length_b       12.3804
_cell_length_c       46.505
_cell_angle_alpha    90
_cell_angle_beta     90
_cell_angle_gamma    90

_symmetry_space_group_name_H-M    "P 1"
_symmetry_int_tables_number       1

loop_
  _symmetry_equiv_pos_as_xyz
  'x, y, z'

loop_
  _atom_site_label
  _atom_site_occupancy
  _atom_site_fract_x
  _atom_site_fract_y
  _atom_site_fract_z
  _atom_site_thermal_displace_type
  _atom_site_B_iso_or_equiv
  _atom_site_type_symbol
  N1       1.0000 0.07900  0.88540  0.28180  Biso   1.000  N
  N2       1.0000 0.89510  0.95510  0.37659  Biso   1.000  N
  N3       1.0000 0.92560  0.13120  0.35770  Biso   1.000  N
  N4       1.0000 0.84670  0.11130  0.40440  Biso   1.000  N
  N5       1.0000 0.74690  0.79520  0.46777  Biso   1.000  N
  C1       1.0000 0.01640  0.82620  0.29900  Biso   1.000  C
  C2       1.0000 0.96350  0.86690  0.32280  Biso   1.000  C
  C3       1.0000 0.97780  0.97560  0.32950  Biso   1.000  C
  C4       1.0000 0.03720  0.04020  0.31110  Biso   1.000  C
  C5       1.0000 0.08670  0.99040  0.28760  Biso   1.000  C
  C6       1.0000 0.92930  0.02380  0.35590  Biso   1.000  C
  C7       1.0000 0.88010  0.17060  0.38200  Biso   1.000  C
  C8       1.0000 0.85470  0.00540  0.40010  Biso   1.000  C
  C9       1.0000 0.82060  0.93170  0.42370  Biso   1.000  C
  C10      1.0000 0.81970  0.82000  0.42020  Biso   1.000  C
  C11      1.0000 0.78320  0.75280  0.44260  Biso   1.000  C
  C12      1.0000 0.74740  0.90320  0.47050  Biso   1.000  C
  C13      1.0000 0.78150  0.97270  0.45010  Biso   1.000  C
  H1       1.0000 0.00800  0.75040  0.29470  Biso   1.000  H
  H2       1.0000 0.91740  0.82210  0.33400  Biso   1.000  H
  H3       1.0000 0.04320  0.11830  0.31450  Biso   1.000  H
  H4       1.0000 0.12800  0.03500  0.27460  Biso   1.000  H
  H5       1.0000 0.87180  0.24820  0.38360  Biso   1.000  H
  H6       1.0000 0.84300  0.78830  0.40260  Biso   1.000  H
  H7       1.0000 0.78430  0.67780  0.43970  Biso   1.000  H
  H8       1.0000 0.72160  0.93270  0.48830  Biso   1.000  H
  H9       1.0000 0.78020  0.04940  0.45330  Biso   1.000  H
  N6       1.0000 0.92100  0.11460  0.78180  Biso   1.000  N
  N7       1.0000 0.10490  0.04490  0.87659  Biso   1.000  N
  N8       1.0000 0.07440  0.86880  0.85770  Biso   1.000  N
  N9       1.0000 0.15330  0.88870  0.90440  Biso   1.000  N
  N10      1.0000 0.25310  0.20480  0.96777  Biso   1.000  N
  C14      1.0000 0.98360  0.17380  0.79900  Biso   1.000  C
  C15      1.0000 0.03650  0.13310  0.82280  Biso   1.000  C
  C16      1.0000 0.02220  0.02440  0.82950  Biso   1.000  C
  C17      1.0000 0.96280  0.95980  0.81110  Biso   1.000  C
  C18      1.0000 0.91330  0.00960  0.78760  Biso   1.000  C
  C19      1.0000 0.07070  0.97620  0.85590  Biso   1.000  C
  C20      1.0000 0.11990  0.82940  0.88200  Biso   1.000  C
  C21      1.0000 0.14530  0.99460  0.90010  Biso   1.000  C
  C22      1.0000 0.17940  0.06830  0.92370  Biso   1.000  C
  C23      1.0000 0.18030  0.18000  0.92020  Biso   1.000  C
  C24      1.0000 0.21680  0.24720  0.94260  Biso   1.000  C
  C25      1.0000 0.25260  0.09680  0.97050  Biso   1.000  C
  C26      1.0000 0.21850  0.02730  0.95010  Biso   1.000  C
  H10      1.0000 0.99200  0.24960  0.79470  Biso   1.000  H
  H11      1.0000 0.08260  0.17790  0.83400  Biso   1.000  H
  H12      1.0000 0.95680  0.88170  0.81450  Biso   1.000  H
  H13      1.0000 0.87200  0.96500  0.77460  Biso   1.000  H
  H14      1.0000 0.12820  0.75180  0.88360  Biso   1.000  H
  H15      1.0000 0.15700  0.21170  0.90260  Biso   1.000  H
  H16      1.0000 0.21570  0.32220  0.93970  Biso   1.000  H
  H17      1.0000 0.27840  0.06730  0.98830  Biso   1.000  H
  H18      1.0000 0.21980  0.95060  0.95330  Biso   1.000  H
  N11      1.0000 0.61460  0.57900  0.53180  Biso   1.000  N
  N12      1.0000 0.54490  0.39510  0.62659  Biso   1.000  N
  N13      1.0000 0.36880  0.42560  0.60770  Biso   1.000  N
  N14      1.0000 0.38870  0.34670  0.65440  Biso   1.000  N
  N15      1.0000 0.70480  0.24690  0.71777  Biso   1.000  N
  C27      1.0000 0.67380  0.51640  0.54900  Biso   1.000  C
  C28      1.0000 0.63310  0.46350  0.57280  Biso   1.000  C
  C29      1.0000 0.52440  0.47780  0.57950  Biso   1.000  C
  C30      1.0000 0.45980  0.53720  0.56110  Biso   1.000  C
  C31      1.0000 0.50960  0.58670  0.53760  Biso   1.000  C
  C32      1.0000 0.47620  0.42930  0.60590  Biso   1.000  C
  C33      1.0000 0.32940  0.38010  0.63200  Biso   1.000  C
  C34      1.0000 0.49460  0.35470  0.65010  Biso   1.000  C
  C35      1.0000 0.56830  0.32060  0.67370  Biso   1.000  C
  C36      1.0000 0.68000  0.31970  0.67020  Biso   1.000  C
  C37      1.0000 0.74720  0.28320  0.69260  Biso   1.000  C
  C38      1.0000 0.59680  0.24740  0.72050  Biso   1.000  C
  C39      1.0000 0.52730  0.28150  0.70010  Biso   1.000  C
  H19      1.0000 0.74960  0.50800  0.54470  Biso   1.000  H
  H20      1.0000 0.67790  0.41740  0.58400  Biso   1.000  H
  H21      1.0000 0.38170  0.54320  0.56450  Biso   1.000  H
  H22      1.0000 0.46500  0.62800  0.52460  Biso   1.000  H
  H23      1.0000 0.25180  0.37180  0.63360  Biso   1.000  H
  H24      1.0000 0.71170  0.34300  0.65260  Biso   1.000  H
  H25      1.0000 0.82220  0.28430  0.68970  Biso   1.000  H
  H26      1.0000 0.56730  0.22160  0.73830  Biso   1.000  H
  H27      1.0000 0.45060  0.28020  0.70330  Biso   1.000  H
  N16      1.0000 0.38540  0.42100  0.03180  Biso   1.000  N
  N17      1.0000 0.45510  0.60490  0.12659  Biso   1.000  N
  N18      1.0000 0.63120  0.57440  0.10770  Biso   1.000  N
  N19      1.0000 0.61130  0.65330  0.15440  Biso   1.000  N
  N20      1.0000 0.29520  0.75310  0.21777  Biso   1.000  N
  C40      1.0000 0.32620  0.48360  0.04900  Biso   1.000  C
  C41      1.0000 0.36690  0.53650  0.07280  Biso   1.000  C
  C42      1.0000 0.47560  0.52220  0.07950  Biso   1.000  C
  C43      1.0000 0.54020  0.46280  0.06110  Biso   1.000  C
  C44      1.0000 0.49040  0.41330  0.03760  Biso   1.000  C
  C45      1.0000 0.52380  0.57070  0.10590  Biso   1.000  C
  C46      1.0000 0.67060  0.61990  0.13200  Biso   1.000  C
  C47      1.0000 0.50540  0.64530  0.15010  Biso   1.000  C
  C48      1.0000 0.43170  0.67940  0.17370  Biso   1.000  C
  C49      1.0000 0.32000  0.68030  0.17020  Biso   1.000  C
  C50      1.0000 0.25280  0.71680  0.19260  Biso   1.000  C
  C51      1.0000 0.40320  0.75260  0.22050  Biso   1.000  C
  C52      1.0000 0.47270  0.71850  0.20010  Biso   1.000  C
  H28      1.0000 0.25040  0.49200  0.04470  Biso   1.000  H
  H29      1.0000 0.32210  0.58260  0.08400  Biso   1.000  H
  H30      1.0000 0.61830  0.45680  0.06450  Biso   1.000  H
  H31      1.0000 0.53500  0.37200  0.02460  Biso   1.000  H
  H32      1.0000 0.74820  0.62820  0.13360  Biso   1.000  H
  H33      1.0000 0.28830  0.65700  0.15260  Biso   1.000  H
  H34      1.0000 0.17780  0.71570  0.18970  Biso   1.000  H
  H35      1.0000 0.43270  0.77840  0.23830  Biso   1.000  H
  H36      1.0000 0.54940  0.71980  0.20330  Biso   1.000  H
  N21      1.0000 0.42100  0.38540  0.96820  Biso   1.000  N
  N22      1.0000 0.60490  0.45510  0.87341  Biso   1.000  N
  N23      1.0000 0.57440  0.63120  0.89230  Biso   1.000  N
  N24      1.0000 0.65330  0.61130  0.84560  Biso   1.000  N
  N25      1.0000 0.75310  0.29520  0.78223  Biso   1.000  N
  C53      1.0000 0.48360  0.32620  0.95100  Biso   1.000  C
  C54      1.0000 0.53650  0.36690  0.92720  Biso   1.000  C
  C55      1.0000 0.52220  0.47560  0.92050  Biso   1.000  C
  C56      1.0000 0.46280  0.54020  0.93890  Biso   1.000  C
  C57      1.0000 0.41330  0.49040  0.96240  Biso   1.000  C
  C58      1.0000 0.57070  0.52380  0.89410  Biso   1.000  C
  C59      1.0000 0.61990  0.67060  0.86800  Biso   1.000  C
  C60      1.0000 0.64530  0.50540  0.84990  Biso   1.000  C
  C61      1.0000 0.67940  0.43170  0.82630  Biso   1.000  C
  C62      1.0000 0.68030  0.32000  0.82980  Biso   1.000  C
  C63      1.0000 0.71680  0.25280  0.80740  Biso   1.000  C
  C64      1.0000 0.75260  0.40320  0.77950  Biso   1.000  C
  C65      1.0000 0.71850  0.47270  0.79990  Biso   1.000  C
  H37      1.0000 0.49200  0.25040  0.95530  Biso   1.000  H
  H38      1.0000 0.58260  0.32210  0.91600  Biso   1.000  H
  H39      1.0000 0.45680  0.61830  0.93550  Biso   1.000  H
  H40      1.0000 0.37200  0.53500  0.97540  Biso   1.000  H
  H41      1.0000 0.62820  0.74820  0.86640  Biso   1.000  H
  H42      1.0000 0.65700  0.28830  0.84740  Biso   1.000  H
  H43      1.0000 0.71570  0.17780  0.81030  Biso   1.000  H
  H44      1.0000 0.77840  0.43270  0.76170  Biso   1.000  H
  H45      1.0000 0.71980  0.54940  0.79670  Biso   1.000  H
  N26      1.0000 0.57900  0.61460  0.46820  Biso   1.000  N
  N27      1.0000 0.39510  0.54490  0.37341  Biso   1.000  N
  N28      1.0000 0.42560  0.36880  0.39230  Biso   1.000  N
  N29      1.0000 0.34670  0.38870  0.34560  Biso   1.000  N
  N30      1.0000 0.24690  0.70480  0.28223  Biso   1.000  N
  C66      1.0000 0.51640  0.67380  0.45100  Biso   1.000  C
  C67      1.0000 0.46350  0.63310  0.42720  Biso   1.000  C
  C68      1.0000 0.47780  0.52440  0.42050  Biso   1.000  C
  C69      1.0000 0.53720  0.45980  0.43890  Biso   1.000  C
  C70      1.0000 0.58670  0.50960  0.46240  Biso   1.000  C
  C71      1.0000 0.42930  0.47620  0.39410  Biso   1.000  C
  C72      1.0000 0.38010  0.32940  0.36800  Biso   1.000  C
  C73      1.0000 0.35470  0.49460  0.34990  Biso   1.000  C
  C74      1.0000 0.32060  0.56830  0.32630  Biso   1.000  C
  C75      1.0000 0.31970  0.68000  0.32980  Biso   1.000  C
  C76      1.0000 0.28320  0.74720  0.30740  Biso   1.000  C
  C77      1.0000 0.24740  0.59680  0.27950  Biso   1.000  C
  C78      1.0000 0.28150  0.52730  0.29990  Biso   1.000  C
  H46      1.0000 0.50800  0.74960  0.45530  Biso   1.000  H
  H47      1.0000 0.41740  0.67790  0.41600  Biso   1.000  H
  H48      1.0000 0.54320  0.38170  0.43550  Biso   1.000  H
  H49      1.0000 0.62800  0.46500  0.47540  Biso   1.000  H
  H50      1.0000 0.37180  0.25180  0.36640  Biso   1.000  H
  H51      1.0000 0.34300  0.71170  0.34740  Biso   1.000  H
  H52      1.0000 0.28430  0.82220  0.31030  Biso   1.000  H
  H53      1.0000 0.22160  0.56730  0.26170  Biso   1.000  H
  H54      1.0000 0.28020  0.45060  0.29670  Biso   1.000  H
  N31      1.0000 0.88540  0.07900  0.71820  Biso   1.000  N
  N32      1.0000 0.95510  0.89510  0.62341  Biso   1.000  N
  N33      1.0000 0.13120  0.92560  0.64230  Biso   1.000  N
  N34      1.0000 0.11130  0.84670  0.59560  Biso   1.000  N
  N35      1.0000 0.79520  0.74690  0.53223  Biso   1.000  N
  C79      1.0000 0.82620  0.01640  0.70100  Biso   1.000  C
  C80      1.0000 0.86690  0.96350  0.67720  Biso   1.000  C
  C81      1.0000 0.97560  0.97780  0.67050  Biso   1.000  C
  C82      1.0000 0.04020  0.03720  0.68890  Biso   1.000  C
  C83      1.0000 0.99040  0.08670  0.71240  Biso   1.000  C
  C84      1.0000 0.02380  0.92930  0.64410  Biso   1.000  C
  C85      1.0000 0.17060  0.88010  0.61800  Biso   1.000  C
  C86      1.0000 0.00540  0.85470  0.59990  Biso   1.000  C
  C87      1.0000 0.93170  0.82060  0.57630  Biso   1.000  C
  C88      1.0000 0.82000  0.81970  0.57980  Biso   1.000  C
  C89      1.0000 0.75280  0.78320  0.55740  Biso   1.000  C
  C90      1.0000 0.90320  0.74740  0.52950  Biso   1.000  C
  C91      1.0000 0.97270  0.78150  0.54990  Biso   1.000  C
  H55      1.0000 0.75040  0.00800  0.70530  Biso   1.000  H
  H56      1.0000 0.82210  0.91740  0.66600  Biso   1.000  H
  H57      1.0000 0.11830  0.04320  0.68550  Biso   1.000  H
  H58      1.0000 0.03500  0.12800  0.72540  Biso   1.000  H
  H59      1.0000 0.24820  0.87180  0.61640  Biso   1.000  H
  H60      1.0000 0.78830  0.84300  0.59740  Biso   1.000  H
  H61      1.0000 0.67780  0.78430  0.56030  Biso   1.000  H
  H62      1.0000 0.93270  0.72160  0.51170  Biso   1.000  H
  H63      1.0000 0.04940  0.78020  0.54670  Biso   1.000  H
  N36      1.0000 0.11460  0.92100  0.21820  Biso   1.000  N
  N37      1.0000 0.04490  0.10490  0.12341  Biso   1.000  N
  N38      1.0000 0.86880  0.07440  0.14230  Biso   1.000  N
  N39      1.0000 0.88870  0.15330  0.09560  Biso   1.000  N
  N40      1.0000 0.20480  0.25310  0.03223  Biso   1.000  N
  C92      1.0000 0.17380  0.98360  0.20100  Biso   1.000  C
  C93      1.0000 0.13310  0.03650  0.17720  Biso   1.000  C
  C94      1.0000 0.02440  0.02220  0.17050  Biso   1.000  C
  C95      1.0000 0.95980  0.96280  0.18890  Biso   1.000  C
  C96      1.0000 0.00960  0.91330  0.21240  Biso   1.000  C
  C97      1.0000 0.97620  0.07070  0.14410  Biso   1.000  C
  C98      1.0000 0.82940  0.11990  0.11800  Biso   1.000  C
  C99      1.0000 0.99460  0.14530  0.09990  Biso   1.000  C
  C100     1.0000 0.06830  0.17940  0.07630  Biso   1.000  C
  C101     1.0000 0.18000  0.18030  0.07980  Biso   1.000  C
  C102     1.0000 0.24720  0.21680  0.05740  Biso   1.000  C
  C103     1.0000 0.09680  0.25260  0.02950  Biso   1.000  C
  C104     1.0000 0.02730  0.21850  0.04990  Biso   1.000  C
  H64      1.0000 0.24960  0.99200  0.20530  Biso   1.000  H
  H65      1.0000 0.17790  0.08260  0.16600  Biso   1.000  H
  H66      1.0000 0.88170  0.95680  0.18550  Biso   1.000  H
  H67      1.0000 0.96500  0.87200  0.22540  Biso   1.000  H
  H68      1.0000 0.75180  0.12820  0.11640  Biso   1.000  H
  H69      1.0000 0.21170  0.15700  0.09740  Biso   1.000  H
  H70      1.0000 0.32220  0.21570  0.06030  Biso   1.000  H
  H71      1.0000 0.06730  0.27840  0.01170  Biso   1.000  H
  H72      1.0000 0.95060  0.21980  0.04670  Biso   1.000  H
  Zn1      1.0000 0.18518  0.81482  0.25000  Biso   1.000  Zn
  Zn2      1.0000 0.81482  0.18518  0.75000  Biso   1.000  Zn
  Zn3      1.0000 0.68518  0.68518  0.50000  Biso   1.000  Zn
  Zn4      1.0000 0.31482  0.31482  0.00000  Biso   1.000  Zn
  N41      1.0000 0.85180  0.34660  0.27610  Biso   1.000  N
  N42      1.0000 0.06560  0.44840  0.36256  Biso   1.000  N
  N43      1.0000 0.03980  0.61960  0.34000  Biso   1.000  N
  N44      1.0000 0.12210  0.61200  0.38590  Biso   1.000  N
  N45      1.0000 0.18880  0.32270  0.46064  Biso   1.000  N
  C105     1.0000 0.91180  0.29390  0.29530  Biso   1.000  C
  C106     1.0000 0.97510  0.34330  0.31570  Biso   1.000  C
  C107     1.0000 0.97310  0.45420  0.31720  Biso   1.000  C
  C108     1.0000 0.91190  0.51310  0.29750  Biso   1.000  C
  C109     1.0000 0.85070  0.45280  0.27720  Biso   1.000  C
  C110     1.0000 0.03120  0.51160  0.34120  Biso   1.000  C
  C111     1.0000 0.08750  0.66160  0.36260  Biso   1.000  C
  C112     1.0000 0.10920  0.50440  0.38480  Biso   1.000  C
  C113     1.0000 0.13960  0.44010  0.41050  Biso   1.000  C
  C114     1.0000 0.14280  0.32700  0.41040  Biso   1.000  C
  C115     1.0000 0.16680  0.27250  0.43570  Biso   1.000  C
  C116     1.0000 0.18590  0.42940  0.46010  Biso   1.000  C
  C117     1.0000 0.16410  0.49310  0.43600  Biso   1.000  C
  H73      1.0000 0.91300  0.21790  0.29420  Biso   1.000  H
  H74      1.0000 0.01700  0.30320  0.32880  Biso   1.000  H
  H75      1.0000 0.91060  0.58950  0.29760  Biso   1.000  H
  H76      1.0000 0.80870  0.49050  0.26330  Biso   1.000  H
  H77      1.0000 0.09890  0.73930  0.36240  Biso   1.000  H
  H78      1.0000 0.12520  0.28780  0.39350  Biso   1.000  H
  H79      1.0000 0.16820  0.19660  0.43560  Biso   1.000  H
  H80      1.0000 0.19580  0.46590  0.47790  Biso   1.000  H
  H81      1.0000 0.16640  0.57020  0.43660  Biso   1.000  H
  N46      1.0000 0.14820  0.65340  0.77610  Biso   1.000  N
  N47      1.0000 0.93440  0.55160  0.86256  Biso   1.000  N
  N48      1.0000 0.96020  0.38040  0.84000  Biso   1.000  N
  N49      1.0000 0.87790  0.38800  0.88590  Biso   1.000  N
  N50      1.0000 0.81120  0.67730  0.96064  Biso   1.000  N
  C118     1.0000 0.08820  0.70610  0.79530  Biso   1.000  C
  C119     1.0000 0.02490  0.65670  0.81570  Biso   1.000  C
  C120     1.0000 0.02690  0.54580  0.81720  Biso   1.000  C
  C121     1.0000 0.08810  0.48690  0.79750  Biso   1.000  C
  C122     1.0000 0.14930  0.54720  0.77720  Biso   1.000  C
  C123     1.0000 0.96880  0.48840  0.84120  Biso   1.000  C
  C124     1.0000 0.91250  0.33840  0.86260  Biso   1.000  C
  C125     1.0000 0.89080  0.49560  0.88480  Biso   1.000  C
  C126     1.0000 0.86040  0.55990  0.91050  Biso   1.000  C
  C127     1.0000 0.85720  0.67300  0.91040  Biso   1.000  C
  C128     1.0000 0.83320  0.72750  0.93570  Biso   1.000  C
  C129     1.0000 0.81410  0.57060  0.96010  Biso   1.000  C
  C130     1.0000 0.83590  0.50690  0.93600  Biso   1.000  C
  H82      1.0000 0.08700  0.78210  0.79420  Biso   1.000  H
  H83      1.0000 0.98300  0.69680  0.82880  Biso   1.000  H
  H84      1.0000 0.08940  0.41050  0.79760  Biso   1.000  H
  H85      1.0000 0.19130  0.50950  0.76330  Biso   1.000  H
  H86      1.0000 0.90110  0.26070  0.86240  Biso   1.000  H
  H87      1.0000 0.87480  0.71220  0.89350  Biso   1.000  H
  H88      1.0000 0.83180  0.80340  0.93560  Biso   1.000  H
  H89      1.0000 0.80420  0.53410  0.97790  Biso   1.000  H
  H90      1.0000 0.83360  0.42980  0.93660  Biso   1.000  H
  N51      1.0000 0.15340  0.35180  0.52610  Biso   1.000  N
  N52      1.0000 0.05160  0.56560  0.61256  Biso   1.000  N
  N53      1.0000 0.88040  0.53980  0.59000  Biso   1.000  N
  N54      1.0000 0.88800  0.62210  0.63590  Biso   1.000  N
  N55      1.0000 0.17730  0.68880  0.71064  Biso   1.000  N
  C131     1.0000 0.20610  0.41180  0.54530  Biso   1.000  C
  C132     1.0000 0.15670  0.47510  0.56570  Biso   1.000  C
  C133     1.0000 0.04580  0.47310  0.56720  Biso   1.000  C
  C134     1.0000 0.98690  0.41190  0.54750  Biso   1.000  C
  C135     1.0000 0.04720  0.35070  0.52720  Biso   1.000  C
  C136     1.0000 0.98840  0.53120  0.59120  Biso   1.000  C
  C137     1.0000 0.83840  0.58750  0.61260  Biso   1.000  C
  C138     1.0000 0.99560  0.60920  0.63480  Biso   1.000  C
  C139     1.0000 0.05990  0.63960  0.66050  Biso   1.000  C
  C140     1.0000 0.17300  0.64280  0.66040  Biso   1.000  C
  C141     1.0000 0.22750  0.66680  0.68570  Biso   1.000  C
  C142     1.0000 0.07060  0.68590  0.71010  Biso   1.000  C
  C143     1.0000 0.00690  0.66410  0.68600  Biso   1.000  C
  H91      1.0000 0.28210  0.41300  0.54420  Biso   1.000  H
  H92      1.0000 0.19680  0.51700  0.57880  Biso   1.000  H
  H93      1.0000 0.91050  0.41060  0.54760  Biso   1.000  H
  H94      1.0000 0.00950  0.30870  0.51330  Biso   1.000  H
  H95      1.0000 0.76070  0.59890  0.61240  Biso   1.000  H
  H96      1.0000 0.21220  0.62520  0.64350  Biso   1.000  H
  H97      1.0000 0.30340  0.66820  0.68560  Biso   1.000  H
  H98      1.0000 0.03410  0.69580  0.72790  Biso   1.000  H
  H99      1.0000 0.92980  0.66640  0.68660  Biso   1.000  H
  N56      1.0000 0.84660  0.64820  0.02610  Biso   1.000  N
  N57      1.0000 0.94840  0.43440  0.11256  Biso   1.000  N
  N58      1.0000 0.11960  0.46020  0.09000  Biso   1.000  N
  N59      1.0000 0.11200  0.37790  0.13590  Biso   1.000  N
  N60      1.0000 0.82270  0.31120  0.21064  Biso   1.000  N
  C144     1.0000 0.79390  0.58820  0.04530  Biso   1.000  C
  C145     1.0000 0.84330  0.52490  0.06570  Biso   1.000  C
  C146     1.0000 0.95420  0.52690  0.06720  Biso   1.000  C
  C147     1.0000 0.01310  0.58810  0.04750  Biso   1.000  C
  C148     1.0000 0.95280  0.64930  0.02720  Biso   1.000  C
  C149     1.0000 0.01160  0.46880  0.09120  Biso   1.000  C
  C150     1.0000 0.16160  0.41250  0.11260  Biso   1.000  C
  C151     1.0000 0.00440  0.39080  0.13480  Biso   1.000  C
  C152     1.0000 0.94010  0.36040  0.16050  Biso   1.000  C
  C153     1.0000 0.82700  0.35720  0.16040  Biso   1.000  C
  C154     1.0000 0.77250  0.33320  0.18570  Biso   1.000  C
  C155     1.0000 0.92940  0.31410  0.21010  Biso   1.000  C
  C156     1.0000 0.99310  0.33590  0.18600  Biso   1.000  C
  H100     1.0000 0.71790  0.58700  0.04420  Biso   1.000  H
  H101     1.0000 0.80320  0.48300  0.07880  Biso   1.000  H
  H102     1.0000 0.08950  0.58940  0.04760  Biso   1.000  H
  H103     1.0000 0.99050  0.69130  0.01330  Biso   1.000  H
  H104     1.0000 0.23930  0.40110  0.11240  Biso   1.000  H
  H105     1.0000 0.78780  0.37480  0.14350  Biso   1.000  H
  H106     1.0000 0.69660  0.33180  0.18560  Biso   1.000  H
  H107     1.0000 0.96590  0.30420  0.22790  Biso   1.000  H
  H108     1.0000 0.07020  0.33360  0.18660  Biso   1.000  H
  N61      1.0000 0.64820  0.84660  0.97390  Biso   1.000  N
  N62      1.0000 0.43440  0.94840  0.88744  Biso   1.000  N
  N63      1.0000 0.46020  0.11960  0.91000  Biso   1.000  N
  N64      1.0000 0.37790  0.11200  0.86410  Biso   1.000  N
  N65      1.0000 0.31120  0.82270  0.78936  Biso   1.000  N
  C157     1.0000 0.58820  0.79390  0.95470  Biso   1.000  C
  C158     1.0000 0.52490  0.84330  0.93430  Biso   1.000  C
  C159     1.0000 0.52690  0.95420  0.93280  Biso   1.000  C
  C160     1.0000 0.58810  0.01310  0.95250  Biso   1.000  C
  C161     1.0000 0.64930  0.95280  0.97280  Biso   1.000  C
  C162     1.0000 0.46880  0.01160  0.90880  Biso   1.000  C
  C163     1.0000 0.41250  0.16160  0.88740  Biso   1.000  C
  C164     1.0000 0.39080  0.00440  0.86520  Biso   1.000  C
  C165     1.0000 0.36040  0.94010  0.83950  Biso   1.000  C
  C166     1.0000 0.35720  0.82700  0.83960  Biso   1.000  C
  C167     1.0000 0.33320  0.77250  0.81430  Biso   1.000  C
  C168     1.0000 0.31410  0.92940  0.78990  Biso   1.000  C
  C169     1.0000 0.33590  0.99310  0.81400  Biso   1.000  C
  H109     1.0000 0.58700  0.71790  0.95580  Biso   1.000  H
  H110     1.0000 0.48300  0.80320  0.92120  Biso   1.000  H
  H111     1.0000 0.58940  0.08950  0.95240  Biso   1.000  H
  H112     1.0000 0.69130  0.99050  0.98670  Biso   1.000  H
  H113     1.0000 0.40110  0.23930  0.88760  Biso   1.000  H
  H114     1.0000 0.37480  0.78780  0.85650  Biso   1.000  H
  H115     1.0000 0.33180  0.69660  0.81440  Biso   1.000  H
  H116     1.0000 0.30420  0.96590  0.77210  Biso   1.000  H
  H117     1.0000 0.33360  0.07020  0.81340  Biso   1.000  H
  N66      1.0000 0.35180  0.15340  0.47390  Biso   1.000  N
  N67      1.0000 0.56560  0.05160  0.38744  Biso   1.000  N
  N68      1.0000 0.53980  0.88040  0.41000  Biso   1.000  N
  N69      1.0000 0.62210  0.88800  0.36410  Biso   1.000  N
  N70      1.0000 0.68880  0.17730  0.28936  Biso   1.000  N
  C170     1.0000 0.41180  0.20610  0.45470  Biso   1.000  C
  C171     1.0000 0.47510  0.15670  0.43430  Biso   1.000  C
  C172     1.0000 0.47310  0.04580  0.43280  Biso   1.000  C
  C173     1.0000 0.41190  0.98690  0.45250  Biso   1.000  C
  C174     1.0000 0.35070  0.04720  0.47280  Biso   1.000  C
  C175     1.0000 0.53120  0.98840  0.40880  Biso   1.000  C
  C176     1.0000 0.58750  0.83840  0.38740  Biso   1.000  C
  C177     1.0000 0.60920  0.99560  0.36520  Biso   1.000  C
  C178     1.0000 0.63960  0.05990  0.33950  Biso   1.000  C
  C179     1.0000 0.64280  0.17300  0.33960  Biso   1.000  C
  C180     1.0000 0.66680  0.22750  0.31430  Biso   1.000  C
  C181     1.0000 0.68590  0.07060  0.28990  Biso   1.000  C
  C182     1.0000 0.66410  0.00690  0.31400  Biso   1.000  C
  H118     1.0000 0.41300  0.28210  0.45580  Biso   1.000  H
  H119     1.0000 0.51700  0.19680  0.42120  Biso   1.000  H
  H120     1.0000 0.41060  0.91050  0.45240  Biso   1.000  H
  H121     1.0000 0.30870  0.00950  0.48670  Biso   1.000  H
  H122     1.0000 0.59890  0.76070  0.38760  Biso   1.000  H
  H123     1.0000 0.62520  0.21220  0.35650  Biso   1.000  H
  H124     1.0000 0.66820  0.30340  0.31440  Biso   1.000  H
  H125     1.0000 0.69580  0.03410  0.27210  Biso   1.000  H
  H126     1.0000 0.66640  0.92980  0.31340  Biso   1.000  H
  N71      1.0000 0.34660  0.85180  0.72390  Biso   1.000  N
  N72      1.0000 0.44840  0.06560  0.63744  Biso   1.000  N
  N73      1.0000 0.61960  0.03980  0.66000  Biso   1.000  N
  N74      1.0000 0.61200  0.12210  0.61410  Biso   1.000  N
  N75      1.0000 0.32270  0.18880  0.53936  Biso   1.000  N
  C183     1.0000 0.29390  0.91180  0.70470  Biso   1.000  C
  C184     1.0000 0.34330  0.97510  0.68430  Biso   1.000  C
  C185     1.0000 0.45420  0.97310  0.68280  Biso   1.000  C
  C186     1.0000 0.51310  0.91190  0.70250  Biso   1.000  C
  C187     1.0000 0.45280  0.85070  0.72280  Biso   1.000  C
  C188     1.0000 0.51160  0.03120  0.65880  Biso   1.000  C
  C189     1.0000 0.66160  0.08750  0.63740  Biso   1.000  C
  C190     1.0000 0.50440  0.10920  0.61520  Biso   1.000  C
  C191     1.0000 0.44010  0.13960  0.58950  Biso   1.000  C
  C192     1.0000 0.32700  0.14280  0.58960  Biso   1.000  C
  C193     1.0000 0.27250  0.16680  0.56430  Biso   1.000  C
  C194     1.0000 0.42940  0.18590  0.53990  Biso   1.000  C
  C195     1.0000 0.49310  0.16410  0.56400  Biso   1.000  C
  H127     1.0000 0.21790  0.91300  0.70580  Biso   1.000  H
  H128     1.0000 0.30320  0.01700  0.67120  Biso   1.000  H
  H129     1.0000 0.58950  0.91060  0.70240  Biso   1.000  H
  H130     1.0000 0.49050  0.80870  0.73670  Biso   1.000  H
  H131     1.0000 0.73930  0.09890  0.63760  Biso   1.000  H
  H132     1.0000 0.28780  0.12520  0.60650  Biso   1.000  H
  H133     1.0000 0.19660  0.16820  0.56440  Biso   1.000  H
  H134     1.0000 0.46590  0.19580  0.52210  Biso   1.000  H
  H135     1.0000 0.57020  0.16640  0.56340  Biso   1.000  H
  N76      1.0000 0.65340  0.14820  0.22390  Biso   1.000  N
  N77      1.0000 0.55160  0.93440  0.13744  Biso   1.000  N
  N78      1.0000 0.38040  0.96020  0.16000  Biso   1.000  N
  N79      1.0000 0.38800  0.87790  0.11410  Biso   1.000  N
  N80      1.0000 0.67730  0.81120  0.03936  Biso   1.000  N
  C196     1.0000 0.70610  0.08820  0.20470  Biso   1.000  C
  C197     1.0000 0.65670  0.02490  0.18430  Biso   1.000  C
  C198     1.0000 0.54580  0.02690  0.18280  Biso   1.000  C
  C199     1.0000 0.48690  0.08810  0.20250  Biso   1.000  C
  C200     1.0000 0.54720  0.14930  0.22280  Biso   1.000  C
  C201     1.0000 0.48840  0.96880  0.15880  Biso   1.000  C
  C202     1.0000 0.33840  0.91250  0.13740  Biso   1.000  C
  C203     1.0000 0.49560  0.89080  0.11520  Biso   1.000  C
  C204     1.0000 0.55990  0.86040  0.08950  Biso   1.000  C
  C205     1.0000 0.67300  0.85720  0.08960  Biso   1.000  C
  C206     1.0000 0.72750  0.83320  0.06430  Biso   1.000  C
  C207     1.0000 0.57060  0.81410  0.03990  Biso   1.000  C
  C208     1.0000 0.50690  0.83590  0.06400  Biso   1.000  C
  H136     1.0000 0.78210  0.08700  0.20580  Biso   1.000  H
  H137     1.0000 0.69680  0.98300  0.17120  Biso   1.000  H
  H138     1.0000 0.41050  0.08940  0.20240  Biso   1.000  H
  H139     1.0000 0.50950  0.19130  0.23670  Biso   1.000  H
  H140     1.0000 0.26070  0.90110  0.13760  Biso   1.000  H
  H141     1.0000 0.71220  0.87480  0.10650  Biso   1.000  H
  H142     1.0000 0.80340  0.83180  0.06440  Biso   1.000  H
  H143     1.0000 0.53410  0.80420  0.02210  Biso   1.000  H
  H144     1.0000 0.42980  0.83360  0.06340  Biso   1.000  H
  Zn5      1.0000 0.74361  0.25639  0.25000  Biso   1.000  Zn
  Zn6      1.0000 0.25639  0.74361  0.75000  Biso   1.000  Zn
  Zn7      1.0000 0.24361  0.24361  0.50000  Biso   1.000  Zn
  Zn8      1.0000 0.75639  0.75639  0.00000  Biso   1.000  Zn
