data_image0
_cell_length_a       9.4442
_cell_length_b       15.449
_cell_length_c       9.5719
_cell_angle_alpha    90
_cell_angle_beta     93.268
_cell_angle_gamma    90

_symmetry_space_group_name_H-M    "P 1"
_symmetry_int_tables_number       1

loop_
  _symmetry_equiv_pos_as_xyz
  'x, y, z'

loop_
  _atom_site_label
  _atom_site_occupancy
  _atom_site_fract_x
  _atom_site_fract_y
  _atom_site_fract_z
  _atom_site_thermal_displace_type
  _atom_site_B_iso_or_equiv
  _atom_site_type_symbol
  U1       1.0000 0.45078  0.22963  0.19832  Biso   1.000  U
  P1       1.0000 0.20300  0.20140  0.96830  Biso   1.000  P
  O1       1.0000 0.36450  0.20110  0.94930  Biso   1.000  O
  O2       1.0000 0.19610  0.23110  0.11760  Biso   1.000  O
  O3       1.0000 0.12480  0.26470  0.86480  Biso   1.000  O
  O4       1.0000 0.14760  0.10920  0.94640  Biso   1.000  O
  U2       1.0000 0.95078  0.72963  0.69832  Biso   1.000  U
  P2       1.0000 0.70300  0.70140  0.46830  Biso   1.000  P
  O5       1.0000 0.86450  0.70110  0.44930  Biso   1.000  O
  O6       1.0000 0.69610  0.73110  0.61760  Biso   1.000  O
  O7       1.0000 0.62480  0.76470  0.36480  Biso   1.000  O
  O8       1.0000 0.64760  0.60920  0.44640  Biso   1.000  O
  U3       1.0000 0.54922  0.22963  0.80168  Biso   1.000  U
  P3       1.0000 0.79700  0.20140  0.03170  Biso   1.000  P
  O9       1.0000 0.63550  0.20110  0.05070  Biso   1.000  O
  O10      1.0000 0.80390  0.23110  0.88240  Biso   1.000  O
  O11      1.0000 0.87520  0.26470  0.13520  Biso   1.000  O
  O12      1.0000 0.85240  0.10920  0.05360  Biso   1.000  O
  U4       1.0000 0.04922  0.72963  0.30168  Biso   1.000  U
  P4       1.0000 0.29700  0.70140  0.53170  Biso   1.000  P
  O13      1.0000 0.13550  0.70110  0.55070  Biso   1.000  O
  O14      1.0000 0.30390  0.73110  0.38240  Biso   1.000  O
  O15      1.0000 0.37520  0.76470  0.63520  Biso   1.000  O
  O16      1.0000 0.35240  0.60920  0.55360  Biso   1.000  O
  U5       1.0000 0.54922  0.77037  0.80168  Biso   1.000  U
  P5       1.0000 0.79700  0.79860  0.03170  Biso   1.000  P
  O17      1.0000 0.63550  0.79890  0.05070  Biso   1.000  O
  O18      1.0000 0.80390  0.76890  0.88240  Biso   1.000  O
  O19      1.0000 0.87520  0.73530  0.13520  Biso   1.000  O
  O20      1.0000 0.85240  0.89080  0.05360  Biso   1.000  O
  U6       1.0000 0.04922  0.27037  0.30168  Biso   1.000  U
  P6       1.0000 0.29700  0.29860  0.53170  Biso   1.000  P
  O21      1.0000 0.13550  0.29890  0.55070  Biso   1.000  O
  O22      1.0000 0.30390  0.26890  0.38240  Biso   1.000  O
  O23      1.0000 0.37520  0.23530  0.63520  Biso   1.000  O
  O24      1.0000 0.35240  0.39080  0.55360  Biso   1.000  O
  U7       1.0000 0.45078  0.77037  0.19832  Biso   1.000  U
  P7       1.0000 0.20300  0.79860  0.96830  Biso   1.000  P
  O25      1.0000 0.36450  0.79890  0.94930  Biso   1.000  O
  O26      1.0000 0.19610  0.76890  0.11760  Biso   1.000  O
  O27      1.0000 0.12480  0.73530  0.86480  Biso   1.000  O
  O28      1.0000 0.14760  0.89080  0.94640  Biso   1.000  O
  U8       1.0000 0.95078  0.27037  0.69832  Biso   1.000  U
  P8       1.0000 0.70300  0.29860  0.46830  Biso   1.000  P
  O29      1.0000 0.86450  0.29890  0.44930  Biso   1.000  O
  O30      1.0000 0.69610  0.26890  0.61760  Biso   1.000  O
  O31      1.0000 0.62480  0.23530  0.36480  Biso   1.000  O
  O32      1.0000 0.64760  0.39080  0.44640  Biso   1.000  O
  U9       1.0000 0.00000  0.00000  0.00000  Biso   1.000  U
  U10      1.0000 0.50000  0.50000  0.50000  Biso   1.000  U
