data_ECOROD_clean
_audit_creation_date              2014-07-02
_audit_creation_method            'Materials Studio'
_symmetry_space_group_name_H-M    'P1'
_symmetry_Int_Tables_number       1
_symmetry_cell_setting            triclinic
loop_
_symmetry_equiv_pos_as_xyz
  x,y,z
_cell_length_a                    7.7990
_cell_length_b                    9.2120
_cell_length_c                    10.7840
_cell_angle_alpha                 107.5950
_cell_angle_beta                  92.8770
_cell_angle_gamma                 110.2480
loop_
_atom_site_label
_atom_site_type_symbol
_atom_site_fract_x
_atom_site_fract_y
_atom_site_fract_z
_atom_site_U_iso_or_equiv
_atom_site_adp_type
_atom_site_occupancy
Co1    Co    0.34848   0.85916   0.87049   0.01267  Uiso   1.00
Co2    Co    0.65152   0.14084   0.12951   0.01267  Uiso   1.00
Co3    Co    0.00000   0.00000   0.00000   0.01267  Uiso   1.00
H1     H     0.67650   0.01840   0.58830   0.01267  Uiso   1.00
H2     H     0.87800   0.14580   0.64300   0.01267  Uiso   1.00
H3     H     0.82350   0.47800   0.56930   0.01267  Uiso   1.00
H4     H     0.96870   0.42810   0.63110   0.01267  Uiso   1.00
H5     H     0.93510   0.39220   0.86220   0.01267  Uiso   1.00
H6     H     0.76130   0.40730   0.92000   0.01267  Uiso   1.00
H7     H     0.15660   0.00360   0.78410   0.01267  Uiso   1.00
H8     H     0.30330   0.13660   0.90420   0.01267  Uiso   1.00
H9     H     0.32350   0.98160   0.41170   0.01267  Uiso   1.00
H10    H     0.12200   0.85420   0.35700   0.01267  Uiso   1.00
H11    H     0.17650   0.52200   0.43070   0.01267  Uiso   1.00
H12    H     0.03130   0.57190   0.36890   0.01267  Uiso   1.00
H13    H     0.06490   0.60780   0.13780   0.01267  Uiso   1.00
H14    H     0.23870   0.59270   0.08000   0.01267  Uiso   1.00
H15    H     0.84340   0.99640   0.21590   0.01267  Uiso   1.00
H16    H     0.69670   0.86340   0.09580   0.01267  Uiso   1.00
C1     C     0.69840   0.18800   0.76870   0.01267  Uiso   1.00
C2     C     0.75090   0.13140   0.63280   0.01267  Uiso   1.00
C3     C     0.71830   0.23320   0.55200   0.01267  Uiso   1.00
C4     C     0.84230   0.41570   0.62100   0.01267  Uiso   1.00
C5     C     0.79170   0.47850   0.75760   0.01267  Uiso   1.00
C6     C     0.80790   0.37390   0.84090   0.01267  Uiso   1.00
C7     C     0.74010   0.10060   0.85810   0.01267  Uiso   1.00
C8     C     0.74900   0.17410   0.41060   0.01267  Uiso   1.00
C9     C     0.92320   0.65570   0.83190   0.01267  Uiso   1.00
C10    C     0.30160   0.81200   0.23130   0.01267  Uiso   1.00
C11    C     0.24910   0.86860   0.36720   0.01267  Uiso   1.00
C12    C     0.28170   0.76680   0.44800   0.01267  Uiso   1.00
C13    C     0.15770   0.58430   0.37900   0.01267  Uiso   1.00
C14    C     0.20830   0.52150   0.24240   0.01267  Uiso   1.00
C15    C     0.19210   0.62610   0.15910   0.01267  Uiso   1.00
C16    C     0.25990   0.89940   0.14190   0.01267  Uiso   1.00
C17    C     0.25100   0.82590   0.58940   0.01267  Uiso   1.00
C18    C     0.07680   0.34430   0.16810   0.01267  Uiso   1.00
O1     O     0.89590   0.09280   0.87050   0.01267  Uiso   1.00
O2     O     0.61560   0.04700   0.92380   0.01267  Uiso   1.00
O3     O     0.86950   0.11390   0.38350   0.01267  Uiso   1.00
O4     O     0.64810   0.19110   0.32540   0.01267  Uiso   1.00
O5     O     0.85390   0.76220   0.87850   0.01267  Uiso   1.00
O6     O     0.09320   0.68200   0.84670   0.01267  Uiso   1.00
O7     O     0.21390   0.02700   0.87150   0.01267  Uiso   1.00
O8     O     0.10410   0.90720   0.12950   0.01267  Uiso   1.00
O9     O     0.38440   0.95300   0.07620   0.01267  Uiso   1.00
O10    O     0.13050   0.88610   0.61650   0.01267  Uiso   1.00
O11    O     0.35190   0.80890   0.67460   0.01267  Uiso   1.00
O12    O     0.14610   0.23780   0.12150   0.01267  Uiso   1.00
O13    O     0.90680   0.31800   0.15330   0.01267  Uiso   1.00
O14    O     0.78610   0.97300   0.12850   0.01267  Uiso   1.00
