data_ECUCOV_clean
_audit_creation_date              2014-07-02
_audit_creation_method            'Materials Studio'
_symmetry_space_group_name_H-M    'P1'
_symmetry_Int_Tables_number       1
_symmetry_cell_setting            triclinic
loop_
_symmetry_equiv_pos_as_xyz
  x,y,z
_cell_length_a                    7.6730
_cell_length_b                    9.6610
_cell_length_c                    10.5330
_cell_angle_alpha                 106.5400
_cell_angle_beta                  105.2800
_cell_angle_gamma                 100.6200
loop_
_atom_site_label
_atom_site_type_symbol
_atom_site_fract_x
_atom_site_fract_y
_atom_site_fract_z
_atom_site_U_iso_or_equiv
_atom_site_adp_type
_atom_site_occupancy
Tb1    Tb    0.75327   0.96764   0.54887   0.01267  Uiso   1.00
Tb2    Tb    0.24673   0.03236   0.45113   0.01267  Uiso   1.00
H1     H     0.45300   0.37500   0.34450   0.01267  Uiso   1.00
H2     H     0.46280   0.19820   0.95050   0.01267  Uiso   1.00
H3     H     0.18410   0.51020   0.03660   0.01267  Uiso   1.00
H4     H     0.15190   0.60190   0.26420   0.01267  Uiso   1.00
H5     H     0.22490   0.52770   0.37870   0.01267  Uiso   1.00
H6     H     0.63260   0.12380   0.12040   0.01267  Uiso   1.00
H7     H     0.73590   0.26260   0.26430   0.01267  Uiso   1.00
H8     H     0.22910   0.43220   0.80970   0.01267  Uiso   1.00
H9     H     0.36200   0.32510   0.78380   0.01267  Uiso   1.00
H10    H     0.54700   0.62500   0.65550   0.01267  Uiso   1.00
H11    H     0.53720   0.80180   0.04950   0.01267  Uiso   1.00
H12    H     0.81590   0.48980   0.96340   0.01267  Uiso   1.00
H13    H     0.84810   0.39810   0.73580   0.01267  Uiso   1.00
H14    H     0.77510   0.47230   0.62130   0.01267  Uiso   1.00
H15    H     0.36740   0.87620   0.87960   0.01267  Uiso   1.00
H16    H     0.26410   0.73740   0.73570   0.01267  Uiso   1.00
H17    H     0.77090   0.56780   0.19030   0.01267  Uiso   1.00
H18    H     0.63800   0.67490   0.21620   0.01267  Uiso   1.00
C1     C     0.30910   0.45890   0.20600   0.01267  Uiso   1.00
C2     C     0.41890   0.36990   0.24940   0.01267  Uiso   1.00
C3     C     0.47860   0.27390   0.15510   0.01267  Uiso   1.00
C4     C     0.42380   0.26460   0.01580   0.01267  Uiso   1.00
C5     C     0.31140   0.35200   0.97000   0.01267  Uiso   1.00
C6     C     0.25770   0.44900   0.06630   0.01267  Uiso   1.00
C7     C     0.26100   0.57330   0.31300   0.01267  Uiso   1.00
C8     C     0.42610   0.71300   0.39540   0.01267  Uiso   1.00
C9     C     0.61310   0.18870   0.20400   0.01267  Uiso   1.00
C10    C     0.55630   0.09080   0.28450   0.01267  Uiso   1.00
C11    C     0.25530   0.33790   0.81780   0.01267  Uiso   1.00
C12    C     0.08450   0.20770   0.72510   0.01267  Uiso   1.00
C13    C     0.69090   0.54110   0.79400   0.01267  Uiso   1.00
C14    C     0.58110   0.63010   0.75060   0.01267  Uiso   1.00
C15    C     0.52140   0.72610   0.84490   0.01267  Uiso   1.00
C16    C     0.57620   0.73540   0.98420   0.01267  Uiso   1.00
C17    C     0.68860   0.64800   0.03000   0.01267  Uiso   1.00
C18    C     0.74230   0.55100   0.93370   0.01267  Uiso   1.00
C19    C     0.73900   0.42670   0.68700   0.01267  Uiso   1.00
C20    C     0.57390   0.28700   0.60460   0.01267  Uiso   1.00
C21    C     0.38690   0.81130   0.79600   0.01267  Uiso   1.00
C22    C     0.44370   0.90920   0.71550   0.01267  Uiso   1.00
C23    C     0.74470   0.66210   0.18220   0.01267  Uiso   1.00
C24    C     0.91550   0.79230   0.27490   0.01267  Uiso   1.00
O1     O     0.58790   0.70150   0.44310   0.01267  Uiso   1.00
O2     O     0.40100   0.84300   0.41640   0.01267  Uiso   1.00
O3     O     0.39370   0.06690   0.28920   0.01267  Uiso   1.00
O4     O     0.68420   0.03950   0.34300   0.01267  Uiso   1.00
O5     O     0.06520   0.13870   0.59630   0.01267  Uiso   1.00
O6     O     0.95710   0.16910   0.77200   0.01267  Uiso   1.00
O7     O     0.41210   0.29850   0.55690   0.01267  Uiso   1.00
O8     O     0.59900   0.15700   0.58360   0.01267  Uiso   1.00
O9     O     0.60630   0.93310   0.71080   0.01267  Uiso   1.00
O10    O     0.31580   0.96050   0.65700   0.01267  Uiso   1.00
O11    O     0.93480   0.86130   0.40370   0.01267  Uiso   1.00
O12    O     0.04290   0.83090   0.22800   0.01267  Uiso   1.00
