data_ECUDOX_clean
_audit_creation_date              2014-07-02
_audit_creation_method            'Materials Studio'
_symmetry_space_group_name_H-M    'P1'
_symmetry_Int_Tables_number       1
_symmetry_cell_setting            triclinic
loop_
_symmetry_equiv_pos_as_xyz
  x,y,z
_cell_length_a                    9.5115
_cell_length_b                    12.9200
_cell_length_c                    12.9200
_cell_angle_alpha                 91.9819
_cell_angle_beta                  90.0000
_cell_angle_gamma                 90.0000
loop_
_atom_site_label
_atom_site_type_symbol
_atom_site_fract_x
_atom_site_fract_y
_atom_site_fract_z
_atom_site_U_iso_or_equiv
_atom_site_adp_type
_atom_site_occupancy
U1     U     0.77706   0.68040   0.09918   0.01267  Uiso   1.00
U2     U     0.27706   0.31960   0.90082   0.01267  Uiso   1.00
U3     U     0.27706   0.90082   0.31960   0.01267  Uiso   1.00
U4     U     0.77706   0.09918   0.68040   0.01267  Uiso   1.00
U5     U     0.94812   0.20613   0.20613   0.01267  Uiso   1.00
U6     U     0.44812   0.79387   0.79387   0.01267  Uiso   1.00
P1     P     0.90430   0.22989   0.92781   0.01267  Uiso   1.00
P2     P     0.97060   0.43029   0.03619   0.01267  Uiso   1.00
P3     P     0.40430   0.77011   0.07219   0.01267  Uiso   1.00
P4     P     0.47060   0.56971   0.96381   0.01267  Uiso   1.00
P5     P     0.40430   0.07219   0.77011   0.01267  Uiso   1.00
P6     P     0.47060   0.96381   0.56971   0.01267  Uiso   1.00
P7     P     0.90430   0.92781   0.22989   0.01267  Uiso   1.00
P8     P     0.97060   0.03619   0.43029   0.01267  Uiso   1.00
H1     H     0.95250   0.41920   0.81220   0.01267  Uiso   1.00
H2     H     0.79670   0.38560   0.79020   0.01267  Uiso   1.00
H3     H     0.82820   0.49030   0.85070   0.01267  Uiso   1.00
H4     H     0.69060   0.42930   0.99730   0.01267  Uiso   1.00
H5     H     0.45250   0.58080   0.18780   0.01267  Uiso   1.00
H6     H     0.29670   0.61440   0.20980   0.01267  Uiso   1.00
H7     H     0.32820   0.50970   0.14930   0.01267  Uiso   1.00
H8     H     0.19060   0.57070   0.00270   0.01267  Uiso   1.00
H9     H     0.45250   0.18780   0.58080   0.01267  Uiso   1.00
H10    H     0.29670   0.20980   0.61440   0.01267  Uiso   1.00
H11    H     0.32820   0.14930   0.50970   0.01267  Uiso   1.00
H12    H     0.19060   0.00270   0.57070   0.01267  Uiso   1.00
H13    H     0.95250   0.81220   0.41920   0.01267  Uiso   1.00
H14    H     0.79670   0.79020   0.38560   0.01267  Uiso   1.00
H15    H     0.82820   0.85070   0.49030   0.01267  Uiso   1.00
H16    H     0.69060   0.99730   0.42930   0.01267  Uiso   1.00
C1     C     0.85500   0.36440   0.94040   0.01267  Uiso   1.00
C2     C     0.85840   0.42000   0.83920   0.01267  Uiso   1.00
C3     C     0.35500   0.63560   0.05960   0.01267  Uiso   1.00
C4     C     0.35840   0.58000   0.16080   0.01267  Uiso   1.00
C5     C     0.35500   0.05960   0.63560   0.01267  Uiso   1.00
C6     C     0.35840   0.16080   0.58000   0.01267  Uiso   1.00
C7     C     0.85500   0.94040   0.36440   0.01267  Uiso   1.00
C8     C     0.85840   0.83920   0.42000   0.01267  Uiso   1.00
O1     O     0.90970   0.53560   0.05740   0.01267  Uiso   1.00
O2     O     0.81360   0.17790   0.84510   0.01267  Uiso   1.00
O3     O     0.88560   0.17830   0.03190   0.01267  Uiso   1.00
O4     O     0.11450   0.43580   0.98360   0.01267  Uiso   1.00
O5     O     0.97210   0.36650   0.13510   0.01267  Uiso   1.00
O6     O     0.05850   0.23310   0.89510   0.01267  Uiso   1.00
O7     O     0.71150   0.36890   0.98310   0.01267  Uiso   1.00
O8     O     0.40970   0.46440   0.94260   0.01267  Uiso   1.00
O9     O     0.31360   0.82210   0.15490   0.01267  Uiso   1.00
O10    O     0.38560   0.82170   0.96810   0.01267  Uiso   1.00
O11    O     0.61450   0.56420   0.01640   0.01267  Uiso   1.00
O12    O     0.47210   0.63350   0.86490   0.01267  Uiso   1.00
O13    O     0.55850   0.76690   0.10490   0.01267  Uiso   1.00
O14    O     0.21150   0.63110   0.01690   0.01267  Uiso   1.00
O15    O     0.40970   0.94260   0.46440   0.01267  Uiso   1.00
O16    O     0.31360   0.15490   0.82210   0.01267  Uiso   1.00
O17    O     0.38560   0.96810   0.82170   0.01267  Uiso   1.00
O18    O     0.61450   0.01640   0.56420   0.01267  Uiso   1.00
O19    O     0.47210   0.86490   0.63350   0.01267  Uiso   1.00
O20    O     0.55850   0.10490   0.76690   0.01267  Uiso   1.00
O21    O     0.21150   0.01690   0.63110   0.01267  Uiso   1.00
O22    O     0.90970   0.05740   0.53560   0.01267  Uiso   1.00
O23    O     0.81360   0.84510   0.17790   0.01267  Uiso   1.00
O24    O     0.88560   0.03190   0.17830   0.01267  Uiso   1.00
O25    O     0.11450   0.98360   0.43580   0.01267  Uiso   1.00
O26    O     0.97210   0.13510   0.36650   0.01267  Uiso   1.00
O27    O     0.05850   0.89510   0.23310   0.01267  Uiso   1.00
O28    O     0.71150   0.98310   0.36890   0.01267  Uiso   1.00
