data_ECUDEM_clean
_audit_creation_date              2014-07-02
_audit_creation_method            'Materials Studio'
_symmetry_space_group_name_H-M    'P1'
_symmetry_Int_Tables_number       1
_symmetry_cell_setting            triclinic
loop_
_symmetry_equiv_pos_as_xyz
  x,y,z
_cell_length_a                    8.4310
_cell_length_b                    10.8410
_cell_length_c                    11.1140
_cell_angle_alpha                 64.4300
_cell_angle_beta                  80.4400
_cell_angle_gamma                 73.8200
loop_
_atom_site_label
_atom_site_type_symbol
_atom_site_fract_x
_atom_site_fract_y
_atom_site_fract_z
_atom_site_U_iso_or_equiv
_atom_site_adp_type
_atom_site_occupancy
Sm1    Sm    0.74862   0.00371   0.00223   0.01267  Uiso   1.00
Sm2    Sm    0.25138   0.99629   0.99777   0.01267  Uiso   1.00
H1     H     0.75080   0.95380   0.51880   0.01267  Uiso   1.00
H2     H     0.09760   0.60620   0.52030   0.01267  Uiso   1.00
H3     H     0.76270   0.56940   0.82410   0.01267  Uiso   1.00
H4     H     0.52750   0.76200   0.81580   0.01267  Uiso   1.00
H5     H     0.50890   0.90840   0.68800   0.01267  Uiso   1.00
H6     H     0.02290   0.96440   0.37560   0.01267  Uiso   1.00
H7     H     0.11890   0.82560   0.35200   0.01267  Uiso   1.00
H8     H     0.06720   0.37370   0.67500   0.01267  Uiso   1.00
H9     H     0.93050   0.35440   0.79540   0.01267  Uiso   1.00
H10    H     0.24920   0.04620   0.48120   0.01267  Uiso   1.00
H11    H     0.90240   0.39380   0.47970   0.01267  Uiso   1.00
H12    H     0.23730   0.43060   0.17590   0.01267  Uiso   1.00
H13    H     0.47250   0.23800   0.18420   0.01267  Uiso   1.00
H14    H     0.49110   0.09160   0.31200   0.01267  Uiso   1.00
H15    H     0.97710   0.03560   0.62440   0.01267  Uiso   1.00
H16    H     0.88110   0.17440   0.64800   0.01267  Uiso   1.00
H17    H     0.93280   0.62630   0.32500   0.01267  Uiso   1.00
H18    H     0.06950   0.64560   0.20460   0.01267  Uiso   1.00
C1     C     0.73100   0.76800   0.68280   0.01267  Uiso   1.00
C2     C     0.79700   0.85550   0.55910   0.01267  Uiso   1.00
C3     C     0.93200   0.79100   0.49920   0.01267  Uiso   1.00
C4     C     0.00200   0.64700   0.56100   0.01267  Uiso   1.00
C5     C     0.93400   0.56100   0.68060   0.01267  Uiso   1.00
C6     C     0.80500   0.62500   0.73900   0.01267  Uiso   1.00
C7     C     0.58700   0.83500   0.75500   0.01267  Uiso   1.00
C8     C     0.63600   0.89900   0.83370   0.01267  Uiso   1.00
C9     C     0.00900   0.87900   0.37000   0.01267  Uiso   1.00
C10    C     0.88750   0.92300   0.25300   0.01267  Uiso   1.00
C11    C     0.01700   0.40600   0.74600   0.01267  Uiso   1.00
C12    C     0.14900   0.36700   0.84100   0.01267  Uiso   1.00
C13    C     0.26900   0.23200   0.31720   0.01267  Uiso   1.00
C14    C     0.20300   0.14450   0.44090   0.01267  Uiso   1.00
C15    C     0.06800   0.20900   0.50080   0.01267  Uiso   1.00
C16    C     0.99800   0.35300   0.43900   0.01267  Uiso   1.00
C17    C     0.06600   0.43900   0.31940   0.01267  Uiso   1.00
C18    C     0.19500   0.37500   0.26100   0.01267  Uiso   1.00
C19    C     0.41300   0.16500   0.24500   0.01267  Uiso   1.00
C20    C     0.36400   0.10100   0.16630   0.01267  Uiso   1.00
C21    C     0.99100   0.12100   0.63000   0.01267  Uiso   1.00
C22    C     0.11250   0.07700   0.74700   0.01267  Uiso   1.00
C23    C     0.98300   0.59400   0.25400   0.01267  Uiso   1.00
C24    C     0.85100   0.63300   0.15900   0.01267  Uiso   1.00
O1     O     0.52830   0.93880   0.91400   0.01267  Uiso   1.00
O2     O     0.78000   0.91310   0.82390   0.01267  Uiso   1.00
O3     O     0.70730   0.99050   0.22770   0.01267  Uiso   1.00
O4     O     0.00090   0.94880   0.13110   0.01267  Uiso   1.00
O5     O     0.21500   0.23720   0.88850   0.01267  Uiso   1.00
O6     O     0.18300   0.45800   0.86100   0.01267  Uiso   1.00
O7     O     0.47170   0.06120   0.08600   0.01267  Uiso   1.00
O8     O     0.22000   0.08690   0.17610   0.01267  Uiso   1.00
O9     O     0.29270   0.00950   0.77230   0.01267  Uiso   1.00
O10    O     0.99910   0.05120   0.86890   0.01267  Uiso   1.00
O11    O     0.78500   0.76280   0.11150   0.01267  Uiso   1.00
O12    O     0.81700   0.54200   0.13900   0.01267  Uiso   1.00
