data_ECUFEP_charged
_audit_creation_date              2014-07-02
_audit_creation_method            'Materials Studio'
_symmetry_space_group_name_H-M    'P1'
_symmetry_Int_Tables_number       1
_symmetry_cell_setting            triclinic
loop_
_symmetry_equiv_pos_as_xyz
  x,y,z
_cell_length_a                    9.4926
_cell_length_b                    12.9357
_cell_length_c                    12.9357
_cell_angle_alpha                 92.3739
_cell_angle_beta                  90.0000
_cell_angle_gamma                 90.0000
loop_
_atom_site_label
_atom_site_type_symbol
_atom_site_fract_x
_atom_site_fract_y
_atom_site_fract_z
_atom_site_U_iso_or_equiv
_atom_site_adp_type
_atom_site_occupancy
U1     U     0.26463   0.31813   0.90249   0.01267  Uiso   1.00
U2     U     0.76463   0.68187   0.09751   0.01267  Uiso   1.00
U3     U     0.76463   0.09751   0.68187   0.01267  Uiso   1.00
U4     U     0.26463   0.90249   0.31813   0.01267  Uiso   1.00
U5     U     0.09510   0.79109   0.79109   0.01267  Uiso   1.00
U6     U     0.59510   0.20891   0.20891   0.01267  Uiso   1.00
Ag1    Ag    0.08300   0.00340   0.00340   0.01267  Uiso   1.00
Ag2    Ag    0.58300   0.99660   0.99660   0.01267  Uiso   1.00
P1     P     0.13900   0.07000   0.77080   0.01267  Uiso   1.00
P2     P     0.07160   0.96230   0.57010   0.01267  Uiso   1.00
P3     P     0.63900   0.93000   0.22920   0.01267  Uiso   1.00
P4     P     0.57160   0.03770   0.42990   0.01267  Uiso   1.00
P5     P     0.63900   0.22920   0.93000   0.01267  Uiso   1.00
P6     P     0.57160   0.42990   0.03770   0.01267  Uiso   1.00
P7     P     0.13900   0.77080   0.07000   0.01267  Uiso   1.00
P8     P     0.07160   0.57010   0.96230   0.01267  Uiso   1.00
H1     H     0.08980   0.18810   0.58810   0.01267  Uiso   1.00
H2     H     0.21530   0.15390   0.51570   0.01267  Uiso   1.00
H3     H     0.24550   0.20830   0.62390   0.01267  Uiso   1.00
H4     H     0.33340   0.96520   0.58840   0.01267  Uiso   1.00
H5     H     0.58980   0.81190   0.41190   0.01267  Uiso   1.00
H6     H     0.71530   0.84610   0.48430   0.01267  Uiso   1.00
H7     H     0.74550   0.79170   0.37610   0.01267  Uiso   1.00
H8     H     0.83340   0.03480   0.41160   0.01267  Uiso   1.00
H9     H     0.58980   0.41190   0.81190   0.01267  Uiso   1.00
H10    H     0.71530   0.48430   0.84610   0.01267  Uiso   1.00
H11    H     0.74550   0.37610   0.79170   0.01267  Uiso   1.00
H12    H     0.83340   0.41160   0.03480   0.01267  Uiso   1.00
H13    H     0.08980   0.58810   0.18810   0.01267  Uiso   1.00
H14    H     0.21530   0.51570   0.15390   0.01267  Uiso   1.00
H15    H     0.24550   0.62390   0.20830   0.01267  Uiso   1.00
H16    H     0.33340   0.58840   0.96520   0.01267  Uiso   1.00
C1     C     0.18720   0.05710   0.63490   0.01267  Uiso   1.00
C2     C     0.18420   0.16140   0.58620   0.01267  Uiso   1.00
C3     C     0.68720   0.94290   0.36510   0.01267  Uiso   1.00
C4     C     0.68420   0.83860   0.41380   0.01267  Uiso   1.00
C5     C     0.68720   0.36510   0.94290   0.01267  Uiso   1.00
C6     C     0.68420   0.41380   0.83860   0.01267  Uiso   1.00
C7     C     0.18720   0.63490   0.05710   0.01267  Uiso   1.00
C8     C     0.18420   0.58620   0.16140   0.01267  Uiso   1.00
O1     O     0.30810   0.36840   0.78120   0.01267  Uiso   1.00
O2     O     0.01910   0.30140   0.84040   0.01267  Uiso   1.00
O3     O     0.22880   0.15360   0.82120   0.01267  Uiso   1.00
O4     O     0.15990   0.96590   0.81910   0.01267  Uiso   1.00
O5     O     0.92620   0.01390   0.56630   0.01267  Uiso   1.00
O6     O     0.06760   0.86560   0.63240   0.01267  Uiso   1.00
O7     O     0.98400   0.10030   0.76990   0.01267  Uiso   1.00
O8     O     0.21670   0.26660   0.02320   0.01267  Uiso   1.00
O9     O     0.13160   0.94180   0.46420   0.01267  Uiso   1.00
O10    O     0.33060   0.01400   0.63100   0.01267  Uiso   1.00
O11    O     0.80810   0.63160   0.21880   0.01267  Uiso   1.00
O12    O     0.51910   0.69860   0.15960   0.01267  Uiso   1.00
O13    O     0.72880   0.84640   0.17880   0.01267  Uiso   1.00
O14    O     0.65990   0.03410   0.18090   0.01267  Uiso   1.00
O15    O     0.42620   0.98610   0.43370   0.01267  Uiso   1.00
O16    O     0.56760   0.13440   0.36760   0.01267  Uiso   1.00
O17    O     0.48400   0.89970   0.23010   0.01267  Uiso   1.00
O18    O     0.71670   0.73340   0.97680   0.01267  Uiso   1.00
O19    O     0.63160   0.05820   0.53580   0.01267  Uiso   1.00
O20    O     0.83060   0.98600   0.36900   0.01267  Uiso   1.00
O21    O     0.80810   0.21880   0.63160   0.01267  Uiso   1.00
O22    O     0.51910   0.15960   0.69860   0.01267  Uiso   1.00
O23    O     0.72880   0.17880   0.84640   0.01267  Uiso   1.00
O24    O     0.65990   0.18090   0.03410   0.01267  Uiso   1.00
O25    O     0.42620   0.43370   0.98610   0.01267  Uiso   1.00
O26    O     0.56760   0.36760   0.13440   0.01267  Uiso   1.00
O27    O     0.48400   0.23010   0.89970   0.01267  Uiso   1.00
O28    O     0.71670   0.97680   0.73340   0.01267  Uiso   1.00
O29    O     0.63160   0.53580   0.05820   0.01267  Uiso   1.00
O30    O     0.83060   0.36900   0.98600   0.01267  Uiso   1.00
O31    O     0.30810   0.78120   0.36840   0.01267  Uiso   1.00
O32    O     0.01910   0.84040   0.30140   0.01267  Uiso   1.00
O33    O     0.22880   0.82120   0.15360   0.01267  Uiso   1.00
O34    O     0.15990   0.81910   0.96590   0.01267  Uiso   1.00
O35    O     0.92620   0.56630   0.01390   0.01267  Uiso   1.00
O36    O     0.06760   0.63240   0.86560   0.01267  Uiso   1.00
O37    O     0.98400   0.76990   0.10030   0.01267  Uiso   1.00
O38    O     0.21670   0.02320   0.26660   0.01267  Uiso   1.00
O39    O     0.13160   0.46420   0.94180   0.01267  Uiso   1.00
O40    O     0.33060   0.63100   0.01400   0.01267  Uiso   1.00
O41    O     0.92200   0.81910   0.81910   0.01267  Uiso   1.00
O42    O     0.01800   0.65870   0.65870   0.01267  Uiso   1.00
O43    O     0.27610   0.75900   0.75900   0.01267  Uiso   1.00
O44    O     0.17200   0.11520   0.11520   0.01267  Uiso   1.00
O45    O     0.31700   0.02410   0.02410   0.01267  Uiso   1.00
O46    O     0.42200   0.18090   0.18090   0.01267  Uiso   1.00
O47    O     0.51800   0.34130   0.34130   0.01267  Uiso   1.00
O48    O     0.77610   0.24100   0.24100   0.01267  Uiso   1.00
O49    O     0.67200   0.88480   0.88480   0.01267  Uiso   1.00
O50    O     0.81700   0.97590   0.97590   0.01267  Uiso   1.00
