data_image0
_cell_length_a       9.6164
_cell_length_b       18.5742
_cell_length_c       18.0889
_cell_angle_alpha    90
_cell_angle_beta     91.28
_cell_angle_gamma    90

_symmetry_space_group_name_H-M    "P 1"
_symmetry_int_tables_number       1

loop_
  _symmetry_equiv_pos_as_xyz
  'x, y, z'

loop_
  _atom_site_label
  _atom_site_occupancy
  _atom_site_fract_x
  _atom_site_fract_y
  _atom_site_fract_z
  _atom_site_thermal_displace_type
  _atom_site_B_iso_or_equiv
  _atom_site_type_symbol
  U1       1.0000 0.46957  0.19820  0.70820  Biso   1.000  U
  U2       1.0000 0.97216  0.26479  0.98971  Biso   1.000  U
  U3       1.0000 0.25264  0.46269  0.87480  Biso   1.000  U
  P1       1.0000 0.83580  0.15400  0.66400  Biso   1.000  P
  P2       1.0000 0.78140  0.16890  0.82910  Biso   1.000  P
  P3       1.0000 0.26780  0.26520  0.86800  Biso   1.000  P
  P4       1.0000 0.34320  0.33160  0.01270  Biso   1.000  P
  C1       1.0000 0.89370  0.19130  0.75300  Biso   1.000  C
  C2       1.0000 0.90300  0.27600  0.74710  Biso   1.000  C
  H1       1.0000 0.96160  0.28880  0.70690  Biso   1.000  H
  H2       1.0000 0.94150  0.29510  0.79240  Biso   1.000  H
  H3       1.0000 0.81170  0.29550  0.73850  Biso   1.000  H
  C3       1.0000 0.39190  0.26320  0.94570  Biso   1.000  C
  C4       1.0000 0.39000  0.18580  0.98060  Biso   1.000  C
  H4       1.0000 0.45460  0.18360  0.02160  Biso   1.000  H
  H5       1.0000 0.29790  0.17530  0.99740  Biso   1.000  H
  H6       1.0000 0.41530  0.15100  0.94400  Biso   1.000  H
  O1       1.0000 0.33340  0.21870  0.80930  Biso   1.000  O
  O2       1.0000 0.43460  0.32140  0.08110  Biso   1.000  O
  O3       1.0000 0.18880  0.31860  0.02770  Biso   1.000  O
  O4       1.0000 0.13230  0.23250  0.89520  Biso   1.000  O
  O5       1.0000 0.84420  0.20090  0.89880  Biso   1.000  O
  O6       1.0000 0.24880  0.34290  0.84460  Biso   1.000  O
  O7       1.0000 0.37140  0.40530  0.97690  Biso   1.000  O
  O8       1.0000 0.83620  0.07350  0.66970  Biso   1.000  O
  O9       1.0000 0.78500  0.08520  0.83330  Biso   1.000  O
  O10      1.0000 0.52840  0.28200  0.92060  Biso   1.000  O
  H7       1.0000 0.55100  0.25400  0.88780  Biso   1.000  H
  O11      1.0000 0.68900  0.18380  0.65220  Biso   1.000  O
  O12      1.0000 0.63750  0.19910  0.80910  Biso   1.000  O
  O13      1.0000 0.93480  0.18120  0.60640  Biso   1.000  O
  O14      1.0000 0.03180  0.16450  0.76910  Biso   1.000  O
  H8       1.0000 0.08600  0.18090  0.73910  Biso   1.000  H
  U4       1.0000 0.53043  0.69820  0.79180  Biso   1.000  U
  U5       1.0000 0.02784  0.76479  0.51029  Biso   1.000  U
  U6       1.0000 0.74736  0.96269  0.62520  Biso   1.000  U
  P5       1.0000 0.16420  0.65400  0.83600  Biso   1.000  P
  P6       1.0000 0.21860  0.66890  0.67090  Biso   1.000  P
  P7       1.0000 0.73220  0.76520  0.63200  Biso   1.000  P
  P8       1.0000 0.65680  0.83160  0.48730  Biso   1.000  P
  C5       1.0000 0.10630  0.69130  0.74700  Biso   1.000  C
  C6       1.0000 0.09700  0.77600  0.75290  Biso   1.000  C
  H9       1.0000 0.03840  0.78880  0.79310  Biso   1.000  H
  H10      1.0000 0.05850  0.79510  0.70760  Biso   1.000  H
  H11      1.0000 0.18830  0.79550  0.76150  Biso   1.000  H
  C7       1.0000 0.60810  0.76320  0.55430  Biso   1.000  C
  C8       1.0000 0.61000  0.68580  0.51940  Biso   1.000  C
  H12      1.0000 0.54540  0.68360  0.47840  Biso   1.000  H
  H13      1.0000 0.70210  0.67530  0.50260  Biso   1.000  H
  H14      1.0000 0.58470  0.65100  0.55600  Biso   1.000  H
  O15      1.0000 0.66660  0.71870  0.69070  Biso   1.000  O
  O16      1.0000 0.56540  0.82140  0.41890  Biso   1.000  O
  O17      1.0000 0.81120  0.81860  0.47230  Biso   1.000  O
  O18      1.0000 0.86770  0.73250  0.60480  Biso   1.000  O
  O19      1.0000 0.15580  0.70090  0.60120  Biso   1.000  O
  O20      1.0000 0.75120  0.84290  0.65540  Biso   1.000  O
  O21      1.0000 0.62860  0.90530  0.52310  Biso   1.000  O
  O22      1.0000 0.16380  0.57350  0.83030  Biso   1.000  O
  O23      1.0000 0.21500  0.58520  0.66670  Biso   1.000  O
  O24      1.0000 0.47160  0.78200  0.57940  Biso   1.000  O
  H15      1.0000 0.44900  0.75400  0.61220  Biso   1.000  H
  O25      1.0000 0.31100  0.68380  0.84780  Biso   1.000  O
  O26      1.0000 0.36250  0.69910  0.69090  Biso   1.000  O
  O27      1.0000 0.06520  0.68120  0.89360  Biso   1.000  O
  O28      1.0000 0.96820  0.66450  0.73090  Biso   1.000  O
  H16      1.0000 0.91400  0.68090  0.76090  Biso   1.000  H
  U7       1.0000 0.53043  0.80180  0.29180  Biso   1.000  U
  U8       1.0000 0.02784  0.73521  0.01029  Biso   1.000  U
  U9       1.0000 0.74736  0.53731  0.12520  Biso   1.000  U
  P9       1.0000 0.16420  0.84600  0.33600  Biso   1.000  P
  P10      1.0000 0.21860  0.83110  0.17090  Biso   1.000  P
  P11      1.0000 0.73220  0.73480  0.13200  Biso   1.000  P
  P12      1.0000 0.65680  0.66840  0.98730  Biso   1.000  P
  C9       1.0000 0.10630  0.80870  0.24700  Biso   1.000  C
  C10      1.0000 0.09700  0.72400  0.25290  Biso   1.000  C
  H17      1.0000 0.03840  0.71120  0.29310  Biso   1.000  H
  H18      1.0000 0.05850  0.70490  0.20760  Biso   1.000  H
  H19      1.0000 0.18830  0.70450  0.26150  Biso   1.000  H
  C11      1.0000 0.60810  0.73680  0.05430  Biso   1.000  C
  C12      1.0000 0.61000  0.81420  0.01940  Biso   1.000  C
  H20      1.0000 0.54540  0.81640  0.97840  Biso   1.000  H
  H21      1.0000 0.70210  0.82470  0.00260  Biso   1.000  H
  H22      1.0000 0.58470  0.84900  0.05600  Biso   1.000  H
  O29      1.0000 0.66660  0.78130  0.19070  Biso   1.000  O
  O30      1.0000 0.56540  0.67860  0.91890  Biso   1.000  O
  O31      1.0000 0.81120  0.68140  0.97230  Biso   1.000  O
  O32      1.0000 0.86770  0.76750  0.10480  Biso   1.000  O
  O33      1.0000 0.15580  0.79910  0.10120  Biso   1.000  O
  O34      1.0000 0.75120  0.65710  0.15540  Biso   1.000  O
  O35      1.0000 0.62860  0.59470  0.02310  Biso   1.000  O
  O36      1.0000 0.16380  0.92650  0.33030  Biso   1.000  O
  O37      1.0000 0.21500  0.91480  0.16670  Biso   1.000  O
  O38      1.0000 0.47160  0.71800  0.07940  Biso   1.000  O
  H23      1.0000 0.44900  0.74600  0.11220  Biso   1.000  H
  O39      1.0000 0.31100  0.81620  0.34780  Biso   1.000  O
  O40      1.0000 0.36250  0.80090  0.19090  Biso   1.000  O
  O41      1.0000 0.06520  0.81880  0.39360  Biso   1.000  O
  O42      1.0000 0.96820  0.83550  0.23090  Biso   1.000  O
  H24      1.0000 0.91400  0.81910  0.26090  Biso   1.000  H
  U10      1.0000 0.46957  0.30180  0.20820  Biso   1.000  U
  U11      1.0000 0.97216  0.23521  0.48971  Biso   1.000  U
  U12      1.0000 0.25264  0.03731  0.37480  Biso   1.000  U
  P13      1.0000 0.83580  0.34600  0.16400  Biso   1.000  P
  P14      1.0000 0.78140  0.33110  0.32910  Biso   1.000  P
  P15      1.0000 0.26780  0.23480  0.36800  Biso   1.000  P
  P16      1.0000 0.34320  0.16840  0.51270  Biso   1.000  P
  C13      1.0000 0.89370  0.30870  0.25300  Biso   1.000  C
  C14      1.0000 0.90300  0.22400  0.24710  Biso   1.000  C
  H25      1.0000 0.96160  0.21120  0.20690  Biso   1.000  H
  H26      1.0000 0.94150  0.20490  0.29240  Biso   1.000  H
  H27      1.0000 0.81170  0.20450  0.23850  Biso   1.000  H
  C15      1.0000 0.39190  0.23680  0.44570  Biso   1.000  C
  C16      1.0000 0.39000  0.31420  0.48060  Biso   1.000  C
  H28      1.0000 0.45460  0.31640  0.52160  Biso   1.000  H
  H29      1.0000 0.29790  0.32470  0.49740  Biso   1.000  H
  H30      1.0000 0.41530  0.34900  0.44400  Biso   1.000  H
  O43      1.0000 0.33340  0.28130  0.30930  Biso   1.000  O
  O44      1.0000 0.43460  0.17860  0.58110  Biso   1.000  O
  O45      1.0000 0.18880  0.18140  0.52770  Biso   1.000  O
  O46      1.0000 0.13230  0.26750  0.39520  Biso   1.000  O
  O47      1.0000 0.84420  0.29910  0.39880  Biso   1.000  O
  O48      1.0000 0.24880  0.15710  0.34460  Biso   1.000  O
  O49      1.0000 0.37140  0.09470  0.47690  Biso   1.000  O
  O50      1.0000 0.83620  0.42650  0.16970  Biso   1.000  O
  O51      1.0000 0.78500  0.41480  0.33330  Biso   1.000  O
  O52      1.0000 0.52840  0.21800  0.42060  Biso   1.000  O
  H31      1.0000 0.55100  0.24600  0.38780  Biso   1.000  H
  O53      1.0000 0.68900  0.31620  0.15220  Biso   1.000  O
  O54      1.0000 0.63750  0.30090  0.30910  Biso   1.000  O
  O55      1.0000 0.93480  0.31880  0.10640  Biso   1.000  O
  O56      1.0000 0.03180  0.33550  0.26910  Biso   1.000  O
  H32      1.0000 0.08600  0.31910  0.23910  Biso   1.000  H
