data_EDADET_clean
_audit_creation_date              2014-07-02
_audit_creation_method            'Materials Studio'
_symmetry_space_group_name_H-M    'P1'
_symmetry_Int_Tables_number       1
_symmetry_cell_setting            triclinic
loop_
_symmetry_equiv_pos_as_xyz
  x,y,z
_cell_length_a                    6.7981
_cell_length_b                    11.9780
_cell_length_c                    13.5150
_cell_angle_alpha                 90.0000
_cell_angle_beta                  100.1740
_cell_angle_gamma                 90.0000
loop_
_atom_site_label
_atom_site_type_symbol
_atom_site_fract_x
_atom_site_fract_y
_atom_site_fract_z
_atom_site_U_iso_or_equiv
_atom_site_adp_type
_atom_site_occupancy
Pr1    Pr    0.55628   0.67014   0.75651   0.01267  Uiso   1.00
Pr2    Pr    0.44372   0.17014   0.74349   0.01267  Uiso   1.00
Pr3    Pr    0.44372   0.32986   0.24349   0.01267  Uiso   1.00
Pr4    Pr    0.55628   0.82986   0.25651   0.01267  Uiso   1.00
H1     H     0.30100   0.93590   0.46060   0.01267  Uiso   1.00
H2     H     0.96200   0.80260   0.64520   0.01267  Uiso   1.00
H3     H     0.69900   0.43590   0.03940   0.01267  Uiso   1.00
H4     H     0.03800   0.30260   0.85480   0.01267  Uiso   1.00
H5     H     0.69900   0.06410   0.53940   0.01267  Uiso   1.00
H6     H     0.03800   0.19740   0.35480   0.01267  Uiso   1.00
H7     H     0.30100   0.56410   0.96060   0.01267  Uiso   1.00
H8     H     0.96200   0.69740   0.14520   0.01267  Uiso   1.00
C1     C     0.62400   0.76610   0.50530   0.01267  Uiso   1.00
C2     C     0.82900   0.81060   0.49930   0.01267  Uiso   1.00
C3     C     0.03100   0.87850   0.39210   0.01267  Uiso   1.00
C4     C     0.04600   0.89570   0.28360   0.01267  Uiso   1.00
C5     C     0.18300   0.90260   0.47160   0.01267  Uiso   1.00
C6     C     0.15600   0.87620   0.56730   0.01267  Uiso   1.00
C7     C     0.31700   0.90040   0.65700   0.01267  Uiso   1.00
C8     C     0.97900   0.82580   0.58160   0.01267  Uiso   1.00
C9     C     0.37600   0.26610   0.99470   0.01267  Uiso   1.00
C10    C     0.17100   0.31060   0.00070   0.01267  Uiso   1.00
C11    C     0.96900   0.37850   0.10790   0.01267  Uiso   1.00
C12    C     0.95400   0.39570   0.21640   0.01267  Uiso   1.00
C13    C     0.81700   0.40260   0.02840   0.01267  Uiso   1.00
C14    C     0.84400   0.37620   0.93270   0.01267  Uiso   1.00
C15    C     0.68300   0.40040   0.84300   0.01267  Uiso   1.00
C16    C     0.02100   0.32580   0.91840   0.01267  Uiso   1.00
C17    C     0.37600   0.23390   0.49470   0.01267  Uiso   1.00
C18    C     0.17100   0.18940   0.50070   0.01267  Uiso   1.00
C19    C     0.96900   0.12150   0.60790   0.01267  Uiso   1.00
C20    C     0.95400   0.10430   0.71640   0.01267  Uiso   1.00
C21    C     0.81700   0.09740   0.52840   0.01267  Uiso   1.00
C22    C     0.84400   0.12380   0.43270   0.01267  Uiso   1.00
C23    C     0.68300   0.09960   0.34300   0.01267  Uiso   1.00
C24    C     0.02100   0.17420   0.41840   0.01267  Uiso   1.00
C25    C     0.62400   0.73390   0.00530   0.01267  Uiso   1.00
C26    C     0.82900   0.68940   0.99930   0.01267  Uiso   1.00
C27    C     0.03100   0.62150   0.89210   0.01267  Uiso   1.00
C28    C     0.04600   0.60430   0.78360   0.01267  Uiso   1.00
C29    C     0.18300   0.59740   0.97160   0.01267  Uiso   1.00
C30    C     0.15600   0.62380   0.06730   0.01267  Uiso   1.00
C31    C     0.31700   0.59960   0.15700   0.01267  Uiso   1.00
C32    C     0.97900   0.67420   0.08160   0.01267  Uiso   1.00
N1     N     0.85500   0.83640   0.40590   0.01267  Uiso   1.00
N2     N     0.14500   0.33640   0.09410   0.01267  Uiso   1.00
N3     N     0.14500   0.16360   0.59410   0.01267  Uiso   1.00
N4     N     0.85500   0.66360   0.90590   0.01267  Uiso   1.00
O1     O     0.58280   0.74290   0.58950   0.01267  Uiso   1.00
O2     O     0.50480   0.75590   0.42290   0.01267  Uiso   1.00
O3     O     0.88370   0.89950   0.22170   0.01267  Uiso   1.00
O4     O     0.21690   0.90600   0.26120   0.01267  Uiso   1.00
O5     O     0.42110   0.98670   0.65470   0.01267  Uiso   1.00
O6     O     0.33500   0.83210   0.72840   0.01267  Uiso   1.00
O7     O     0.41720   0.24290   0.91050   0.01267  Uiso   1.00
O8     O     0.49520   0.25590   0.07710   0.01267  Uiso   1.00
O9     O     0.11630   0.39950   0.27830   0.01267  Uiso   1.00
O10    O     0.78310   0.40600   0.23880   0.01267  Uiso   1.00
O11    O     0.57890   0.48670   0.84530   0.01267  Uiso   1.00
O12    O     0.66500   0.33210   0.77160   0.01267  Uiso   1.00
O13    O     0.41720   0.25710   0.41050   0.01267  Uiso   1.00
O14    O     0.49520   0.24410   0.57710   0.01267  Uiso   1.00
O15    O     0.11630   0.10050   0.77830   0.01267  Uiso   1.00
O16    O     0.78310   0.09400   0.73880   0.01267  Uiso   1.00
O17    O     0.57890   0.01330   0.34530   0.01267  Uiso   1.00
O18    O     0.66500   0.16790   0.27160   0.01267  Uiso   1.00
O19    O     0.58280   0.75710   0.08950   0.01267  Uiso   1.00
O20    O     0.50480   0.74410   0.92290   0.01267  Uiso   1.00
O21    O     0.88370   0.60050   0.72170   0.01267  Uiso   1.00
O22    O     0.21690   0.59400   0.76120   0.01267  Uiso   1.00
O23    O     0.42110   0.51330   0.15470   0.01267  Uiso   1.00
O24    O     0.33500   0.66790   0.22840   0.01267  Uiso   1.00
