data_EDAVOV_clean
_audit_creation_date              2014-07-02
_audit_creation_method            'Materials Studio'
_symmetry_space_group_name_H-M    'P1'
_symmetry_Int_Tables_number       1
_symmetry_cell_setting            triclinic
loop_
_symmetry_equiv_pos_as_xyz
  x,y,z
_cell_length_a                    6.9875
_cell_length_b                    15.7563
_cell_length_c                    15.7563
_cell_angle_alpha                 62.1459
_cell_angle_beta                  81.4991
_cell_angle_gamma                 98.5009
loop_
_atom_site_label
_atom_site_type_symbol
_atom_site_fract_x
_atom_site_fract_y
_atom_site_fract_z
_atom_site_U_iso_or_equiv
_atom_site_adp_type
_atom_site_occupancy
Cu1    Cu    0.53900   0.43220   0.09829   0.01267  Uiso   1.00
Cu2    Cu    0.63729   0.09829   0.46951   0.01267  Uiso   1.00
Cu3    Cu    0.10680   0.46951   0.43220   0.01267  Uiso   1.00
Cu4    Cu    0.46100   0.56780   0.90171   0.01267  Uiso   1.00
Cu5    Cu    0.36271   0.90171   0.53049   0.01267  Uiso   1.00
Cu6    Cu    0.89320   0.53049   0.56780   0.01267  Uiso   1.00
H1     H     0.79760   0.34110   0.28430   0.01267  Uiso   1.00
H2     H     0.87890   0.30760   0.20940   0.01267  Uiso   1.00
H3     H     0.04090   0.48860   0.13900   0.01267  Uiso   1.00
H4     H     0.22540   0.65010   0.04670   0.01267  Uiso   1.00
H5     H     0.27850   0.81370   0.92920   0.01267  Uiso   1.00
H6     H     0.03790   0.86480   0.84320   0.01267  Uiso   1.00
H7     H     0.75330   0.75400   0.87010   0.01267  Uiso   1.00
H8     H     0.08190   0.28430   0.37460   0.01267  Uiso   1.00
H9     H     0.08830   0.20940   0.48300   0.01267  Uiso   1.00
H10    H     0.17990   0.13900   0.37240   0.01267  Uiso   1.00
H11    H     0.27210   0.04670   0.30320   0.01267  Uiso   1.00
H12    H     0.20770   0.92920   0.25710   0.01267  Uiso   1.00
H13    H     0.88110   0.84320   0.29200   0.01267  Uiso   1.00
H14    H     0.62340   0.87010   0.37590   0.01267  Uiso   1.00
H15    H     0.45650   0.37460   0.34110   0.01267  Uiso   1.00
H16    H     0.57130   0.48300   0.30760   0.01267  Uiso   1.00
H17    H     0.55230   0.37240   0.48860   0.01267  Uiso   1.00
H18    H     0.57530   0.30320   0.65010   0.01267  Uiso   1.00
H19    H     0.46480   0.25710   0.81370   0.01267  Uiso   1.00
H20    H     0.17310   0.29200   0.86480   0.01267  Uiso   1.00
H21    H     0.99930   0.37590   0.75400   0.01267  Uiso   1.00
H22    H     0.20240   0.65890   0.71570   0.01267  Uiso   1.00
H23    H     0.12110   0.69240   0.79060   0.01267  Uiso   1.00
H24    H     0.95910   0.51140   0.86100   0.01267  Uiso   1.00
H25    H     0.77460   0.34990   0.95330   0.01267  Uiso   1.00
H26    H     0.72150   0.18630   0.07080   0.01267  Uiso   1.00
H27    H     0.96210   0.13520   0.15680   0.01267  Uiso   1.00
H28    H     0.24670   0.24600   0.12990   0.01267  Uiso   1.00
H29    H     0.91810   0.71570   0.62540   0.01267  Uiso   1.00
H30    H     0.91170   0.79060   0.51700   0.01267  Uiso   1.00
H31    H     0.82010   0.86100   0.62760   0.01267  Uiso   1.00
H32    H     0.72790   0.95330   0.69680   0.01267  Uiso   1.00
H33    H     0.79230   0.07080   0.74290   0.01267  Uiso   1.00
H34    H     0.11890   0.15680   0.70800   0.01267  Uiso   1.00
H35    H     0.37660   0.12990   0.62410   0.01267  Uiso   1.00
H36    H     0.54350   0.62540   0.65890   0.01267  Uiso   1.00
H37    H     0.42870   0.51700   0.69240   0.01267  Uiso   1.00
H38    H     0.44770   0.62760   0.51140   0.01267  Uiso   1.00
H39    H     0.42470   0.69680   0.34990   0.01267  Uiso   1.00
H40    H     0.53520   0.74290   0.18630   0.01267  Uiso   1.00
H41    H     0.82690   0.70800   0.13520   0.01267  Uiso   1.00
H42    H     0.00070   0.62410   0.24600   0.01267  Uiso   1.00
C1     C     0.57242   0.26363   0.25807   0.01267  Uiso   1.00
C2     C     0.77428   0.33393   0.22859   0.01267  Uiso   1.00
C3     C     0.93324   0.50158   0.11076   0.01267  Uiso   1.00
C4     C     0.95477   0.60067   0.03096   0.01267  Uiso   1.00
C5     C     0.12986   0.67057   0.01149   0.01267  Uiso   1.00
C6     C     0.16202   0.76825   0.94159   0.01267  Uiso   1.00
C7     C     0.01819   0.79820   0.88973   0.01267  Uiso   1.00
C8     C     0.84748   0.73161   0.90567   0.01267  Uiso   1.00
C9     C     0.81214   0.63021   0.97479   0.01267  Uiso   1.00
C10    C     0.83049   0.25807   0.47830   0.01267  Uiso   1.00
C11    C     0.00287   0.22859   0.43748   0.01267  Uiso   1.00
C12    C     0.04400   0.11076   0.38766   0.01267  Uiso   1.00
C13    C     0.98573   0.03096   0.36837   0.01267  Uiso   1.00
C14    C     0.14135   0.01149   0.31794   0.01267  Uiso   1.00
C15    C     0.10361   0.94159   0.29016   0.01267  Uiso   1.00
C16    C     0.90792   0.88973   0.31207   0.01267  Uiso   1.00
C17    C     0.75315   0.90567   0.36272   0.01267  Uiso   1.00
C18    C     0.78693   0.97479   0.39500   0.01267  Uiso   1.00
C19    C     0.30879   0.47830   0.26363   0.01267  Uiso   1.00
C20    C     0.44035   0.43748   0.33393   0.01267  Uiso   1.00
C21    C     0.43166   0.38766   0.50158   0.01267  Uiso   1.00
C22    C     0.35410   0.36837   0.60067   0.01267  Uiso   1.00
C23    C     0.45929   0.31794   0.67057   0.01267  Uiso   1.00
C24    C     0.39377   0.29016   0.76825   0.01267  Uiso   1.00
C25    C     0.21999   0.31207   0.79820   0.01267  Uiso   1.00
C26    C     0.11587   0.36272   0.73161   0.01267  Uiso   1.00
C27    C     0.18193   0.39500   0.63021   0.01267  Uiso   1.00
C28    C     0.42758   0.73637   0.74193   0.01267  Uiso   1.00
C29    C     0.22572   0.66607   0.77141   0.01267  Uiso   1.00
C30    C     0.06676   0.49842   0.88924   0.01267  Uiso   1.00
C31    C     0.04523   0.39933   0.96904   0.01267  Uiso   1.00
C32    C     0.87014   0.32943   0.98851   0.01267  Uiso   1.00
C33    C     0.83798   0.23175   0.05841   0.01267  Uiso   1.00
C34    C     0.98181   0.20180   0.11027   0.01267  Uiso   1.00
C35    C     0.15252   0.26839   0.09433   0.01267  Uiso   1.00
C36    C     0.18786   0.36979   0.02521   0.01267  Uiso   1.00
C37    C     0.16951   0.74193   0.52170   0.01267  Uiso   1.00
C38    C     0.99713   0.77141   0.56252   0.01267  Uiso   1.00
C39    C     0.95600   0.88924   0.61234   0.01267  Uiso   1.00
C40    C     0.01427   0.96904   0.63163   0.01267  Uiso   1.00
C41    C     0.85865   0.98851   0.68206   0.01267  Uiso   1.00
C42    C     0.89639   0.05841   0.70984   0.01267  Uiso   1.00
C43    C     0.09208   0.11027   0.68793   0.01267  Uiso   1.00
C44    C     0.24685   0.09433   0.63728   0.01267  Uiso   1.00
C45    C     0.21307   0.02521   0.60500   0.01267  Uiso   1.00
C46    C     0.69121   0.52170   0.73637   0.01267  Uiso   1.00
C47    C     0.55965   0.56252   0.66607   0.01267  Uiso   1.00
C48    C     0.56834   0.61234   0.49842   0.01267  Uiso   1.00
C49    C     0.64590   0.63163   0.39933   0.01267  Uiso   1.00
C50    C     0.54071   0.68206   0.32943   0.01267  Uiso   1.00
C51    C     0.60623   0.70984   0.23175   0.01267  Uiso   1.00
C52    C     0.78001   0.68793   0.20180   0.01267  Uiso   1.00
C53    C     0.88413   0.63728   0.26839   0.01267  Uiso   1.00
C54    C     0.81807   0.60500   0.36979   0.01267  Uiso   1.00
N1     N     0.77822   0.43044   0.14558   0.01267  Uiso   1.00
N2     N     0.92380   0.14558   0.42398   0.01267  Uiso   1.00
N3     N     0.34778   0.42398   0.43044   0.01267  Uiso   1.00
N4     N     0.22178   0.56956   0.85442   0.01267  Uiso   1.00
N5     N     0.07620   0.85442   0.57602   0.01267  Uiso   1.00
N6     N     0.65222   0.57602   0.56956   0.01267  Uiso   1.00
O1     O     0.44942   0.29669   0.20683   0.01267  Uiso   1.00
O2     O     0.53531   0.17915   0.32962   0.01267  Uiso   1.00
O3     O     0.65089   0.56511   0.98514   0.01267  Uiso   1.00
O4     O     0.65625   0.20683   0.49648   0.01267  Uiso   1.00
O5     O     0.86493   0.32962   0.49123   0.01267  Uiso   1.00
O6     O     0.63603   0.98514   0.44975   0.01267  Uiso   1.00
O7     O     0.15273   0.49648   0.29669   0.01267  Uiso   1.00
O8     O     0.35616   0.49123   0.17915   0.01267  Uiso   1.00
O9     O     0.08578   0.44975   0.56511   0.01267  Uiso   1.00
O10    O     0.55058   0.70331   0.79317   0.01267  Uiso   1.00
O11    O     0.46469   0.82085   0.67038   0.01267  Uiso   1.00
O12    O     0.34911   0.43489   0.01486   0.01267  Uiso   1.00
O13    O     0.34375   0.79317   0.50352   0.01267  Uiso   1.00
O14    O     0.13507   0.67038   0.50877   0.01267  Uiso   1.00
O15    O     0.36397   0.01486   0.55025   0.01267  Uiso   1.00
O16    O     0.84727   0.50352   0.70331   0.01267  Uiso   1.00
O17    O     0.64384   0.50877   0.82085   0.01267  Uiso   1.00
O18    O     0.91422   0.55025   0.43489   0.01267  Uiso   1.00
