data_EDEPAG_clean
_audit_creation_date              2014-07-02
_audit_creation_method            'Materials Studio'
_symmetry_space_group_name_H-M    'P1'
_symmetry_Int_Tables_number       1
_symmetry_cell_setting            triclinic
loop_
_symmetry_equiv_pos_as_xyz
  x,y,z
_cell_length_a                    11.0552
_cell_length_b                    11.0713
_cell_length_c                    17.6488
_cell_angle_alpha                 93.0840
_cell_angle_beta                  104.4290
_cell_angle_gamma                 119.0320
loop_
_atom_site_label
_atom_site_type_symbol
_atom_site_fract_x
_atom_site_fract_y
_atom_site_fract_z
_atom_site_U_iso_or_equiv
_atom_site_adp_type
_atom_site_occupancy
Eu1    Eu    0.32056   0.39764   0.37876   0.01267  Uiso   1.00
Eu2    Eu    0.00114   0.10577   0.09493   0.01267  Uiso   1.00
Eu3    Eu    0.67944   0.60236   0.62124   0.01267  Uiso   1.00
Eu4    Eu    0.99886   0.89423   0.90507   0.01267  Uiso   1.00
H1     H     0.33200   0.92450   0.23360   0.01267  Uiso   1.00
H2     H     0.36580   0.73660   0.26380   0.01267  Uiso   1.00
H3     H     0.00940   0.46840   0.07500   0.01267  Uiso   1.00
H4     H     0.98080   0.65760   0.04190   0.01267  Uiso   1.00
H5     H     0.40260   0.32490   0.70540   0.01267  Uiso   1.00
H6     H     0.28160   0.14540   0.76910   0.01267  Uiso   1.00
H7     H     0.90650   0.97980   0.58360   0.01267  Uiso   1.00
H8     H     0.02790   0.15680   0.51690   0.01267  Uiso   1.00
H9     H     0.65410   0.18080   0.61280   0.01267  Uiso   1.00
H10    H     0.34240   0.02610   0.39700   0.01267  Uiso   1.00
H11    H     0.54570   0.54320   0.87770   0.01267  Uiso   1.00
H12    H     0.64890   0.67100   0.11640   0.01267  Uiso   1.00
H13    H     0.66800   0.07550   0.76640   0.01267  Uiso   1.00
H14    H     0.63420   0.26340   0.73620   0.01267  Uiso   1.00
H15    H     0.99060   0.53160   0.92500   0.01267  Uiso   1.00
H16    H     0.01920   0.34240   0.95810   0.01267  Uiso   1.00
H17    H     0.59740   0.67510   0.29460   0.01267  Uiso   1.00
H18    H     0.71840   0.85460   0.23090   0.01267  Uiso   1.00
H19    H     0.09350   0.02020   0.41640   0.01267  Uiso   1.00
H20    H     0.97210   0.84320   0.48310   0.01267  Uiso   1.00
H21    H     0.34590   0.81920   0.38720   0.01267  Uiso   1.00
H22    H     0.65760   0.97390   0.60300   0.01267  Uiso   1.00
H23    H     0.45430   0.45680   0.12230   0.01267  Uiso   1.00
H24    H     0.35110   0.32900   0.88360   0.01267  Uiso   1.00
C1     C     0.11710   0.92010   0.11860   0.01267  Uiso   1.00
C2     C     0.15120   0.80750   0.13600   0.01267  Uiso   1.00
C3     C     0.26710   0.83240   0.20130   0.01267  Uiso   1.00
C4     C     0.28730   0.72070   0.21910   0.01267  Uiso   1.00
C5     C     0.19150   0.58470   0.17090   0.01267  Uiso   1.00
C6     C     0.07600   0.56090   0.10650   0.01267  Uiso   1.00
C7     C     0.05750   0.67300   0.08770   0.01267  Uiso   1.00
C8     C     0.20460   0.46290   0.19680   0.01267  Uiso   1.00
C9     C     0.30120   0.37420   0.56080   0.01267  Uiso   1.00
C10    C     0.22690   0.26090   0.60680   0.01267  Uiso   1.00
C11    C     0.30250   0.25580   0.68070   0.01267  Uiso   1.00
C12    C     0.23020   0.14880   0.71810   0.01267  Uiso   1.00
C13    C     0.08290   0.04500   0.68260   0.01267  Uiso   1.00
C14    C     0.00680   0.04910   0.60780   0.01267  Uiso   1.00
C15    C     0.07820   0.15510   0.56870   0.01267  Uiso   1.00
C16    C     0.00750   0.92540   0.72190   0.01267  Uiso   1.00
C17    C     0.50340   0.26600   0.51060   0.01267  Uiso   1.00
C18    C     0.50090   0.12790   0.50440   0.01267  Uiso   1.00
C19    C     0.59190   0.10800   0.56650   0.01267  Uiso   1.00
C20    C     0.40780   0.01620   0.43900   0.01267  Uiso   1.00
C21    C     0.73700   0.77020   0.99500   0.01267  Uiso   1.00
C22    C     0.61500   0.62860   0.99790   0.01267  Uiso   1.00
C23    C     0.52710   0.52600   0.92700   0.01267  Uiso   1.00
C24    C     0.58740   0.60090   0.06890   0.01267  Uiso   1.00
C25    C     0.88290   0.07990   0.88140   0.01267  Uiso   1.00
C26    C     0.84880   0.19250   0.86400   0.01267  Uiso   1.00
C27    C     0.73290   0.16760   0.79870   0.01267  Uiso   1.00
C28    C     0.71270   0.27930   0.78090   0.01267  Uiso   1.00
C29    C     0.80850   0.41530   0.82910   0.01267  Uiso   1.00
C30    C     0.92400   0.43910   0.89350   0.01267  Uiso   1.00
C31    C     0.94250   0.32700   0.91230   0.01267  Uiso   1.00
C32    C     0.79540   0.53710   0.80320   0.01267  Uiso   1.00
C33    C     0.69880   0.62580   0.43920   0.01267  Uiso   1.00
C34    C     0.77310   0.73910   0.39320   0.01267  Uiso   1.00
C35    C     0.69750   0.74420   0.31930   0.01267  Uiso   1.00
C36    C     0.76980   0.85120   0.28190   0.01267  Uiso   1.00
C37    C     0.91710   0.95500   0.31740   0.01267  Uiso   1.00
C38    C     0.99320   0.95090   0.39220   0.01267  Uiso   1.00
C39    C     0.92180   0.84490   0.43130   0.01267  Uiso   1.00
C40    C     0.99250   0.07460   0.27810   0.01267  Uiso   1.00
C41    C     0.49660   0.73400   0.48940   0.01267  Uiso   1.00
C42    C     0.49910   0.87210   0.49560   0.01267  Uiso   1.00
C43    C     0.40810   0.89200   0.43350   0.01267  Uiso   1.00
C44    C     0.59220   0.98380   0.56100   0.01267  Uiso   1.00
C45    C     0.26300   0.22980   0.00500   0.01267  Uiso   1.00
C46    C     0.38500   0.37140   0.00210   0.01267  Uiso   1.00
C47    C     0.47290   0.47400   0.07300   0.01267  Uiso   1.00
C48    C     0.41260   0.39910   0.93110   0.01267  Uiso   1.00
O1     O     0.14430   0.01180   0.17480   0.01267  Uiso   1.00
O2     O     0.05570   0.91700   0.04660   0.01267  Uiso   1.00
O3     O     0.30560   0.48800   0.25820   0.01267  Uiso   1.00
O4     O     0.10980   0.34040   0.15340   0.01267  Uiso   1.00
O5     O     0.22830   0.36440   0.49030   0.01267  Uiso   1.00
O6     O     0.42950   0.47090   0.59830   0.01267  Uiso   1.00
O7     O     0.87900   0.82730   0.68240   0.01267  Uiso   1.00
O8     O     0.07830   0.93030   0.79280   0.01267  Uiso   1.00
O9     O     0.40510   0.26820   0.45530   0.01267  Uiso   1.00
O10    O     0.60440   0.36590   0.56580   0.01267  Uiso   1.00
O11    O     0.79090   0.87310   0.05400   0.01267  Uiso   1.00
O12    O     0.77860   0.77740   0.93440   0.01267  Uiso   1.00
O13    O     0.85570   0.98820   0.82520   0.01267  Uiso   1.00
O14    O     0.94430   0.08300   0.95340   0.01267  Uiso   1.00
O15    O     0.69440   0.51200   0.74180   0.01267  Uiso   1.00
O16    O     0.89020   0.65960   0.84660   0.01267  Uiso   1.00
O17    O     0.77170   0.63560   0.50970   0.01267  Uiso   1.00
O18    O     0.57050   0.52910   0.40170   0.01267  Uiso   1.00
O19    O     0.12100   0.17270   0.31760   0.01267  Uiso   1.00
O20    O     0.92170   0.06970   0.20720   0.01267  Uiso   1.00
O21    O     0.59490   0.73180   0.54470   0.01267  Uiso   1.00
O22    O     0.39560   0.63410   0.43420   0.01267  Uiso   1.00
O23    O     0.20910   0.12690   0.94600   0.01267  Uiso   1.00
O24    O     0.22140   0.22260   0.06560   0.01267  Uiso   1.00
