data_image0
_cell_length_a       8.2293
_cell_length_b       9.7386
_cell_length_c       9.7543
_cell_angle_alpha    60.741
_cell_angle_beta     72.357
_cell_angle_gamma    84.666

_symmetry_space_group_name_H-M    "P 1"
_symmetry_int_tables_number       1

loop_
  _symmetry_equiv_pos_as_xyz
  'x, y, z'

loop_
  _atom_site_label
  _atom_site_occupancy
  _atom_site_fract_x
  _atom_site_fract_y
  _atom_site_fract_z
  _atom_site_thermal_displace_type
  _atom_site_B_iso_or_equiv
  _atom_site_type_symbol
  Y1       1.0000 0.67040  0.84130  0.78680  Biso   1.000  Y
  O1       1.0000 0.69020  0.90680  0.98810  Biso   1.000  O
  O2       1.0000 0.47000  0.66050  0.03690  Biso   1.000  O
  O3       1.0000 0.88170  0.82840  0.56140  Biso   1.000  O
  O4       1.0000 0.56020  0.00820  0.15320  Biso   1.000  O
  O5       1.0000 0.46320  0.81200  0.67320  Biso   1.000  O
  O6       1.0000 0.08690  0.97200  0.32890  Biso   1.000  O
  O7       1.0000 0.32980  0.42230  0.18110  Biso   1.000  O
  O8       1.0000 0.34040  0.92170  0.47020  Biso   1.000  O
  C1       1.0000 0.44300  0.92350  0.54110  Biso   1.000  C
  C2       1.0000 0.57290  0.97600  0.03920  Biso   1.000  C
  C3       1.0000 0.99290  0.94350  0.46740  Biso   1.000  C
  C4       1.0000 0.44190  0.52400  0.06350  Biso   1.000  C
  Y2       1.0000 0.32960  0.15870  0.21320  Biso   1.000  Y
  O9       1.0000 0.30980  0.09320  0.01190  Biso   1.000  O
  O10      1.0000 0.53000  0.33950  0.96310  Biso   1.000  O
  O11      1.0000 0.11830  0.17160  0.43860  Biso   1.000  O
  O12      1.0000 0.43980  0.99180  0.84680  Biso   1.000  O
  O13      1.0000 0.53680  0.18800  0.32680  Biso   1.000  O
  O14      1.0000 0.91310  0.02800  0.67110  Biso   1.000  O
  O15      1.0000 0.67020  0.57770  0.81890  Biso   1.000  O
  O16      1.0000 0.65960  0.07830  0.52980  Biso   1.000  O
  C5       1.0000 0.55700  0.07650  0.45890  Biso   1.000  C
  C6       1.0000 0.42710  0.02400  0.96080  Biso   1.000  C
  C7       1.0000 0.00710  0.05650  0.53260  Biso   1.000  C
  C8       1.0000 0.55810  0.47600  0.93650  Biso   1.000  C
  N1       1.0000 0.98780  0.36550  0.65330  Biso   1.000  N
  C9       1.0000 0.83380  0.42210  0.58920  Biso   1.000  C
  C10      1.0000 0.15040  0.40860  0.51840  Biso   1.000  C
  C11      1.0000 0.29990  0.35000  0.58140  Biso   1.000  C
  H1       1.0000 0.99220  0.40810  0.71590  Biso   1.000  H
  H2       1.0000 0.97540  0.26000  0.71720  Biso   1.000  H
  H3       1.0000 0.82300  0.36950  0.52950  Biso   1.000  H
  H4       1.0000 0.73100  0.39430  0.68140  Biso   1.000  H
  H5       1.0000 0.14400  0.35840  0.45400  Biso   1.000  H
  H6       1.0000 0.28370  0.23770  0.65180  Biso   1.000  H
  H7       1.0000 0.40150  0.37470  0.49060  Biso   1.000  H
  H8       1.0000 0.31130  0.39950  0.64260  Biso   1.000  H
  N2       1.0000 0.01220  0.63450  0.34670  Biso   1.000  N
  C12      1.0000 0.16620  0.57790  0.41080  Biso   1.000  C
  C13      1.0000 0.84960  0.59140  0.48160  Biso   1.000  C
  C14      1.0000 0.70010  0.65000  0.41860  Biso   1.000  C
  H9       1.0000 0.00780  0.59190  0.28410  Biso   1.000  H
  H10      1.0000 0.02460  0.74000  0.28280  Biso   1.000  H
  H11      1.0000 0.17700  0.63050  0.47050  Biso   1.000  H
  H12      1.0000 0.26900  0.60570  0.31860  Biso   1.000  H
  H13      1.0000 0.85600  0.64160  0.54600  Biso   1.000  H
  H14      1.0000 0.71630  0.76230  0.34820  Biso   1.000  H
  H15      1.0000 0.59850  0.62530  0.50940  Biso   1.000  H
  H16      1.0000 0.68870  0.60050  0.35740  Biso   1.000  H
