data_EFEGOM_clean
_audit_creation_date              2014-07-02
_audit_creation_method            'Materials Studio'
_symmetry_space_group_name_H-M    'P1'
_symmetry_Int_Tables_number       1
_symmetry_cell_setting            triclinic
loop_
_symmetry_equiv_pos_as_xyz
  x,y,z
_cell_length_a                    11.3400
_cell_length_b                    19.2200
_cell_length_c                    13.7980
_cell_angle_alpha                 110.8200
_cell_angle_beta                  90.0000
_cell_angle_gamma                 90.0000
loop_
_atom_site_label
_atom_site_type_symbol
_atom_site_fract_x
_atom_site_fract_y
_atom_site_fract_z
_atom_site_U_iso_or_equiv
_atom_site_adp_type
_atom_site_occupancy
Fe1    Fe    0.99919   0.99866   0.99798   0.01267  Uiso   1.00
Fe2    Fe    0.49234   0.50051   0.00130   0.01267  Uiso   1.00
Fe3    Fe    0.00137   0.00013   0.74866   0.01267  Uiso   1.00
Fe4    Fe    0.49552   0.50090   0.75033   0.01267  Uiso   1.00
Fe5    Fe    0.99681   0.00092   0.49920   0.01267  Uiso   1.00
Fe6    Fe    0.50868   0.49984   0.50229   0.01267  Uiso   1.00
Fe7    Fe    0.99929   0.99988   0.24849   0.01267  Uiso   1.00
Fe8    Fe    0.50159   0.50000   0.25138   0.01267  Uiso   1.00
H1     H     0.67080   0.70097   0.82273   0.01267  Uiso   1.00
H2     H     0.76898   0.82473   0.88394   0.01267  Uiso   1.00
H3     H     0.32761   0.49156   0.87120   0.01267  Uiso   1.00
H4     H     0.22359   0.17784   0.81162   0.01267  Uiso   1.00
H5     H     0.31924   0.30259   0.87573   0.01267  Uiso   1.00
H6     H     0.69506   0.31286   0.93652   0.01267  Uiso   1.00
H7     H     0.80122   0.19127   0.87455   0.01267  Uiso   1.00
H8     H     0.17689   0.79805   0.92508   0.01267  Uiso   1.00
H9     H     0.27532   0.67438   0.86253   0.01267  Uiso   1.00
H10    H     0.84113   0.98646   0.87359   0.01267  Uiso   1.00
H11    H     0.32725   0.29740   0.67615   0.01267  Uiso   1.00
H12    H     0.22690   0.17408   0.61375   0.01267  Uiso   1.00
H13    H     0.66296   0.53102   0.64792   0.01267  Uiso   1.00
H14    H     0.81925   0.81001   0.67713   0.01267  Uiso   1.00
H15    H     0.72103   0.68611   0.61468   0.01267  Uiso   1.00
H16    H     0.27775   0.67670   0.55679   0.01267  Uiso   1.00
H17    H     0.17948   0.80084   0.61922   0.01267  Uiso   1.00
H18    H     0.80550   0.19570   0.56955   0.01267  Uiso   1.00
H19    H     0.70024   0.31767   0.63157   0.01267  Uiso   1.00
H20    H     0.61757   0.72095   0.33970   0.01267  Uiso   1.00
H21    H     0.71872   0.84385   0.40107   0.01267  Uiso   1.00
H22    H     0.34201   0.47838   0.36849   0.01267  Uiso   1.00
H23    H     0.22410   0.17733   0.30808   0.01267  Uiso   1.00
H24    H     0.32578   0.30027   0.37022   0.01267  Uiso   1.00
H25    H     0.73325   0.32599   0.43929   0.01267  Uiso   1.00
H26    H     0.82849   0.20097   0.37616   0.01267  Uiso   1.00
H27    H     0.17969   0.80270   0.43229   0.01267  Uiso   1.00
H28    H     0.27890   0.67875   0.37162   0.01267  Uiso   1.00
H29    H     0.83915   0.96729   0.35583   0.01267  Uiso   1.00
H30    H     0.32450   0.29716   0.18030   0.01267  Uiso   1.00
H31    H     0.22734   0.17285   0.11644   0.01267  Uiso   1.00
H32    H     0.65856   0.52499   0.13369   0.01267  Uiso   1.00
H33    H     0.77768   0.82184   0.18992   0.01267  Uiso   1.00
H34    H     0.67832   0.69832   0.12886   0.01267  Uiso   1.00
H35    H     0.29125   0.68213   0.06624   0.01267  Uiso   1.00
H36    H     0.19244   0.80614   0.12693   0.01267  Uiso   1.00
H37    H     0.83383   0.20488   0.07087   0.01267  Uiso   1.00
H38    H     0.73847   0.32976   0.13399   0.01267  Uiso   1.00
H39    H     0.16783   0.02845   0.64348   0.01267  Uiso   1.00
H40    H     0.16098   0.02498   0.13573   0.01267  Uiso   1.00
C1     C     0.66930   0.69252   0.97214   0.01267  Uiso   1.00
C2     C     0.69327   0.72838   0.90276   0.01267  Uiso   1.00
C3     C     0.74787   0.79697   0.93672   0.01267  Uiso   1.00
C4     C     0.61246   0.61841   0.93470   0.01267  Uiso   1.00
C5     C     0.22007   0.16838   0.96024   0.01267  Uiso   1.00
C6     C     0.24638   0.20461   0.89172   0.01267  Uiso   1.00
C7     C     0.29903   0.27369   0.92731   0.01267  Uiso   1.00
C8     C     0.15665   0.09664   0.92248   0.01267  Uiso   1.00
C9     C     0.69358   0.32233   0.78790   0.01267  Uiso   1.00
C10    C     0.71996   0.28650   0.85687   0.01267  Uiso   1.00
C11    C     0.77831   0.21932   0.82256   0.01267  Uiso   1.00
C12    C     0.63471   0.39550   0.82620   0.01267  Uiso   1.00
C13    C     0.17281   0.80634   0.77579   0.01267  Uiso   1.00
C14    C     0.19866   0.77056   0.84490   0.01267  Uiso   1.00
C15    C     0.25252   0.70200   0.81028   0.01267  Uiso   1.00
C16    C     0.11554   0.88021   0.81372   0.01267  Uiso   1.00
C17    C     0.33110   0.30599   0.52697   0.01267  Uiso   1.00
C18    C     0.30466   0.27028   0.59607   0.01267  Uiso   1.00
C19    C     0.24943   0.20200   0.56150   0.01267  Uiso   1.00
C20    C     0.38859   0.37979   0.56511   0.01267  Uiso   1.00
C21    C     0.77472   0.83352   0.54248   0.01267  Uiso   1.00
C22    C     0.77369   0.79019   0.60442   0.01267  Uiso   1.00
C23    C     0.71847   0.72191   0.57030   0.01267  Uiso   1.00
C24    C     0.84245   0.90351   0.57637   0.01267  Uiso   1.00
C25    C     0.28084   0.66842   0.70607   0.01267  Uiso   1.00
C26    C     0.25448   0.70385   0.63668   0.01267  Uiso   1.00
C27    C     0.20055   0.77256   0.67135   0.01267  Uiso   1.00
C28    C     0.34301   0.59628   0.66980   0.01267  Uiso   1.00
C29    C     0.80943   0.18717   0.71864   0.01267  Uiso   1.00
C30    C     0.78107   0.22224   0.64929   0.01267  Uiso   1.00
C31    C     0.72306   0.28961   0.68361   0.01267  Uiso   1.00
C32    C     0.87562   0.11643   0.68244   0.01267  Uiso   1.00
C33    C     0.66329   0.69689   0.47402   0.01267  Uiso   1.00
C34    C     0.66127   0.74115   0.41334   0.01267  Uiso   1.00
C35    C     0.71715   0.80928   0.44730   0.01267  Uiso   1.00
C36    C     0.61049   0.62193   0.43503   0.01267  Uiso   1.00
C37    C     0.22003   0.16889   0.45725   0.01267  Uiso   1.00
C38    C     0.24771   0.20417   0.38796   0.01267  Uiso   1.00
C39    C     0.30344   0.27231   0.42248   0.01267  Uiso   1.00
C40    C     0.15455   0.09790   0.42100   0.01267  Uiso   1.00
C41    C     0.73078   0.33493   0.29044   0.01267  Uiso   1.00
C42    C     0.75671   0.29898   0.35938   0.01267  Uiso   1.00
C43    C     0.80884   0.22972   0.32429   0.01267  Uiso   1.00
C44    C     0.66627   0.40636   0.32788   0.01267  Uiso   1.00
C45    C     0.18027   0.81098   0.28291   0.01267  Uiso   1.00
C46    C     0.20449   0.77559   0.35278   0.01267  Uiso   1.00
C47    C     0.25874   0.70690   0.31913   0.01267  Uiso   1.00
C48    C     0.11781   0.88310   0.31803   0.01267  Uiso   1.00
C49    C     0.32650   0.30707   0.03191   0.01267  Uiso   1.00
C50    C     0.30210   0.27031   0.10013   0.01267  Uiso   1.00
C51    C     0.24881   0.20136   0.06466   0.01267  Uiso   1.00
C52    C     0.38127   0.38168   0.07037   0.01267  Uiso   1.00
C53    C     0.77850   0.83045   0.04062   0.01267  Uiso   1.00
C54    C     0.75307   0.79499   0.11026   0.01267  Uiso   1.00
C55    C     0.69852   0.72641   0.07628   0.01267  Uiso   1.00
C56    C     0.84283   0.90196   0.07648   0.01267  Uiso   1.00
C57    C     0.28846   0.67315   0.21513   0.01267  Uiso   1.00
C58    C     0.26597   0.70913   0.14563   0.01267  Uiso   1.00
C59    C     0.21186   0.77773   0.17927   0.01267  Uiso   1.00
C60    C     0.34571   0.59945   0.17712   0.01267  Uiso   1.00
C61    C     0.83560   0.19563   0.21969   0.01267  Uiso   1.00
C62    C     0.81210   0.23222   0.15109   0.01267  Uiso   1.00
C63    C     0.75984   0.30155   0.18617   0.01267  Uiso   1.00
C64    C     0.88771   0.12018   0.18148   0.01267  Uiso   1.00
O1     O     0.58629   0.59181   0.83984   0.01267  Uiso   1.00
O2     O     0.59548   0.59058   0.50017   0.01267  Uiso   1.00
O3     O     0.12977   0.07117   0.82762   0.01267  Uiso   1.00
O4     O     0.12688   0.07055   0.48843   0.01267  Uiso   1.00
O5     O     0.60865   0.42117   0.92092   0.01267  Uiso   1.00
O6     O     0.61997   0.42795   0.76216   0.01267  Uiso   1.00
O7     O     0.09002   0.90684   0.90870   0.01267  Uiso   1.00
O8     O     0.09711   0.91057   0.74785   0.01267  Uiso   1.00
O9     O     0.40266   0.40961   0.66172   0.01267  Uiso   1.00
O10    O     0.39111   0.41459   0.00652   0.01267  Uiso   1.00
O11    O     0.87399   0.92890   0.66998   0.01267  Uiso   1.00
O12    O     0.86744   0.93059   0.00969   0.01267  Uiso   1.00
O13    O     0.37316   0.56983   0.57607   0.01267  Uiso   1.00
O14    O     0.36072   0.56609   0.73641   0.01267  Uiso   1.00
O15    O     0.90213   0.09062   0.58763   0.01267  Uiso   1.00
O16    O     0.90131   0.08853   0.74953   0.01267  Uiso   1.00
O17    O     0.58506   0.50880   0.63297   0.01267  Uiso   1.00
O18    O     0.92460   0.99379   0.87388   0.01267  Uiso   1.00
O19    O     0.41148   0.49558   0.87305   0.01267  Uiso   1.00
O20    O     0.58617   0.59509   0.33973   0.01267  Uiso   1.00
O21    O     0.13004   0.07065   0.32580   0.01267  Uiso   1.00
O22    O     0.64017   0.43186   0.42273   0.01267  Uiso   1.00
O23    O     0.64103   0.43599   0.26226   0.01267  Uiso   1.00
O24    O     0.09089   0.91018   0.41259   0.01267  Uiso   1.00
O25    O     0.09591   0.91123   0.25027   0.01267  Uiso   1.00
O26    O     0.41320   0.40667   0.16402   0.01267  Uiso   1.00
O27    O     0.41861   0.40700   0.49817   0.01267  Uiso   1.00
O28    O     0.86924   0.92890   0.17134   0.01267  Uiso   1.00
O29    O     0.86541   0.93187   0.50895   0.01267  Uiso   1.00
O30    O     0.36891   0.57325   0.08156   0.01267  Uiso   1.00
O31    O     0.36629   0.56818   0.24157   0.01267  Uiso   1.00
O32    O     0.90877   0.09170   0.08573   0.01267  Uiso   1.00
O33    O     0.90561   0.09002   0.24769   0.01267  Uiso   1.00
O34    O     0.57881   0.50820   0.12855   0.01267  Uiso   1.00
O35    O     0.91660   0.98723   0.36689   0.01267  Uiso   1.00
O36    O     0.42403   0.49004   0.37256   0.01267  Uiso   1.00
O37    O     0.59507   0.58747   0.00013   0.01267  Uiso   1.00
O38    O     0.13311   0.06653   0.98778   0.01267  Uiso   1.00
O39    O     0.08821   0.00844   0.63046   0.01267  Uiso   1.00
O40    O     0.08147   0.00783   0.12820   0.01267  Uiso   1.00
