data_image0
_cell_length_a       13.5137
_cell_length_b       9.0119
_cell_length_c       9.6357
_cell_angle_alpha    90
_cell_angle_beta     134.507
_cell_angle_gamma    90

_symmetry_space_group_name_H-M    "P 1"
_symmetry_int_tables_number       1

loop_
  _symmetry_equiv_pos_as_xyz
  'x, y, z'

loop_
  _atom_site_label
  _atom_site_occupancy
  _atom_site_fract_x
  _atom_site_fract_y
  _atom_site_fract_z
  _atom_site_thermal_displace_type
  _atom_site_B_iso_or_equiv
  _atom_site_type_symbol
  P1       1.0000 0.33315  0.60284  0.22063  Biso   1.000  P
  O1       1.0000 0.32510  0.56950  0.05740  Biso   1.000  O
  O2       1.0000 0.46560  0.68620  0.38960  Biso   1.000  O
  O3       1.0000 0.20760  0.69340  0.14430  Biso   1.000  O
  O4       1.0000 0.32040  0.45320  0.28060  Biso   1.000  O
  Be1      1.0000 0.36920  0.64780  0.95780  Biso   1.000  Be
  P2       1.0000 0.83315  0.10284  0.22063  Biso   1.000  P
  O5       1.0000 0.82510  0.06950  0.05740  Biso   1.000  O
  O6       1.0000 0.96560  0.18620  0.38960  Biso   1.000  O
  O7       1.0000 0.70760  0.19340  0.14430  Biso   1.000  O
  O8       1.0000 0.82040  0.95320  0.28060  Biso   1.000  O
  Be2      1.0000 0.86920  0.14780  0.95780  Biso   1.000  Be
  P3       1.0000 0.66685  0.60284  0.27937  Biso   1.000  P
  O9       1.0000 0.67490  0.56950  0.44260  Biso   1.000  O
  O10      1.0000 0.53440  0.68620  0.11040  Biso   1.000  O
  O11      1.0000 0.79240  0.69340  0.35570  Biso   1.000  O
  O12      1.0000 0.67960  0.45320  0.21940  Biso   1.000  O
  Be3      1.0000 0.63080  0.64780  0.54220  Biso   1.000  Be
  P4       1.0000 0.16685  0.10284  0.27937  Biso   1.000  P
  O13      1.0000 0.17490  0.06950  0.44260  Biso   1.000  O
  O14      1.0000 0.03440  0.18620  0.11040  Biso   1.000  O
  O15      1.0000 0.29240  0.19340  0.35570  Biso   1.000  O
  O16      1.0000 0.17960  0.95320  0.21940  Biso   1.000  O
  Be4      1.0000 0.13080  0.14780  0.54220  Biso   1.000  Be
  P5       1.0000 0.66685  0.39716  0.77937  Biso   1.000  P
  O17      1.0000 0.67490  0.43050  0.94260  Biso   1.000  O
  O18      1.0000 0.53440  0.31380  0.61040  Biso   1.000  O
  O19      1.0000 0.79240  0.30660  0.85570  Biso   1.000  O
  O20      1.0000 0.67960  0.54680  0.71940  Biso   1.000  O
  Be5      1.0000 0.63080  0.35220  0.04220  Biso   1.000  Be
  P6       1.0000 0.16685  0.89716  0.77937  Biso   1.000  P
  O21      1.0000 0.17490  0.93050  0.94260  Biso   1.000  O
  O22      1.0000 0.03440  0.81380  0.61040  Biso   1.000  O
  O23      1.0000 0.29240  0.80660  0.85570  Biso   1.000  O
  O24      1.0000 0.17960  0.04680  0.71940  Biso   1.000  O
  Be6      1.0000 0.13080  0.85220  0.04220  Biso   1.000  Be
  P7       1.0000 0.33315  0.39716  0.72063  Biso   1.000  P
  O25      1.0000 0.32510  0.43050  0.55740  Biso   1.000  O
  O26      1.0000 0.46560  0.31380  0.88960  Biso   1.000  O
  O27      1.0000 0.20760  0.30660  0.64430  Biso   1.000  O
  O28      1.0000 0.32040  0.54680  0.78060  Biso   1.000  O
  Be7      1.0000 0.36920  0.35220  0.45780  Biso   1.000  Be
  P8       1.0000 0.83315  0.89716  0.72063  Biso   1.000  P
  O29      1.0000 0.82510  0.93050  0.55740  Biso   1.000  O
  O30      1.0000 0.96560  0.81380  0.88960  Biso   1.000  O
  O31      1.0000 0.70760  0.80660  0.64430  Biso   1.000  O
  O32      1.0000 0.82040  0.04680  0.78060  Biso   1.000  O
  Be8      1.0000 0.86920  0.85220  0.45780  Biso   1.000  Be
