data_EFOTID_clean
_audit_creation_date              2014-07-02
_audit_creation_method            'Materials Studio'
_symmetry_space_group_name_H-M    'P1'
_symmetry_Int_Tables_number       1
_symmetry_cell_setting            triclinic
loop_
_symmetry_equiv_pos_as_xyz
  x,y,z
_cell_length_a                    17.0130
_cell_length_b                    17.3820
_cell_length_c                    17.9350
_cell_angle_alpha                 90.0000
_cell_angle_beta                  90.0000
_cell_angle_gamma                 90.0000
loop_
_atom_site_label
_atom_site_type_symbol
_atom_site_fract_x
_atom_site_fract_y
_atom_site_fract_z
_atom_site_U_iso_or_equiv
_atom_site_adp_type
_atom_site_occupancy
Mn1    Mn    0.61490   0.36340   0.86690   0.01267  Uiso   1.00
Mn2    Mn    0.38510   0.13660   0.36690   0.01267  Uiso   1.00
Mn3    Mn    0.11490   0.63660   0.63310   0.01267  Uiso   1.00
Mn4    Mn    0.88510   0.86340   0.13310   0.01267  Uiso   1.00
Mn5    Mn    0.38510   0.63660   0.13310   0.01267  Uiso   1.00
Mn6    Mn    0.61490   0.86340   0.63310   0.01267  Uiso   1.00
Mn7    Mn    0.88510   0.36340   0.36690   0.01267  Uiso   1.00
Mn8    Mn    0.11490   0.13660   0.86690   0.01267  Uiso   1.00
Re1    Re    0.90031   0.46525   0.96513   0.01267  Uiso   1.00
Re2    Re    0.95796   0.59999   0.01325   0.01267  Uiso   1.00
Re3    Re    0.02887   0.52525   0.90078   0.01267  Uiso   1.00
Re4    Re    0.09969   0.03475   0.46513   0.01267  Uiso   1.00
Re5    Re    0.04204   0.90001   0.51325   0.01267  Uiso   1.00
Re6    Re    0.97113   0.97475   0.40078   0.01267  Uiso   1.00
Re7    Re    0.40031   0.53475   0.53487   0.01267  Uiso   1.00
Re8    Re    0.45796   0.40001   0.48675   0.01267  Uiso   1.00
Re9    Re    0.52887   0.47475   0.59922   0.01267  Uiso   1.00
Re10   Re    0.59969   0.96525   0.03487   0.01267  Uiso   1.00
Re11   Re    0.54204   0.09999   0.98675   0.01267  Uiso   1.00
Re12   Re    0.47113   0.02525   0.09922   0.01267  Uiso   1.00
Re13   Re    0.09969   0.53475   0.03487   0.01267  Uiso   1.00
Re14   Re    0.04204   0.40001   0.98675   0.01267  Uiso   1.00
Re15   Re    0.97113   0.47475   0.09922   0.01267  Uiso   1.00
Re16   Re    0.90031   0.96525   0.53487   0.01267  Uiso   1.00
Re17   Re    0.95796   0.09999   0.48675   0.01267  Uiso   1.00
Re18   Re    0.02887   0.02525   0.59922   0.01267  Uiso   1.00
Re19   Re    0.59969   0.46525   0.46513   0.01267  Uiso   1.00
Re20   Re    0.54204   0.59999   0.51325   0.01267  Uiso   1.00
Re21   Re    0.47113   0.52525   0.40078   0.01267  Uiso   1.00
Re22   Re    0.40031   0.03475   0.96513   0.01267  Uiso   1.00
Re23   Re    0.45796   0.90001   0.01325   0.01267  Uiso   1.00
Re24   Re    0.52887   0.97475   0.90078   0.01267  Uiso   1.00
Te1    Te    0.88772   0.59187   0.87924   0.01267  Uiso   1.00
Te2    Te    0.97195   0.39039   0.85318   0.01267  Uiso   1.00
Te3    Te    0.82965   0.53885   0.07775   0.01267  Uiso   1.00
Te4    Te    0.91377   0.34034   0.05213   0.01267  Uiso   1.00
Te5    Te    0.11228   0.90813   0.37924   0.01267  Uiso   1.00
Te6    Te    0.02805   0.10961   0.35318   0.01267  Uiso   1.00
Te7    Te    0.17035   0.96115   0.57775   0.01267  Uiso   1.00
Te8    Te    0.08623   0.15966   0.55213   0.01267  Uiso   1.00
Te9    Te    0.38772   0.40813   0.62076   0.01267  Uiso   1.00
Te10   Te    0.47195   0.60961   0.64682   0.01267  Uiso   1.00
Te11   Te    0.32965   0.46115   0.42225   0.01267  Uiso   1.00
Te12   Te    0.41377   0.65966   0.44787   0.01267  Uiso   1.00
Te13   Te    0.61228   0.09187   0.12076   0.01267  Uiso   1.00
Te14   Te    0.52805   0.89039   0.14682   0.01267  Uiso   1.00
Te15   Te    0.67035   0.03885   0.92225   0.01267  Uiso   1.00
Te16   Te    0.58623   0.84034   0.94787   0.01267  Uiso   1.00
Te17   Te    0.11228   0.40813   0.12076   0.01267  Uiso   1.00
Te18   Te    0.02805   0.60961   0.14682   0.01267  Uiso   1.00
Te19   Te    0.17035   0.46115   0.92225   0.01267  Uiso   1.00
Te20   Te    0.08623   0.65966   0.94787   0.01267  Uiso   1.00
Te21   Te    0.88772   0.09187   0.62076   0.01267  Uiso   1.00
Te22   Te    0.97195   0.89039   0.64682   0.01267  Uiso   1.00
Te23   Te    0.82965   0.03885   0.42225   0.01267  Uiso   1.00
Te24   Te    0.91377   0.84034   0.44787   0.01267  Uiso   1.00
Te25   Te    0.61228   0.59187   0.37924   0.01267  Uiso   1.00
Te26   Te    0.52805   0.39039   0.35318   0.01267  Uiso   1.00
Te27   Te    0.67035   0.53885   0.57775   0.01267  Uiso   1.00
Te28   Te    0.58623   0.34034   0.55213   0.01267  Uiso   1.00
Te29   Te    0.38772   0.90813   0.87924   0.01267  Uiso   1.00
Te30   Te    0.47195   0.10961   0.85318   0.01267  Uiso   1.00
Te31   Te    0.32965   0.96115   0.07775   0.01267  Uiso   1.00
Te32   Te    0.41377   0.15966   0.05213   0.01267  Uiso   1.00
C1     C     0.79090   0.42590   0.92550   0.01267  Uiso   1.00
C2     C     0.06450   0.55090   0.79020   0.01267  Uiso   1.00
C3     C     0.91290   0.71240   0.03280   0.01267  Uiso   1.00
C4     C     0.20910   0.07410   0.42550   0.01267  Uiso   1.00
C5     C     0.93550   0.94910   0.29020   0.01267  Uiso   1.00
C6     C     0.08710   0.78760   0.53280   0.01267  Uiso   1.00
C7     C     0.29090   0.57410   0.57450   0.01267  Uiso   1.00
C8     C     0.56450   0.44910   0.70980   0.01267  Uiso   1.00
C9     C     0.41290   0.28760   0.46720   0.01267  Uiso   1.00
C10    C     0.70910   0.92590   0.07450   0.01267  Uiso   1.00
C11    C     0.43550   0.05090   0.20980   0.01267  Uiso   1.00
C12    C     0.58710   0.21240   0.96720   0.01267  Uiso   1.00
C13    C     0.20910   0.57410   0.07450   0.01267  Uiso   1.00
C14    C     0.93550   0.44910   0.20980   0.01267  Uiso   1.00
C15    C     0.08710   0.28760   0.96720   0.01267  Uiso   1.00
C16    C     0.79090   0.92590   0.57450   0.01267  Uiso   1.00
C17    C     0.06450   0.05090   0.70980   0.01267  Uiso   1.00
C18    C     0.91290   0.21240   0.46720   0.01267  Uiso   1.00
C19    C     0.70910   0.42590   0.42550   0.01267  Uiso   1.00
C20    C     0.43550   0.55090   0.29020   0.01267  Uiso   1.00
C21    C     0.58710   0.71240   0.53280   0.01267  Uiso   1.00
C22    C     0.29090   0.07410   0.92550   0.01267  Uiso   1.00
C23    C     0.56450   0.94910   0.79020   0.01267  Uiso   1.00
C24    C     0.41290   0.78760   0.03280   0.01267  Uiso   1.00
N1     N     0.73370   0.40300   0.90190   0.01267  Uiso   1.00
N2     N     0.08530   0.56860   0.73460   0.01267  Uiso   1.00
N3     N     0.89140   0.77400   0.04570   0.01267  Uiso   1.00
N4     N     0.26630   0.09700   0.40190   0.01267  Uiso   1.00
N5     N     0.91470   0.93140   0.23460   0.01267  Uiso   1.00
N6     N     0.10860   0.72600   0.54570   0.01267  Uiso   1.00
N7     N     0.23370   0.59700   0.59810   0.01267  Uiso   1.00
N8     N     0.58530   0.43140   0.76540   0.01267  Uiso   1.00
N9     N     0.39140   0.22600   0.45430   0.01267  Uiso   1.00
N10    N     0.76630   0.90300   0.09810   0.01267  Uiso   1.00
N11    N     0.41470   0.06860   0.26540   0.01267  Uiso   1.00
N12    N     0.60860   0.27400   0.95430   0.01267  Uiso   1.00
N13    N     0.26630   0.59700   0.09810   0.01267  Uiso   1.00
N14    N     0.91470   0.43140   0.26540   0.01267  Uiso   1.00
N15    N     0.10860   0.22600   0.95430   0.01267  Uiso   1.00
N16    N     0.73370   0.90300   0.59810   0.01267  Uiso   1.00
N17    N     0.08530   0.06860   0.76540   0.01267  Uiso   1.00
N18    N     0.89140   0.27400   0.45430   0.01267  Uiso   1.00
N19    N     0.76630   0.40300   0.40190   0.01267  Uiso   1.00
N20    N     0.41470   0.56860   0.23460   0.01267  Uiso   1.00
N21    N     0.60860   0.77400   0.54570   0.01267  Uiso   1.00
N22    N     0.23370   0.09700   0.90190   0.01267  Uiso   1.00
N23    N     0.58530   0.93140   0.73460   0.01267  Uiso   1.00
N24    N     0.39140   0.72600   0.04570   0.01267  Uiso   1.00
