data_image0
_cell_length_a       9.14
_cell_length_b       11.1538
_cell_length_c       11.2716
_cell_angle_alpha    77.261
_cell_angle_beta     68.453
_cell_angle_gamma    78.843

_symmetry_space_group_name_H-M    "P 1"
_symmetry_int_tables_number       1

loop_
  _symmetry_equiv_pos_as_xyz
  'x, y, z'

loop_
  _atom_site_label
  _atom_site_occupancy
  _atom_site_fract_x
  _atom_site_fract_y
  _atom_site_fract_z
  _atom_site_thermal_displace_type
  _atom_site_B_iso_or_equiv
  _atom_site_type_symbol
  Nd1      1.0000 0.73063  0.01791  0.01935  Biso   1.000  Nd
  S1       1.0000 0.69499  0.11981  0.49523  Biso   1.000  S
  O1       1.0000 0.42870  0.07200  0.75280  Biso   1.000  O
  C1       1.0000 0.55750  0.07290  0.76650  Biso   1.000  C
  S2       1.0000 0.91645  0.73610  0.43742  Biso   1.000  S
  O2       1.0000 0.57030  0.04640  0.87810  Biso   1.000  O
  C2       1.0000 0.70620  0.10120  0.65340  Biso   1.000  C
  H1       1.0000 0.79020  0.03500  0.66040  Biso   1.000  H
  H2       1.0000 0.73710  0.17670  0.66150  Biso   1.000  H
  S3       1.0000 0.84860  0.55392  0.87540  Biso   1.000  S
  O3       1.0000 0.94160  0.89600  0.09400  Biso   1.000  O
  C3       1.0000 0.71140  0.95880  0.48160  Biso   1.000  C
  H3       1.0000 0.64610  0.91480  0.56220  Biso   1.000  H
  H4       1.0000 0.67290  0.95300  0.41380  Biso   1.000  H
  O4       1.0000 0.14430  0.81700  0.15780  Biso   1.000  O
  C4       1.0000 0.88280  0.89850  0.45060  Biso   1.000  C
  H5       1.0000 0.92080  0.90800  0.51750  Biso   1.000  H
  H6       1.0000 0.94630  0.94330  0.36970  Biso   1.000  H
  O5       1.0000 0.91490  0.90360  0.83450  Biso   1.000  O
  C5       1.0000 0.89440  0.74220  0.28340  Biso   1.000  C
  H7       1.0000 0.91600  0.65870  0.26410  Biso   1.000  H
  H8       1.0000 0.78510  0.77250  0.29070  Biso   1.000  H
  O6       1.0000 0.73350  0.79580  0.98450  Biso   1.000  O
  C6       1.0000 0.00090  0.82300  0.17180  Biso   1.000  C
  C7       1.0000 0.91270  0.51360  0.01790  Biso   1.000  C
  H9       1.0000 0.87550  0.58180  0.06640  Biso   1.000  H
  H10      1.0000 0.86460  0.44170  0.07340  Biso   1.000  H
  C8       1.0000 0.91660  0.69920  0.80280  Biso   1.000  C
  H11      1.0000 0.03080  0.68800  0.78070  Biso   1.000  H
  H12      1.0000 0.89450  0.72460  0.72240  Biso   1.000  H
  C9       1.0000 0.84880  0.80540  0.88050  Biso   1.000  C
  Nd2      1.0000 0.26937  0.98209  0.98065  Biso   1.000  Nd
  S4       1.0000 0.30501  0.88019  0.50477  Biso   1.000  S
  O7       1.0000 0.57130  0.92800  0.24720  Biso   1.000  O
  C10      1.0000 0.44250  0.92710  0.23350  Biso   1.000  C
  S5       1.0000 0.08355  0.26390  0.56258  Biso   1.000  S
  O8       1.0000 0.42970  0.95360  0.12190  Biso   1.000  O
  C11      1.0000 0.29380  0.89880  0.34660  Biso   1.000  C
  H13      1.0000 0.20980  0.96500  0.33960  Biso   1.000  H
  H14      1.0000 0.26290  0.82330  0.33850  Biso   1.000  H
  S6       1.0000 0.15140  0.44608  0.12460  Biso   1.000  S
  O9       1.0000 0.05840  0.10400  0.90600  Biso   1.000  O
  C12      1.0000 0.28860  0.04120  0.51840  Biso   1.000  C
  H15      1.0000 0.35390  0.08520  0.43780  Biso   1.000  H
  H16      1.0000 0.32710  0.04700  0.58620  Biso   1.000  H
  O10      1.0000 0.85570  0.18300  0.84220  Biso   1.000  O
  C13      1.0000 0.11720  0.10150  0.54940  Biso   1.000  C
  H17      1.0000 0.07920  0.09200  0.48250  Biso   1.000  H
  H18      1.0000 0.05370  0.05670  0.63030  Biso   1.000  H
  O11      1.0000 0.08510  0.09640  0.16550  Biso   1.000  O
  C14      1.0000 0.10560  0.25780  0.71660  Biso   1.000  C
  H19      1.0000 0.08400  0.34130  0.73590  Biso   1.000  H
  H20      1.0000 0.21490  0.22750  0.70930  Biso   1.000  H
  O12      1.0000 0.26650  0.20420  0.01550  Biso   1.000  O
  C15      1.0000 0.99910  0.17700  0.82820  Biso   1.000  C
  C16      1.0000 0.08730  0.48640  0.98210  Biso   1.000  C
  H21      1.0000 0.12450  0.41820  0.93360  Biso   1.000  H
  H22      1.0000 0.13540  0.55830  0.92660  Biso   1.000  H
  C17      1.0000 0.08340  0.30080  0.19720  Biso   1.000  C
  H23      1.0000 0.96920  0.31200  0.21930  Biso   1.000  H
  H24      1.0000 0.10550  0.27540  0.27760  Biso   1.000  H
  C18      1.0000 0.15120  0.19460  0.11950  Biso   1.000  C
