data_image0
_cell_length_a       9.1258
_cell_length_b       11.138
_cell_length_c       11.3262
_cell_angle_alpha    77.317
_cell_angle_beta     68.681
_cell_angle_gamma    79.25

_symmetry_space_group_name_H-M    "P 1"
_symmetry_int_tables_number       1

loop_
  _symmetry_equiv_pos_as_xyz
  'x, y, z'

loop_
  _atom_site_label
  _atom_site_occupancy
  _atom_site_fract_x
  _atom_site_fract_y
  _atom_site_fract_z
  _atom_site_thermal_displace_type
  _atom_site_B_iso_or_equiv
  _atom_site_type_symbol
  La1      1.0000 0.23463  0.51922  0.51840  Biso   1.000  La
  S1       1.0000 0.19640  0.61900  0.99609  Biso   1.000  S
  S2       1.0000 0.41181  0.23535  0.93975  Biso   1.000  S
  S3       1.0000 0.34838  0.05074  0.37636  Biso   1.000  S
  O1       1.0000 0.06750  0.54670  0.37640  Biso   1.000  O
  O2       1.0000 0.41690  0.40030  0.33170  Biso   1.000  O
  O3       1.0000 0.92770  0.57560  0.24980  Biso   1.000  O
  O4       1.0000 0.23670  0.29270  0.48230  Biso   1.000  O
  O5       1.0000 0.64810  0.30830  0.66580  Biso   1.000  O
  O6       1.0000 0.45340  0.39520  0.59510  Biso   1.000  O
  C1       1.0000 0.41350  0.01260  0.51740  Biso   1.000  C
  H1       1.0000 0.37590  0.08110  0.56510  Biso   1.000  H
  H2       1.0000 0.36610  0.94030  0.57310  Biso   1.000  H
  C2       1.0000 0.20600  0.60030  0.15460  Biso   1.000  C
  H3       1.0000 0.28850  0.53340  0.16270  Biso   1.000  H
  H4       1.0000 0.23820  0.67550  0.16280  Biso   1.000  H
  C3       1.0000 0.38110  0.39790  0.95290  Biso   1.000  C
  H5       1.0000 0.41890  0.40700  0.01980  Biso   1.000  H
  H6       1.0000 0.44520  0.44270  0.87260  Biso   1.000  H
  C4       1.0000 0.21050  0.45770  0.98280  Biso   1.000  C
  H7       1.0000 0.14460  0.41380  0.06280  Biso   1.000  H
  H8       1.0000 0.17200  0.45200  0.91510  Biso   1.000  H
  C5       1.0000 0.39200  0.24310  0.78520  Biso   1.000  C
  H9       1.0000 0.40840  0.15960  0.76690  Biso   1.000  H
  H10      1.0000 0.28460  0.27750  0.79000  Biso   1.000  H
  C6       1.0000 0.41560  0.19620  0.30200  Biso   1.000  C
  H11      1.0000 0.53000  0.18570  0.27830  Biso   1.000  H
  H12      1.0000 0.39110  0.22090  0.22300  Biso   1.000  H
  C7       1.0000 0.05600  0.57330  0.26540  Biso   1.000  C
  C8       1.0000 0.35040  0.30210  0.37850  Biso   1.000  C
  C9       1.0000 0.50600  0.32000  0.67540  Biso   1.000  C
  La2      1.0000 0.76537  0.48078  0.48160  Biso   1.000  La
  S4       1.0000 0.80360  0.38100  0.00391  Biso   1.000  S
  S5       1.0000 0.58819  0.76465  0.06025  Biso   1.000  S
  S6       1.0000 0.65162  0.94926  0.62364  Biso   1.000  S
  O7       1.0000 0.93250  0.45330  0.62360  Biso   1.000  O
  O8       1.0000 0.58310  0.59970  0.66830  Biso   1.000  O
  O9       1.0000 0.07230  0.42440  0.75020  Biso   1.000  O
  O10      1.0000 0.76330  0.70730  0.51770  Biso   1.000  O
  O11      1.0000 0.35190  0.69170  0.33420  Biso   1.000  O
  O12      1.0000 0.54660  0.60480  0.40490  Biso   1.000  O
  C10      1.0000 0.58650  0.98740  0.48260  Biso   1.000  C
  H13      1.0000 0.62410  0.91890  0.43490  Biso   1.000  H
  H14      1.0000 0.63390  0.05970  0.42690  Biso   1.000  H
  C11      1.0000 0.79400  0.39970  0.84540  Biso   1.000  C
  H15      1.0000 0.71150  0.46660  0.83730  Biso   1.000  H
  H16      1.0000 0.76180  0.32450  0.83720  Biso   1.000  H
  C12      1.0000 0.61890  0.60210  0.04710  Biso   1.000  C
  H17      1.0000 0.58110  0.59300  0.98020  Biso   1.000  H
  H18      1.0000 0.55480  0.55730  0.12740  Biso   1.000  H
  C13      1.0000 0.78950  0.54230  0.01720  Biso   1.000  C
  H19      1.0000 0.85540  0.58620  0.93720  Biso   1.000  H
  H20      1.0000 0.82800  0.54800  0.08490  Biso   1.000  H
  C14      1.0000 0.60800  0.75690  0.21480  Biso   1.000  C
  H21      1.0000 0.59160  0.84040  0.23310  Biso   1.000  H
  H22      1.0000 0.71540  0.72250  0.21000  Biso   1.000  H
  C15      1.0000 0.58440  0.80380  0.69800  Biso   1.000  C
  H23      1.0000 0.47000  0.81430  0.72170  Biso   1.000  H
  H24      1.0000 0.60890  0.77910  0.77700  Biso   1.000  H
  C16      1.0000 0.94400  0.42670  0.73460  Biso   1.000  C
  C17      1.0000 0.64960  0.69790  0.62150  Biso   1.000  C
  C18      1.0000 0.49400  0.68000  0.32460  Biso   1.000  C
