data_image0
_cell_length_a       9.1742
_cell_length_b       11.1153
_cell_length_c       11.1714
_cell_angle_alpha    77.009
_cell_angle_beta     68.082
_cell_angle_gamma    78.222

_symmetry_space_group_name_H-M    "P 1"
_symmetry_int_tables_number       1

loop_
  _symmetry_equiv_pos_as_xyz
  'x, y, z'

loop_
  _atom_site_label
  _atom_site_occupancy
  _atom_site_fract_x
  _atom_site_fract_y
  _atom_site_fract_z
  _atom_site_thermal_displace_type
  _atom_site_B_iso_or_equiv
  _atom_site_type_symbol
  Gd1      1.0000 0.72540  0.51598  0.02028  Biso   1.000  Gd
  C1       1.0000 0.00600  0.67280  0.83330  Biso   1.000  C
  S1       1.0000 0.84780  0.05570  0.87611  Biso   1.000  S
  C2       1.0000 0.10350  0.75750  0.71880  Biso   1.000  C
  H1       1.0000 0.21460  0.73070  0.70760  Biso   1.000  H
  H2       1.0000 0.07750  0.84120  0.73950  Biso   1.000  H
  C3       1.0000 0.11440  0.59950  0.55320  Biso   1.000  C
  H3       1.0000 0.05270  0.55430  0.63560  Biso   1.000  H
  H4       1.0000 0.07670  0.58870  0.48650  Biso   1.000  H
  S2       1.0000 0.30642  0.37908  0.50674  Biso   1.000  S
  O1       1.0000 0.91230  0.40510  0.83770  Biso   1.000  O
  S3       1.0000 0.07667  0.76291  0.56563  Biso   1.000  S
  O2       1.0000 0.72940  0.29850  0.98420  Biso   1.000  O
  C4       1.0000 0.28670  0.54130  0.52060  Biso   1.000  C
  H5       1.0000 0.32510  0.54770  0.58860  Biso   1.000  H
  H6       1.0000 0.35060  0.58600  0.43870  Biso   1.000  H
  O3       1.0000 0.56770  0.43190  0.24450  Biso   1.000  O
  C5       1.0000 0.29320  0.39740  0.34740  Biso   1.000  C
  H7       1.0000 0.26540  0.32070  0.33930  Biso   1.000  H
  H8       1.0000 0.20680  0.46260  0.34180  Biso   1.000  H
  O4       1.0000 0.86350  0.67250  0.85160  Biso   1.000  O
  C6       1.0000 0.43890  0.42830  0.23270  Biso   1.000  C
  C7       1.0000 0.91280  0.01530  0.01820  Biso   1.000  C
  H9       1.0000 0.87730  0.08470  0.06610  Biso   1.000  H
  H10      1.0000 0.86340  0.94430  0.07580  Biso   1.000  H
  O5       1.0000 0.07510  0.60520  0.90740  Biso   1.000  O
  C8       1.0000 0.91510  0.20130  0.80310  Biso   1.000  C
  H11      1.0000 0.02930  0.18960  0.78120  Biso   1.000  H
  H12      1.0000 0.89400  0.22720  0.72160  Biso   1.000  H
  C9       1.0000 0.84580  0.30740  0.88190  Biso   1.000  C
  O6       1.0000 0.42500  0.45320  0.12140  Biso   1.000  O
  Gd2      1.0000 0.27460  0.48402  0.97972  Biso   1.000  Gd
  C10      1.0000 0.99400  0.32720  0.16670  Biso   1.000  C
  S4       1.0000 0.15220  0.94430  0.12389  Biso   1.000  S
  C11      1.0000 0.89650  0.24250  0.28120  Biso   1.000  C
  H13      1.0000 0.78540  0.26930  0.29240  Biso   1.000  H
  H14      1.0000 0.92250  0.15880  0.26050  Biso   1.000  H
  C12      1.0000 0.88560  0.40050  0.44680  Biso   1.000  C
  H15      1.0000 0.94730  0.44570  0.36440  Biso   1.000  H
  H16      1.0000 0.92330  0.41130  0.51350  Biso   1.000  H
  S5       1.0000 0.69358  0.62092  0.49326  Biso   1.000  S
  O7       1.0000 0.08770  0.59490  0.16230  Biso   1.000  O
  S6       1.0000 0.92333  0.23709  0.43437  Biso   1.000  S
  O8       1.0000 0.27060  0.70150  0.01580  Biso   1.000  O
  C13      1.0000 0.71330  0.45870  0.47940  Biso   1.000  C
  H17      1.0000 0.67490  0.45230  0.41140  Biso   1.000  H
  H18      1.0000 0.64940  0.41400  0.56130  Biso   1.000  H
  O9       1.0000 0.43230  0.56810  0.75550  Biso   1.000  O
  C14      1.0000 0.70680  0.60260  0.65260  Biso   1.000  C
  H19      1.0000 0.73460  0.67930  0.66070  Biso   1.000  H
  H20      1.0000 0.79320  0.53740  0.65820  Biso   1.000  H
  O10      1.0000 0.13650  0.32750  0.14840  Biso   1.000  O
  C15      1.0000 0.56110  0.57170  0.76730  Biso   1.000  C
  C16      1.0000 0.08720  0.98470  0.98180  Biso   1.000  C
  H21      1.0000 0.12270  0.91530  0.93390  Biso   1.000  H
  H22      1.0000 0.13660  0.05570  0.92420  Biso   1.000  H
  O11      1.0000 0.92490  0.39480  0.09260  Biso   1.000  O
  C17      1.0000 0.08490  0.79870  0.19690  Biso   1.000  C
  H23      1.0000 0.97070  0.81040  0.21880  Biso   1.000  H
  H24      1.0000 0.10600  0.77280  0.27840  Biso   1.000  H
  C18      1.0000 0.15420  0.69260  0.11810  Biso   1.000  C
  O12      1.0000 0.57500  0.54680  0.87860  Biso   1.000  O
