data_image0
_cell_length_a       14.152
_cell_length_b       14.152
_cell_length_c       14.152
_cell_angle_alpha    90
_cell_angle_beta     90
_cell_angle_gamma    90

_symmetry_space_group_name_H-M    "P 1"
_symmetry_int_tables_number       1

loop_
  _symmetry_equiv_pos_as_xyz
  'x, y, z'

loop_
  _atom_site_label
  _atom_site_occupancy
  _atom_site_fract_x
  _atom_site_fract_y
  _atom_site_fract_z
  _atom_site_thermal_displace_type
  _atom_site_B_iso_or_equiv
  _atom_site_type_symbol
  O1       1.0000 0.56520  0.41200  0.77590  Biso   1.000  O
  O2       1.0000 0.69320  0.37390  0.68780  Biso   1.000  O
  O3       1.0000 0.80800  0.15400  0.77600  Biso   1.000  O
  C1       1.0000 0.62390  0.42420  0.70890  Biso   1.000  C
  C2       1.0000 0.59970  0.50410  0.64110  Biso   1.000  C
  C3       1.0000 0.65640  0.52260  0.56570  Biso   1.000  C
  H1       1.0000 0.70840  0.48200  0.55390  Biso   1.000  H
  O4       1.0000 0.93480  0.58800  0.27590  Biso   1.000  O
  O5       1.0000 0.80680  0.62610  0.18780  Biso   1.000  O
  O6       1.0000 0.69200  0.84600  0.27600  Biso   1.000  O
  C4       1.0000 0.87610  0.57580  0.20890  Biso   1.000  C
  C5       1.0000 0.90030  0.49590  0.14110  Biso   1.000  C
  C6       1.0000 0.84360  0.47740  0.06570  Biso   1.000  C
  H2       1.0000 0.79160  0.51800  0.05390  Biso   1.000  H
  O7       1.0000 0.43480  0.91200  0.72410  Biso   1.000  O
  O8       1.0000 0.30680  0.87390  0.81220  Biso   1.000  O
  O9       1.0000 0.19200  0.65400  0.72400  Biso   1.000  O
  C7       1.0000 0.37610  0.92420  0.79110  Biso   1.000  C
  C8       1.0000 0.40030  0.00410  0.85890  Biso   1.000  C
  C9       1.0000 0.34360  0.02260  0.93430  Biso   1.000  C
  H3       1.0000 0.29160  0.98200  0.94610  Biso   1.000  H
  O10      1.0000 0.06520  0.08800  0.22410  Biso   1.000  O
  O11      1.0000 0.19320  0.12610  0.31220  Biso   1.000  O
  O12      1.0000 0.30800  0.34600  0.22400  Biso   1.000  O
  C10      1.0000 0.12390  0.07580  0.29110  Biso   1.000  C
  C11      1.0000 0.09970  0.99590  0.35890  Biso   1.000  C
  C12      1.0000 0.15640  0.97740  0.43430  Biso   1.000  C
  H4       1.0000 0.20840  0.01800  0.44610  Biso   1.000  H
  O13      1.0000 0.77590  0.56520  0.41200  Biso   1.000  O
  O14      1.0000 0.68780  0.69320  0.37390  Biso   1.000  O
  O15      1.0000 0.77600  0.80800  0.15400  Biso   1.000  O
  C13      1.0000 0.70890  0.62390  0.42420  Biso   1.000  C
  C14      1.0000 0.64110  0.59970  0.50410  Biso   1.000  C
  C15      1.0000 0.56570  0.65640  0.52260  Biso   1.000  C
  H5       1.0000 0.55390  0.70840  0.48200  Biso   1.000  H
  O16      1.0000 0.27590  0.93480  0.58800  Biso   1.000  O
  O17      1.0000 0.18780  0.80680  0.62610  Biso   1.000  O
  O18      1.0000 0.27600  0.69200  0.84600  Biso   1.000  O
  C16      1.0000 0.20890  0.87610  0.57580  Biso   1.000  C
  C17      1.0000 0.14110  0.90030  0.49590  Biso   1.000  C
  C18      1.0000 0.06570  0.84360  0.47740  Biso   1.000  C
  H6       1.0000 0.05390  0.79160  0.51800  Biso   1.000  H
  O19      1.0000 0.72410  0.43480  0.91200  Biso   1.000  O
  O20      1.0000 0.81220  0.30680  0.87390  Biso   1.000  O
  O21      1.0000 0.72400  0.19200  0.65400  Biso   1.000  O
  C19      1.0000 0.79110  0.37610  0.92420  Biso   1.000  C
  C20      1.0000 0.85890  0.40030  0.00410  Biso   1.000  C
  C21      1.0000 0.93430  0.34360  0.02260  Biso   1.000  C
  H7       1.0000 0.94610  0.29160  0.98200  Biso   1.000  H
  O22      1.0000 0.22410  0.06520  0.08800  Biso   1.000  O
  O23      1.0000 0.31220  0.19320  0.12610  Biso   1.000  O
  O24      1.0000 0.22400  0.30800  0.34600  Biso   1.000  O
  C22      1.0000 0.29110  0.12390  0.07580  Biso   1.000  C
  C23      1.0000 0.35890  0.09970  0.99590  Biso   1.000  C
  C24      1.0000 0.43430  0.15640  0.97740  Biso   1.000  C
  H8       1.0000 0.44610  0.20840  0.01800  Biso   1.000  H
  O25      1.0000 0.41200  0.77590  0.56520  Biso   1.000  O
  O26      1.0000 0.37390  0.68780  0.69320  Biso   1.000  O
  O27      1.0000 0.15400  0.77600  0.80800  Biso   1.000  O
  C25      1.0000 0.42420  0.70890  0.62390  Biso   1.000  C
  C26      1.0000 0.50410  0.64110  0.59970  Biso   1.000  C
  C27      1.0000 0.52260  0.56570  0.65640  Biso   1.000  C
  H9       1.0000 0.48200  0.55390  0.70840  Biso   1.000  H
  O28      1.0000 0.58800  0.27590  0.93480  Biso   1.000  O
  O29      1.0000 0.62610  0.18780  0.80680  Biso   1.000  O
  O30      1.0000 0.84600  0.27600  0.69200  Biso   1.000  O
  C28      1.0000 0.57580  0.20890  0.87610  Biso   1.000  C
  C29      1.0000 0.49590  0.14110  0.90030  Biso   1.000  C
  C30      1.0000 0.47740  0.06570  0.84360  Biso   1.000  C
  H10      1.0000 0.51800  0.05390  0.79160  Biso   1.000  H
  O31      1.0000 0.91200  0.72410  0.43480  Biso   1.000  O
  O32      1.0000 0.87390  0.81220  0.30680  Biso   1.000  O
  O33      1.0000 0.65400  0.72400  0.19200  Biso   1.000  O
  C31      1.0000 0.92420  0.79110  0.37610  Biso   1.000  C
  C32      1.0000 0.00410  0.85890  0.40030  Biso   1.000  C
  C33      1.0000 0.02260  0.93430  0.34360  Biso   1.000  C
  H11      1.0000 0.98200  0.94610  0.29160  Biso   1.000  H
  O34      1.0000 0.08800  0.22410  0.06520  Biso   1.000  O
  O35      1.0000 0.12610  0.31220  0.19320  Biso   1.000  O
  O36      1.0000 0.34600  0.22400  0.30800  Biso   1.000  O
  C34      1.0000 0.07580  0.29110  0.12390  Biso   1.000  C
  C35      1.0000 0.99590  0.35890  0.09970  Biso   1.000  C
  C36      1.0000 0.97740  0.43430  0.15640  Biso   1.000  C
  H12      1.0000 0.01800  0.44610  0.20840  Biso   1.000  H
  Zn1      1.0000 0.72827  0.27173  0.77173  Biso   1.000  Zn
  Co1      1.0000 0.57970  0.42030  0.92030  Biso   1.000  Co
  O37      1.0000 0.86810  0.13190  0.63190  Biso   1.000  O
  N1       1.0000 0.80950  0.19050  0.69050  Biso   1.000  N
  Zn2      1.0000 0.77173  0.72827  0.27173  Biso   1.000  Zn
  Co2      1.0000 0.92030  0.57970  0.42030  Biso   1.000  Co
  O38      1.0000 0.63190  0.86810  0.13190  Biso   1.000  O
  N2       1.0000 0.69050  0.80950  0.19050  Biso   1.000  N
  Zn3      1.0000 0.27173  0.77173  0.72827  Biso   1.000  Zn
  Co3      1.0000 0.42030  0.92030  0.57970  Biso   1.000  Co
  O39      1.0000 0.13190  0.63190  0.86810  Biso   1.000  O
  N3       1.0000 0.19050  0.69050  0.80950  Biso   1.000  N
  Zn4      1.0000 0.22827  0.22827  0.22827  Biso   1.000  Zn
  Co4      1.0000 0.07970  0.07970  0.07970  Biso   1.000  Co
  O40      1.0000 0.36810  0.36810  0.36810  Biso   1.000  O
  N4       1.0000 0.30950  0.30950  0.30950  Biso   1.000  N
