data_EGATIQ_clean
_audit_creation_date              2014-07-02
_audit_creation_method            'Materials Studio'
_symmetry_space_group_name_H-M    'P1'
_symmetry_Int_Tables_number       1
_symmetry_cell_setting            triclinic
loop_
_symmetry_equiv_pos_as_xyz
  x,y,z
_cell_length_a                    17.0544
_cell_length_b                    22.1816
_cell_length_c                    24.8632
_cell_angle_alpha                 90.0000
_cell_angle_beta                  90.0000
_cell_angle_gamma                 90.0000
loop_
_atom_site_label
_atom_site_type_symbol
_atom_site_fract_x
_atom_site_fract_y
_atom_site_fract_z
_atom_site_U_iso_or_equiv
_atom_site_adp_type
_atom_site_occupancy
Zn1    Zn    0.01031   0.66686   0.38619   0.01267  Uiso   1.00
Zn2    Zn    0.48969   0.33314   0.88619   0.01267  Uiso   1.00
Zn3    Zn    0.01031   0.83314   0.38619   0.01267  Uiso   1.00
Zn4    Zn    0.48969   0.16686   0.88619   0.01267  Uiso   1.00
Ni1    Ni    0.12560   0.75000   0.31320   0.01267  Uiso   1.00
Ni2    Ni    0.37440   0.25000   0.81320   0.01267  Uiso   1.00
H1     H     0.66520   0.02280   0.99200   0.01267  Uiso   1.00
H2     H     0.78690   0.00690   0.02790   0.01267  Uiso   1.00
H3     H     0.85240   0.17240   0.98220   0.01267  Uiso   1.00
H4     H     0.72930   0.18800   0.94650   0.01267  Uiso   1.00
H5     H     0.88050   0.02690   0.09440   0.01267  Uiso   1.00
H6     H     0.11420   0.04010   0.07930   0.01267  Uiso   1.00
H7     H     0.97230   0.12280   0.97370   0.01267  Uiso   1.00
H8     H     0.91920   0.01620   0.18620   0.01267  Uiso   1.00
H9     H     0.93420   0.95110   0.25690   0.01267  Uiso   1.00
H10    H     0.11820   0.87580   0.18350   0.01267  Uiso   1.00
H11    H     0.10420   0.94180   0.11340   0.01267  Uiso   1.00
H12    H     0.19720   0.11410   0.05550   0.01267  Uiso   1.00
H13    H     0.30710   0.14410   0.00990   0.01267  Uiso   1.00
H14    H     0.18580   0.14050   0.87200   0.01267  Uiso   1.00
H15    H     0.07710   0.10720   0.91760   0.01267  Uiso   1.00
H16    H     0.23300   0.66270   0.25590   0.01267  Uiso   1.00
H17    H     0.31500   0.65990   0.18280   0.01267  Uiso   1.00
H18    H     0.83480   0.97720   0.49200   0.01267  Uiso   1.00
H19    H     0.71310   0.99310   0.52790   0.01267  Uiso   1.00
H20    H     0.64760   0.82760   0.48220   0.01267  Uiso   1.00
H21    H     0.77070   0.81200   0.44650   0.01267  Uiso   1.00
H22    H     0.61950   0.97310   0.59440   0.01267  Uiso   1.00
H23    H     0.38580   0.95990   0.57930   0.01267  Uiso   1.00
H24    H     0.52770   0.87720   0.47370   0.01267  Uiso   1.00
H25    H     0.58080   0.98380   0.68620   0.01267  Uiso   1.00
H26    H     0.56580   0.04890   0.75690   0.01267  Uiso   1.00
H27    H     0.38180   0.12420   0.68350   0.01267  Uiso   1.00
H28    H     0.39580   0.05820   0.61340   0.01267  Uiso   1.00
H29    H     0.30280   0.88590   0.55550   0.01267  Uiso   1.00
H30    H     0.19290   0.85590   0.50990   0.01267  Uiso   1.00
H31    H     0.31420   0.85950   0.37200   0.01267  Uiso   1.00
H32    H     0.42290   0.89280   0.41760   0.01267  Uiso   1.00
H33    H     0.26700   0.33730   0.75590   0.01267  Uiso   1.00
H34    H     0.18500   0.34010   0.68280   0.01267  Uiso   1.00
H35    H     0.66520   0.47720   0.99200   0.01267  Uiso   1.00
H36    H     0.78690   0.49310   0.02790   0.01267  Uiso   1.00
H37    H     0.85240   0.32760   0.98220   0.01267  Uiso   1.00
H38    H     0.72930   0.31200   0.94650   0.01267  Uiso   1.00
H39    H     0.88050   0.47310   0.09440   0.01267  Uiso   1.00
H40    H     0.11420   0.45990   0.07930   0.01267  Uiso   1.00
H41    H     0.97230   0.37720   0.97370   0.01267  Uiso   1.00
H42    H     0.91920   0.48380   0.18620   0.01267  Uiso   1.00
H43    H     0.93420   0.54890   0.25690   0.01267  Uiso   1.00
H44    H     0.11820   0.62420   0.18350   0.01267  Uiso   1.00
H45    H     0.10420   0.55820   0.11340   0.01267  Uiso   1.00
H46    H     0.19720   0.38590   0.05550   0.01267  Uiso   1.00
H47    H     0.30710   0.35590   0.00990   0.01267  Uiso   1.00
H48    H     0.18580   0.35950   0.87200   0.01267  Uiso   1.00
H49    H     0.07710   0.39280   0.91760   0.01267  Uiso   1.00
H50    H     0.23300   0.83730   0.25590   0.01267  Uiso   1.00
H51    H     0.31500   0.84010   0.18280   0.01267  Uiso   1.00
H52    H     0.83480   0.52280   0.49200   0.01267  Uiso   1.00
H53    H     0.71310   0.50690   0.52790   0.01267  Uiso   1.00
H54    H     0.64760   0.67240   0.48220   0.01267  Uiso   1.00
H55    H     0.77070   0.68800   0.44650   0.01267  Uiso   1.00
H56    H     0.61950   0.52690   0.59440   0.01267  Uiso   1.00
H57    H     0.38580   0.54010   0.57930   0.01267  Uiso   1.00
H58    H     0.52770   0.62280   0.47370   0.01267  Uiso   1.00
H59    H     0.58080   0.51620   0.68620   0.01267  Uiso   1.00
H60    H     0.56580   0.45110   0.75690   0.01267  Uiso   1.00
H61    H     0.38180   0.37580   0.68350   0.01267  Uiso   1.00
H62    H     0.39580   0.44180   0.61340   0.01267  Uiso   1.00
H63    H     0.30280   0.61410   0.55550   0.01267  Uiso   1.00
H64    H     0.19290   0.64410   0.50990   0.01267  Uiso   1.00
H65    H     0.31420   0.64050   0.37200   0.01267  Uiso   1.00
H66    H     0.42290   0.60720   0.41760   0.01267  Uiso   1.00
H67    H     0.26700   0.16270   0.75590   0.01267  Uiso   1.00
H68    H     0.18500   0.15990   0.68280   0.01267  Uiso   1.00
H69    H     0.35600   0.75000   0.14500   0.01267  Uiso   1.00
H70    H     0.14400   0.25000   0.64500   0.01267  Uiso   1.00
C1     C     0.60480   0.11670   0.94040   0.01267  Uiso   1.00
C2     C     0.68407   0.10633   0.96539   0.01267  Uiso   1.00
C3     C     0.70270   0.05310   0.98990   0.01267  Uiso   1.00
C4     C     0.77570   0.04352   0.01140   0.01267  Uiso   1.00
C5     C     0.83351   0.08803   0.00894   0.01267  Uiso   1.00
C6     C     0.81490   0.14205   0.98433   0.01267  Uiso   1.00
C7     C     0.74110   0.15137   0.96280   0.01267  Uiso   1.00
C8     C     0.91369   0.07598   0.03047   0.01267  Uiso   1.00
C9     C     0.92422   0.04101   0.07592   0.01267  Uiso   1.00
C10    C     0.99895   0.02638   0.09480   0.01267  Uiso   1.00
C11    C     0.06401   0.04918   0.06709   0.01267  Uiso   1.00
C12    C     0.05515   0.08529   0.02154   0.01267  Uiso   1.00
C13    C     0.97911   0.09849   0.00384   0.01267  Uiso   1.00
C14    C     0.00972   0.98658   0.14171   0.01267  Uiso   1.00
C15    C     0.95970   0.98810   0.18548   0.01267  Uiso   1.00
C16    C     0.96870   0.94910   0.22795   0.01267  Uiso   1.00
C17    C     0.02840   0.90677   0.22825   0.01267  Uiso   1.00
C18    C     0.07830   0.90438   0.18440   0.01267  Uiso   1.00
C19    C     0.06950   0.94376   0.14219   0.01267  Uiso   1.00
C20    C     0.03835   0.86374   0.27445   0.01267  Uiso   1.00
C21    C     0.12502   0.10749   0.99223   0.01267  Uiso   1.00
C22    C     0.19480   0.11890   0.01840   0.01267  Uiso   1.00
C23    C     0.26080   0.13720   0.99118   0.01267  Uiso   1.00
C24    C     0.25857   0.14562   0.93567   0.01267  Uiso   1.00
C25    C     0.18860   0.13463   0.90899   0.01267  Uiso   1.00
C26    C     0.12305   0.11522   0.93640   0.01267  Uiso   1.00
C27    C     0.32920   0.16514   0.90594   0.01267  Uiso   1.00
C28    C     0.24880   0.69890   0.24034   0.01267  Uiso   1.00
C29    C     0.29850   0.69670   0.19683   0.01267  Uiso   1.00
C30    C     0.89520   0.88330   0.44040   0.01267  Uiso   1.00
C31    C     0.81593   0.89367   0.46539   0.01267  Uiso   1.00
C32    C     0.79730   0.94690   0.48990   0.01267  Uiso   1.00
C33    C     0.72430   0.95648   0.51140   0.01267  Uiso   1.00
C34    C     0.66649   0.91197   0.50894   0.01267  Uiso   1.00
C35    C     0.68510   0.85795   0.48433   0.01267  Uiso   1.00
C36    C     0.75890   0.84863   0.46280   0.01267  Uiso   1.00
C37    C     0.58631   0.92402   0.53047   0.01267  Uiso   1.00
C38    C     0.57578   0.95899   0.57592   0.01267  Uiso   1.00
C39    C     0.50105   0.97362   0.59480   0.01267  Uiso   1.00
C40    C     0.43599   0.95082   0.56709   0.01267  Uiso   1.00
C41    C     0.44485   0.91471   0.52154   0.01267  Uiso   1.00
C42    C     0.52089   0.90151   0.50384   0.01267  Uiso   1.00
C43    C     0.49028   0.01342   0.64171   0.01267  Uiso   1.00
C44    C     0.54030   0.01190   0.68548   0.01267  Uiso   1.00
C45    C     0.53130   0.05090   0.72795   0.01267  Uiso   1.00
C46    C     0.47160   0.09323   0.72825   0.01267  Uiso   1.00
C47    C     0.42170   0.09562   0.68440   0.01267  Uiso   1.00
C48    C     0.43050   0.05624   0.64219   0.01267  Uiso   1.00
C49    C     0.46165   0.13626   0.77445   0.01267  Uiso   1.00
C50    C     0.37498   0.89251   0.49223   0.01267  Uiso   1.00
C51    C     0.30520   0.88110   0.51840   0.01267  Uiso   1.00
C52    C     0.23920   0.86280   0.49118   0.01267  Uiso   1.00
C53    C     0.24143   0.85438   0.43567   0.01267  Uiso   1.00
C54    C     0.31140   0.86537   0.40899   0.01267  Uiso   1.00
C55    C     0.37695   0.88478   0.43640   0.01267  Uiso   1.00
C56    C     0.17080   0.83486   0.40594   0.01267  Uiso   1.00
C57    C     0.25120   0.30110   0.74034   0.01267  Uiso   1.00
C58    C     0.20150   0.30330   0.69683   0.01267  Uiso   1.00
C59    C     0.60480   0.38330   0.94040   0.01267  Uiso   1.00
C60    C     0.68407   0.39367   0.96539   0.01267  Uiso   1.00
C61    C     0.70270   0.44690   0.98990   0.01267  Uiso   1.00
C62    C     0.77570   0.45648   0.01140   0.01267  Uiso   1.00
C63    C     0.83351   0.41197   0.00894   0.01267  Uiso   1.00
C64    C     0.81490   0.35795   0.98433   0.01267  Uiso   1.00
C65    C     0.74110   0.34863   0.96280   0.01267  Uiso   1.00
C66    C     0.91369   0.42402   0.03047   0.01267  Uiso   1.00
C67    C     0.92422   0.45899   0.07592   0.01267  Uiso   1.00
C68    C     0.99895   0.47362   0.09480   0.01267  Uiso   1.00
C69    C     0.06401   0.45082   0.06709   0.01267  Uiso   1.00
C70    C     0.05515   0.41471   0.02154   0.01267  Uiso   1.00
C71    C     0.97911   0.40151   0.00384   0.01267  Uiso   1.00
C72    C     0.00972   0.51342   0.14171   0.01267  Uiso   1.00
C73    C     0.95970   0.51190   0.18548   0.01267  Uiso   1.00
C74    C     0.96870   0.55090   0.22795   0.01267  Uiso   1.00
C75    C     0.02840   0.59323   0.22825   0.01267  Uiso   1.00
C76    C     0.07830   0.59562   0.18440   0.01267  Uiso   1.00
C77    C     0.06950   0.55624   0.14219   0.01267  Uiso   1.00
C78    C     0.03835   0.63626   0.27445   0.01267  Uiso   1.00
C79    C     0.12502   0.39251   0.99223   0.01267  Uiso   1.00
C80    C     0.19480   0.38110   0.01840   0.01267  Uiso   1.00
C81    C     0.26080   0.36280   0.99118   0.01267  Uiso   1.00
C82    C     0.25857   0.35438   0.93567   0.01267  Uiso   1.00
C83    C     0.18860   0.36537   0.90899   0.01267  Uiso   1.00
C84    C     0.12305   0.38478   0.93640   0.01267  Uiso   1.00
C85    C     0.32920   0.33486   0.90594   0.01267  Uiso   1.00
C86    C     0.24880   0.80110   0.24034   0.01267  Uiso   1.00
C87    C     0.29850   0.80330   0.19683   0.01267  Uiso   1.00
C88    C     0.89520   0.61670   0.44040   0.01267  Uiso   1.00
C89    C     0.81593   0.60633   0.46539   0.01267  Uiso   1.00
C90    C     0.79730   0.55310   0.48990   0.01267  Uiso   1.00
C91    C     0.72430   0.54352   0.51140   0.01267  Uiso   1.00
C92    C     0.66649   0.58803   0.50894   0.01267  Uiso   1.00
C93    C     0.68510   0.64205   0.48433   0.01267  Uiso   1.00
C94    C     0.75890   0.65137   0.46280   0.01267  Uiso   1.00
C95    C     0.58631   0.57598   0.53047   0.01267  Uiso   1.00
C96    C     0.57578   0.54101   0.57592   0.01267  Uiso   1.00
C97    C     0.50105   0.52638   0.59480   0.01267  Uiso   1.00
C98    C     0.43599   0.54918   0.56709   0.01267  Uiso   1.00
C99    C     0.44485   0.58529   0.52154   0.01267  Uiso   1.00
C100   C     0.52089   0.59849   0.50384   0.01267  Uiso   1.00
C101   C     0.49028   0.48658   0.64171   0.01267  Uiso   1.00
C102   C     0.54030   0.48810   0.68548   0.01267  Uiso   1.00
C103   C     0.53130   0.44910   0.72795   0.01267  Uiso   1.00
C104   C     0.47160   0.40677   0.72825   0.01267  Uiso   1.00
C105   C     0.42170   0.40438   0.68440   0.01267  Uiso   1.00
C106   C     0.43050   0.44376   0.64219   0.01267  Uiso   1.00
C107   C     0.46165   0.36374   0.77445   0.01267  Uiso   1.00
C108   C     0.37498   0.60749   0.49223   0.01267  Uiso   1.00
C109   C     0.30520   0.61890   0.51840   0.01267  Uiso   1.00
C110   C     0.23920   0.63720   0.49118   0.01267  Uiso   1.00
C111   C     0.24143   0.64562   0.43567   0.01267  Uiso   1.00
C112   C     0.31140   0.63463   0.40899   0.01267  Uiso   1.00
C113   C     0.37695   0.61522   0.43640   0.01267  Uiso   1.00
C114   C     0.17080   0.66514   0.40594   0.01267  Uiso   1.00
C115   C     0.25120   0.19890   0.74034   0.01267  Uiso   1.00
C116   C     0.20150   0.19670   0.69683   0.01267  Uiso   1.00
C117   C     0.32300   0.75000   0.17480   0.01267  Uiso   1.00
C118   C     0.17700   0.25000   0.67480   0.01267  Uiso   1.00
N1     N     0.22240   0.75000   0.26119   0.01267  Uiso   1.00
N2     N     0.27760   0.25000   0.76119   0.01267  Uiso   1.00
O1     O     0.59235   0.16753   0.91963   0.01267  Uiso   1.00
O2     O     0.55510   0.07664   0.94091   0.01267  Uiso   1.00
O3     O     0.00695   0.87881   0.31867   0.01267  Uiso   1.00
O4     O     0.07684   0.81692   0.26522   0.01267  Uiso   1.00
O5     O     0.39488   0.15973   0.92889   0.01267  Uiso   1.00
O6     O     0.32004   0.18468   0.85908   0.01267  Uiso   1.00
O7     O     0.90765   0.83247   0.41963   0.01267  Uiso   1.00
O8     O     0.94490   0.92336   0.44091   0.01267  Uiso   1.00
O9     O     0.49305   0.12119   0.81867   0.01267  Uiso   1.00
O10    O     0.42316   0.18308   0.76522   0.01267  Uiso   1.00
O11    O     0.10512   0.84027   0.42889   0.01267  Uiso   1.00
O12    O     0.17996   0.81532   0.35908   0.01267  Uiso   1.00
O13    O     0.59235   0.33247   0.91963   0.01267  Uiso   1.00
O14    O     0.55510   0.42336   0.94091   0.01267  Uiso   1.00
O15    O     0.00695   0.62119   0.31867   0.01267  Uiso   1.00
O16    O     0.07684   0.68308   0.26522   0.01267  Uiso   1.00
O17    O     0.39488   0.34027   0.92889   0.01267  Uiso   1.00
O18    O     0.32004   0.31532   0.85908   0.01267  Uiso   1.00
O19    O     0.90765   0.66753   0.41963   0.01267  Uiso   1.00
O20    O     0.94490   0.57664   0.44091   0.01267  Uiso   1.00
O21    O     0.49305   0.37881   0.81867   0.01267  Uiso   1.00
O22    O     0.42316   0.31692   0.76522   0.01267  Uiso   1.00
O23    O     0.10512   0.65973   0.42889   0.01267  Uiso   1.00
O24    O     0.17996   0.68468   0.35908   0.01267  Uiso   1.00
O25    O     0.01889   0.75000   0.35522   0.01267  Uiso   1.00
O26    O     0.48111   0.25000   0.85522   0.01267  Uiso   1.00
Zn5    Zn    0.98969   0.16686   0.61381   0.01267  Uiso   1.00
Zn6    Zn    0.51031   0.83314   0.11381   0.01267  Uiso   1.00
Zn7    Zn    0.98969   0.33314   0.61381   0.01267  Uiso   1.00
Zn8    Zn    0.51031   0.66686   0.11381   0.01267  Uiso   1.00
Ni3    Ni    0.87440   0.25000   0.68680   0.01267  Uiso   1.00
Ni4    Ni    0.62560   0.75000   0.18680   0.01267  Uiso   1.00
H71    H     0.33480   0.52280   0.00800   0.01267  Uiso   1.00
H72    H     0.21310   0.50690   0.97210   0.01267  Uiso   1.00
H73    H     0.14760   0.67240   0.01780   0.01267  Uiso   1.00
H74    H     0.27070   0.68800   0.05350   0.01267  Uiso   1.00
H75    H     0.11950   0.52690   0.90560   0.01267  Uiso   1.00
H76    H     0.88580   0.54010   0.92070   0.01267  Uiso   1.00
H77    H     0.02770   0.62280   0.02630   0.01267  Uiso   1.00
H78    H     0.08080   0.51620   0.81380   0.01267  Uiso   1.00
H79    H     0.06580   0.45110   0.74310   0.01267  Uiso   1.00
H80    H     0.88180   0.37580   0.81650   0.01267  Uiso   1.00
H81    H     0.89580   0.44180   0.88660   0.01267  Uiso   1.00
H82    H     0.80280   0.61410   0.94450   0.01267  Uiso   1.00
H83    H     0.69290   0.64410   0.99010   0.01267  Uiso   1.00
H84    H     0.81420   0.64050   0.12800   0.01267  Uiso   1.00
H85    H     0.92290   0.60720   0.08240   0.01267  Uiso   1.00
H86    H     0.76700   0.16270   0.74410   0.01267  Uiso   1.00
H87    H     0.68500   0.15990   0.81720   0.01267  Uiso   1.00
H88    H     0.16520   0.47720   0.50800   0.01267  Uiso   1.00
H89    H     0.28690   0.49310   0.47210   0.01267  Uiso   1.00
H90    H     0.35240   0.32760   0.51780   0.01267  Uiso   1.00
H91    H     0.22930   0.31200   0.55350   0.01267  Uiso   1.00
H92    H     0.38050   0.47310   0.40560   0.01267  Uiso   1.00
H93    H     0.61420   0.45990   0.42070   0.01267  Uiso   1.00
H94    H     0.47230   0.37720   0.52630   0.01267  Uiso   1.00
H95    H     0.41920   0.48380   0.31380   0.01267  Uiso   1.00
H96    H     0.43420   0.54890   0.24310   0.01267  Uiso   1.00
H97    H     0.61820   0.62420   0.31650   0.01267  Uiso   1.00
H98    H     0.60420   0.55820   0.38660   0.01267  Uiso   1.00
H99    H     0.69720   0.38590   0.44450   0.01267  Uiso   1.00
H100   H     0.80710   0.35590   0.49010   0.01267  Uiso   1.00
H101   H     0.68580   0.35950   0.62800   0.01267  Uiso   1.00
H102   H     0.57710   0.39280   0.58240   0.01267  Uiso   1.00
H103   H     0.73300   0.83730   0.24410   0.01267  Uiso   1.00
H104   H     0.81500   0.84010   0.31720   0.01267  Uiso   1.00
H105   H     0.33480   0.97720   0.00800   0.01267  Uiso   1.00
H106   H     0.21310   0.99310   0.97210   0.01267  Uiso   1.00
H107   H     0.14760   0.82760   0.01780   0.01267  Uiso   1.00
H108   H     0.27070   0.81200   0.05350   0.01267  Uiso   1.00
H109   H     0.11950   0.97310   0.90560   0.01267  Uiso   1.00
H110   H     0.88580   0.95990   0.92070   0.01267  Uiso   1.00
H111   H     0.02770   0.87720   0.02630   0.01267  Uiso   1.00
H112   H     0.08080   0.98380   0.81380   0.01267  Uiso   1.00
H113   H     0.06580   0.04890   0.74310   0.01267  Uiso   1.00
H114   H     0.88180   0.12420   0.81650   0.01267  Uiso   1.00
H115   H     0.89580   0.05820   0.88660   0.01267  Uiso   1.00
H116   H     0.80280   0.88590   0.94450   0.01267  Uiso   1.00
H117   H     0.69290   0.85590   0.99010   0.01267  Uiso   1.00
H118   H     0.81420   0.85950   0.12800   0.01267  Uiso   1.00
H119   H     0.92290   0.89280   0.08240   0.01267  Uiso   1.00
H120   H     0.76700   0.33730   0.74410   0.01267  Uiso   1.00
H121   H     0.68500   0.34010   0.81720   0.01267  Uiso   1.00
H122   H     0.16520   0.02280   0.50800   0.01267  Uiso   1.00
H123   H     0.28690   0.00690   0.47210   0.01267  Uiso   1.00
H124   H     0.35240   0.17240   0.51780   0.01267  Uiso   1.00
H125   H     0.22930   0.18800   0.55350   0.01267  Uiso   1.00
H126   H     0.38050   0.02690   0.40560   0.01267  Uiso   1.00
H127   H     0.61420   0.04010   0.42070   0.01267  Uiso   1.00
H128   H     0.47230   0.12280   0.52630   0.01267  Uiso   1.00
H129   H     0.41920   0.01620   0.31380   0.01267  Uiso   1.00
H130   H     0.43420   0.95110   0.24310   0.01267  Uiso   1.00
H131   H     0.61820   0.87580   0.31650   0.01267  Uiso   1.00
H132   H     0.60420   0.94180   0.38660   0.01267  Uiso   1.00
H133   H     0.69720   0.11410   0.44450   0.01267  Uiso   1.00
H134   H     0.80710   0.14410   0.49010   0.01267  Uiso   1.00
H135   H     0.68580   0.14050   0.62800   0.01267  Uiso   1.00
H136   H     0.57710   0.10720   0.58240   0.01267  Uiso   1.00
H137   H     0.73300   0.66270   0.24410   0.01267  Uiso   1.00
H138   H     0.81500   0.65990   0.31720   0.01267  Uiso   1.00
H139   H     0.64400   0.25000   0.85500   0.01267  Uiso   1.00
H140   H     0.85600   0.75000   0.35500   0.01267  Uiso   1.00
C119   C     0.39520   0.61670   0.05960   0.01267  Uiso   1.00
C120   C     0.31593   0.60633   0.03461   0.01267  Uiso   1.00
C121   C     0.29730   0.55310   0.01010   0.01267  Uiso   1.00
C122   C     0.22430   0.54352   0.98860   0.01267  Uiso   1.00
C123   C     0.16649   0.58803   0.99106   0.01267  Uiso   1.00
C124   C     0.18510   0.64205   0.01567   0.01267  Uiso   1.00
C125   C     0.25890   0.65137   0.03720   0.01267  Uiso   1.00
C126   C     0.08631   0.57598   0.96953   0.01267  Uiso   1.00
C127   C     0.07578   0.54101   0.92408   0.01267  Uiso   1.00
C128   C     0.00105   0.52638   0.90520   0.01267  Uiso   1.00
C129   C     0.93599   0.54918   0.93291   0.01267  Uiso   1.00
C130   C     0.94485   0.58529   0.97846   0.01267  Uiso   1.00
C131   C     0.02089   0.59849   0.99616   0.01267  Uiso   1.00
C132   C     0.99028   0.48658   0.85829   0.01267  Uiso   1.00
C133   C     0.04030   0.48810   0.81452   0.01267  Uiso   1.00
C134   C     0.03130   0.44910   0.77205   0.01267  Uiso   1.00
C135   C     0.97160   0.40677   0.77175   0.01267  Uiso   1.00
C136   C     0.92170   0.40438   0.81560   0.01267  Uiso   1.00
C137   C     0.93050   0.44376   0.85781   0.01267  Uiso   1.00
C138   C     0.96165   0.36374   0.72555   0.01267  Uiso   1.00
C139   C     0.87498   0.60749   0.00777   0.01267  Uiso   1.00
C140   C     0.80520   0.61890   0.98160   0.01267  Uiso   1.00
C141   C     0.73920   0.63720   0.00882   0.01267  Uiso   1.00
C142   C     0.74143   0.64562   0.06433   0.01267  Uiso   1.00
C143   C     0.81140   0.63463   0.09101   0.01267  Uiso   1.00
C144   C     0.87695   0.61522   0.06360   0.01267  Uiso   1.00
C145   C     0.67080   0.66514   0.09406   0.01267  Uiso   1.00
C146   C     0.75120   0.19890   0.75966   0.01267  Uiso   1.00
C147   C     0.70150   0.19670   0.80317   0.01267  Uiso   1.00
C148   C     0.10480   0.38330   0.55960   0.01267  Uiso   1.00
C149   C     0.18407   0.39367   0.53461   0.01267  Uiso   1.00
C150   C     0.20270   0.44690   0.51010   0.01267  Uiso   1.00
C151   C     0.27570   0.45648   0.48860   0.01267  Uiso   1.00
C152   C     0.33351   0.41197   0.49106   0.01267  Uiso   1.00
C153   C     0.31490   0.35795   0.51567   0.01267  Uiso   1.00
C154   C     0.24110   0.34863   0.53720   0.01267  Uiso   1.00
C155   C     0.41369   0.42402   0.46953   0.01267  Uiso   1.00
C156   C     0.42422   0.45899   0.42408   0.01267  Uiso   1.00
C157   C     0.49895   0.47362   0.40520   0.01267  Uiso   1.00
C158   C     0.56401   0.45082   0.43291   0.01267  Uiso   1.00
C159   C     0.55515   0.41471   0.47846   0.01267  Uiso   1.00
C160   C     0.47911   0.40151   0.49616   0.01267  Uiso   1.00
C161   C     0.50972   0.51342   0.35829   0.01267  Uiso   1.00
C162   C     0.45970   0.51190   0.31452   0.01267  Uiso   1.00
C163   C     0.46870   0.55090   0.27205   0.01267  Uiso   1.00
C164   C     0.52840   0.59323   0.27175   0.01267  Uiso   1.00
C165   C     0.57830   0.59562   0.31560   0.01267  Uiso   1.00
C166   C     0.56950   0.55624   0.35781   0.01267  Uiso   1.00
C167   C     0.53835   0.63626   0.22555   0.01267  Uiso   1.00
C168   C     0.62502   0.39251   0.50777   0.01267  Uiso   1.00
C169   C     0.69480   0.38110   0.48160   0.01267  Uiso   1.00
C170   C     0.76080   0.36280   0.50882   0.01267  Uiso   1.00
C171   C     0.75857   0.35438   0.56433   0.01267  Uiso   1.00
C172   C     0.68860   0.36537   0.59101   0.01267  Uiso   1.00
C173   C     0.62305   0.38478   0.56360   0.01267  Uiso   1.00
C174   C     0.82920   0.33486   0.59406   0.01267  Uiso   1.00
C175   C     0.74880   0.80110   0.25966   0.01267  Uiso   1.00
C176   C     0.79850   0.80330   0.30317   0.01267  Uiso   1.00
C177   C     0.39520   0.88330   0.05960   0.01267  Uiso   1.00
C178   C     0.31593   0.89367   0.03461   0.01267  Uiso   1.00
C179   C     0.29730   0.94690   0.01010   0.01267  Uiso   1.00
C180   C     0.22430   0.95648   0.98860   0.01267  Uiso   1.00
C181   C     0.16649   0.91197   0.99106   0.01267  Uiso   1.00
C182   C     0.18510   0.85795   0.01567   0.01267  Uiso   1.00
C183   C     0.25890   0.84863   0.03720   0.01267  Uiso   1.00
C184   C     0.08631   0.92402   0.96953   0.01267  Uiso   1.00
C185   C     0.07578   0.95899   0.92408   0.01267  Uiso   1.00
C186   C     0.00105   0.97362   0.90520   0.01267  Uiso   1.00
C187   C     0.93599   0.95082   0.93291   0.01267  Uiso   1.00
C188   C     0.94485   0.91471   0.97846   0.01267  Uiso   1.00
C189   C     0.02089   0.90151   0.99616   0.01267  Uiso   1.00
C190   C     0.99028   0.01342   0.85829   0.01267  Uiso   1.00
C191   C     0.04030   0.01190   0.81452   0.01267  Uiso   1.00
C192   C     0.03130   0.05090   0.77205   0.01267  Uiso   1.00
C193   C     0.97160   0.09323   0.77175   0.01267  Uiso   1.00
C194   C     0.92170   0.09562   0.81560   0.01267  Uiso   1.00
C195   C     0.93050   0.05624   0.85781   0.01267  Uiso   1.00
C196   C     0.96165   0.13626   0.72555   0.01267  Uiso   1.00
C197   C     0.87498   0.89251   0.00777   0.01267  Uiso   1.00
C198   C     0.80520   0.88110   0.98160   0.01267  Uiso   1.00
C199   C     0.73920   0.86280   0.00882   0.01267  Uiso   1.00
C200   C     0.74143   0.85438   0.06433   0.01267  Uiso   1.00
C201   C     0.81140   0.86537   0.09101   0.01267  Uiso   1.00
C202   C     0.87695   0.88478   0.06360   0.01267  Uiso   1.00
C203   C     0.67080   0.83486   0.09406   0.01267  Uiso   1.00
C204   C     0.75120   0.30110   0.75966   0.01267  Uiso   1.00
C205   C     0.70150   0.30330   0.80317   0.01267  Uiso   1.00
C206   C     0.10480   0.11670   0.55960   0.01267  Uiso   1.00
C207   C     0.18407   0.10633   0.53461   0.01267  Uiso   1.00
C208   C     0.20270   0.05310   0.51010   0.01267  Uiso   1.00
C209   C     0.27570   0.04352   0.48860   0.01267  Uiso   1.00
C210   C     0.33351   0.08803   0.49106   0.01267  Uiso   1.00
C211   C     0.31490   0.14205   0.51567   0.01267  Uiso   1.00
C212   C     0.24110   0.15137   0.53720   0.01267  Uiso   1.00
C213   C     0.41369   0.07598   0.46953   0.01267  Uiso   1.00
C214   C     0.42422   0.04101   0.42408   0.01267  Uiso   1.00
C215   C     0.49895   0.02638   0.40520   0.01267  Uiso   1.00
C216   C     0.56401   0.04918   0.43291   0.01267  Uiso   1.00
C217   C     0.55515   0.08529   0.47846   0.01267  Uiso   1.00
C218   C     0.47911   0.09849   0.49616   0.01267  Uiso   1.00
C219   C     0.50972   0.98658   0.35829   0.01267  Uiso   1.00
C220   C     0.45970   0.98810   0.31452   0.01267  Uiso   1.00
C221   C     0.46870   0.94910   0.27205   0.01267  Uiso   1.00
C222   C     0.52840   0.90677   0.27175   0.01267  Uiso   1.00
C223   C     0.57830   0.90438   0.31560   0.01267  Uiso   1.00
C224   C     0.56950   0.94376   0.35781   0.01267  Uiso   1.00
C225   C     0.53835   0.86374   0.22555   0.01267  Uiso   1.00
C226   C     0.62502   0.10749   0.50777   0.01267  Uiso   1.00
C227   C     0.69480   0.11890   0.48160   0.01267  Uiso   1.00
C228   C     0.76080   0.13720   0.50882   0.01267  Uiso   1.00
C229   C     0.75857   0.14562   0.56433   0.01267  Uiso   1.00
C230   C     0.68860   0.13463   0.59101   0.01267  Uiso   1.00
C231   C     0.62305   0.11522   0.56360   0.01267  Uiso   1.00
C232   C     0.82920   0.16514   0.59406   0.01267  Uiso   1.00
C233   C     0.74880   0.69890   0.25966   0.01267  Uiso   1.00
C234   C     0.79850   0.69670   0.30317   0.01267  Uiso   1.00
C235   C     0.67700   0.25000   0.82520   0.01267  Uiso   1.00
C236   C     0.82300   0.75000   0.32520   0.01267  Uiso   1.00
N3     N     0.77760   0.25000   0.73881   0.01267  Uiso   1.00
N4     N     0.72240   0.75000   0.23881   0.01267  Uiso   1.00
O27    O     0.40765   0.66753   0.08037   0.01267  Uiso   1.00
O28    O     0.44490   0.57664   0.05909   0.01267  Uiso   1.00
O29    O     0.99305   0.37881   0.68133   0.01267  Uiso   1.00
O30    O     0.92316   0.31692   0.73478   0.01267  Uiso   1.00
O31    O     0.60512   0.65973   0.07111   0.01267  Uiso   1.00
O32    O     0.67996   0.68468   0.14092   0.01267  Uiso   1.00
O33    O     0.09235   0.33247   0.58037   0.01267  Uiso   1.00
O34    O     0.05510   0.42336   0.55909   0.01267  Uiso   1.00
O35    O     0.50695   0.62119   0.18133   0.01267  Uiso   1.00
O36    O     0.57684   0.68308   0.23478   0.01267  Uiso   1.00
O37    O     0.89488   0.34027   0.57111   0.01267  Uiso   1.00
O38    O     0.82004   0.31532   0.64092   0.01267  Uiso   1.00
O39    O     0.40765   0.83247   0.08037   0.01267  Uiso   1.00
O40    O     0.44490   0.92336   0.05909   0.01267  Uiso   1.00
O41    O     0.99305   0.12119   0.68133   0.01267  Uiso   1.00
O42    O     0.92316   0.18308   0.73478   0.01267  Uiso   1.00
O43    O     0.60512   0.84027   0.07111   0.01267  Uiso   1.00
O44    O     0.67996   0.81532   0.14092   0.01267  Uiso   1.00
O45    O     0.09235   0.16753   0.58037   0.01267  Uiso   1.00
O46    O     0.05510   0.07664   0.55909   0.01267  Uiso   1.00
O47    O     0.50695   0.87881   0.18133   0.01267  Uiso   1.00
O48    O     0.57684   0.81692   0.23478   0.01267  Uiso   1.00
O49    O     0.89488   0.15973   0.57111   0.01267  Uiso   1.00
O50    O     0.82004   0.18468   0.64092   0.01267  Uiso   1.00
O51    O     0.98111   0.25000   0.64478   0.01267  Uiso   1.00
O52    O     0.51889   0.75000   0.14478   0.01267  Uiso   1.00
