data_EGATOW_clean
_audit_creation_date              2014-07-02
_audit_creation_method            'Materials Studio'
_symmetry_space_group_name_H-M    'P1'
_symmetry_Int_Tables_number       1
_symmetry_cell_setting            triclinic
loop_
_symmetry_equiv_pos_as_xyz
  x,y,z
_cell_length_a                    11.7603
_cell_length_b                    18.7107
_cell_length_c                    18.7107
_cell_angle_alpha                 90.0000
_cell_angle_beta                  90.0000
_cell_angle_gamma                 90.0000
loop_
_atom_site_label
_atom_site_type_symbol
_atom_site_fract_x
_atom_site_fract_y
_atom_site_fract_z
_atom_site_U_iso_or_equiv
_atom_site_adp_type
_atom_site_occupancy
Zn1    Zn    0.64386   0.28571   0.78162   0.01267  Uiso   1.00
Zn2    Zn    0.64386   0.71429   0.21838   0.01267  Uiso   1.00
Zn3    Zn    0.14386   0.21838   0.28571   0.01267  Uiso   1.00
Zn4    Zn    0.14386   0.78162   0.71429   0.01267  Uiso   1.00
Zn5    Zn    0.64386   0.78571   0.71838   0.01267  Uiso   1.00
Zn6    Zn    0.64386   0.21429   0.28162   0.01267  Uiso   1.00
Zn7    Zn    0.14386   0.71838   0.21429   0.01267  Uiso   1.00
Zn8    Zn    0.14386   0.28162   0.78571   0.01267  Uiso   1.00
Co1    Co    0.81794   0.15389   0.82168   0.01267  Uiso   1.00
Co2    Co    0.81794   0.84611   0.17832   0.01267  Uiso   1.00
Co3    Co    0.31794   0.17832   0.15389   0.01267  Uiso   1.00
Co4    Co    0.31794   0.82168   0.84611   0.01267  Uiso   1.00
Co5    Co    0.81794   0.65389   0.67832   0.01267  Uiso   1.00
Co6    Co    0.81794   0.34611   0.32168   0.01267  Uiso   1.00
Co7    Co    0.31794   0.67832   0.34611   0.01267  Uiso   1.00
Co8    Co    0.31794   0.32168   0.65389   0.01267  Uiso   1.00
H1     H     0.08980   0.27170   0.50870   0.01267  Uiso   1.00
H2     H     0.70980   0.22100   0.55670   0.01267  Uiso   1.00
H3     H     0.08980   0.72830   0.49130   0.01267  Uiso   1.00
H4     H     0.70980   0.77900   0.44330   0.01267  Uiso   1.00
H5     H     0.58980   0.49130   0.27170   0.01267  Uiso   1.00
H6     H     0.20980   0.44330   0.22100   0.01267  Uiso   1.00
H7     H     0.58980   0.50870   0.72830   0.01267  Uiso   1.00
H8     H     0.20980   0.55670   0.77900   0.01267  Uiso   1.00
H9     H     0.08980   0.77170   0.99130   0.01267  Uiso   1.00
H10    H     0.70980   0.72100   0.94330   0.01267  Uiso   1.00
H11    H     0.08980   0.22830   0.00870   0.01267  Uiso   1.00
H12    H     0.70980   0.27900   0.05670   0.01267  Uiso   1.00
H13    H     0.58980   0.99130   0.22830   0.01267  Uiso   1.00
H14    H     0.20980   0.94330   0.27900   0.01267  Uiso   1.00
H15    H     0.58980   0.00870   0.77170   0.01267  Uiso   1.00
H16    H     0.20980   0.05670   0.72100   0.01267  Uiso   1.00
C1     C     0.81010   0.24090   0.67830   0.01267  Uiso   1.00
C2     C     0.85940   0.24580   0.60470   0.01267  Uiso   1.00
C3     C     0.97150   0.26200   0.58870   0.01267  Uiso   1.00
C4     C     0.01190   0.26210   0.51800   0.01267  Uiso   1.00
C5     C     0.93900   0.24820   0.46240   0.01267  Uiso   1.00
C6     C     0.82290   0.23320   0.47550   0.01267  Uiso   1.00
C7     C     0.78710   0.23190   0.54700   0.01267  Uiso   1.00
C8     C     0.05770   0.28210   0.64480   0.01267  Uiso   1.00
C9     C     0.99250   0.25180   0.38940   0.01267  Uiso   1.00
C10    C     0.73330   0.22080   0.41990   0.01267  Uiso   1.00
C11    C     0.81010   0.75910   0.32170   0.01267  Uiso   1.00
C12    C     0.85940   0.75420   0.39530   0.01267  Uiso   1.00
C13    C     0.97150   0.73800   0.41130   0.01267  Uiso   1.00
C14    C     0.01190   0.73790   0.48200   0.01267  Uiso   1.00
C15    C     0.93900   0.75180   0.53760   0.01267  Uiso   1.00
C16    C     0.82290   0.76680   0.52450   0.01267  Uiso   1.00
C17    C     0.78710   0.76810   0.45300   0.01267  Uiso   1.00
C18    C     0.05770   0.71790   0.35520   0.01267  Uiso   1.00
C19    C     0.99250   0.74820   0.61060   0.01267  Uiso   1.00
C20    C     0.73330   0.77920   0.58010   0.01267  Uiso   1.00
C21    C     0.31010   0.32170   0.24090   0.01267  Uiso   1.00
C22    C     0.35940   0.39530   0.24580   0.01267  Uiso   1.00
C23    C     0.47150   0.41130   0.26200   0.01267  Uiso   1.00
C24    C     0.51190   0.48200   0.26210   0.01267  Uiso   1.00
C25    C     0.43900   0.53760   0.24820   0.01267  Uiso   1.00
C26    C     0.32290   0.52450   0.23320   0.01267  Uiso   1.00
C27    C     0.28710   0.45300   0.23190   0.01267  Uiso   1.00
C28    C     0.55770   0.35520   0.28210   0.01267  Uiso   1.00
C29    C     0.49250   0.61060   0.25180   0.01267  Uiso   1.00
C30    C     0.23330   0.58010   0.22080   0.01267  Uiso   1.00
C31    C     0.31010   0.67830   0.75910   0.01267  Uiso   1.00
C32    C     0.35940   0.60470   0.75420   0.01267  Uiso   1.00
C33    C     0.47150   0.58870   0.73800   0.01267  Uiso   1.00
C34    C     0.51190   0.51800   0.73790   0.01267  Uiso   1.00
C35    C     0.43900   0.46240   0.75180   0.01267  Uiso   1.00
C36    C     0.32290   0.47550   0.76680   0.01267  Uiso   1.00
C37    C     0.28710   0.54700   0.76810   0.01267  Uiso   1.00
C38    C     0.55770   0.64480   0.71790   0.01267  Uiso   1.00
C39    C     0.49250   0.38940   0.74820   0.01267  Uiso   1.00
C40    C     0.23330   0.41990   0.77920   0.01267  Uiso   1.00
C41    C     0.81010   0.74090   0.82170   0.01267  Uiso   1.00
C42    C     0.85940   0.74580   0.89530   0.01267  Uiso   1.00
C43    C     0.97150   0.76200   0.91130   0.01267  Uiso   1.00
C44    C     0.01190   0.76210   0.98200   0.01267  Uiso   1.00
C45    C     0.93900   0.74820   0.03760   0.01267  Uiso   1.00
C46    C     0.82290   0.73320   0.02450   0.01267  Uiso   1.00
C47    C     0.78710   0.73190   0.95300   0.01267  Uiso   1.00
C48    C     0.05770   0.78210   0.85520   0.01267  Uiso   1.00
C49    C     0.99250   0.75180   0.11060   0.01267  Uiso   1.00
C50    C     0.73330   0.72080   0.08010   0.01267  Uiso   1.00
C51    C     0.81010   0.25910   0.17830   0.01267  Uiso   1.00
C52    C     0.85940   0.25420   0.10470   0.01267  Uiso   1.00
C53    C     0.97150   0.23800   0.08870   0.01267  Uiso   1.00
C54    C     0.01190   0.23790   0.01800   0.01267  Uiso   1.00
C55    C     0.93900   0.25180   0.96240   0.01267  Uiso   1.00
C56    C     0.82290   0.26680   0.97550   0.01267  Uiso   1.00
C57    C     0.78710   0.26810   0.04700   0.01267  Uiso   1.00
C58    C     0.05770   0.21790   0.14480   0.01267  Uiso   1.00
C59    C     0.99250   0.24820   0.88940   0.01267  Uiso   1.00
C60    C     0.73330   0.27920   0.91990   0.01267  Uiso   1.00
C61    C     0.31010   0.82170   0.25910   0.01267  Uiso   1.00
C62    C     0.35940   0.89530   0.25420   0.01267  Uiso   1.00
C63    C     0.47150   0.91130   0.23800   0.01267  Uiso   1.00
C64    C     0.51190   0.98200   0.23790   0.01267  Uiso   1.00
C65    C     0.43900   0.03760   0.25180   0.01267  Uiso   1.00
C66    C     0.32290   0.02450   0.26680   0.01267  Uiso   1.00
C67    C     0.28710   0.95300   0.26810   0.01267  Uiso   1.00
C68    C     0.55770   0.85520   0.21790   0.01267  Uiso   1.00
C69    C     0.49250   0.11060   0.24820   0.01267  Uiso   1.00
C70    C     0.23330   0.08010   0.27920   0.01267  Uiso   1.00
C71    C     0.31010   0.17830   0.74090   0.01267  Uiso   1.00
C72    C     0.35940   0.10470   0.74580   0.01267  Uiso   1.00
C73    C     0.47150   0.08870   0.76200   0.01267  Uiso   1.00
C74    C     0.51190   0.01800   0.76210   0.01267  Uiso   1.00
C75    C     0.43900   0.96240   0.74820   0.01267  Uiso   1.00
C76    C     0.32290   0.97550   0.73320   0.01267  Uiso   1.00
C77    C     0.28710   0.04700   0.73190   0.01267  Uiso   1.00
C78    C     0.55770   0.14480   0.78210   0.01267  Uiso   1.00
C79    C     0.49250   0.88940   0.75180   0.01267  Uiso   1.00
C80    C     0.23330   0.91990   0.72080   0.01267  Uiso   1.00
O1     O     0.82680   0.18710   0.71490   0.01267  Uiso   1.00
O2     O     0.74040   0.29200   0.69520   0.01267  Uiso   1.00
O3     O     0.03120   0.27740   0.70900   0.01267  Uiso   1.00
O4     O     0.15310   0.30530   0.62260   0.01267  Uiso   1.00
O5     O     0.07300   0.20750   0.37950   0.01267  Uiso   1.00
O6     O     0.97130   0.30210   0.34540   0.01267  Uiso   1.00
O7     O     0.75980   0.23740   0.35440   0.01267  Uiso   1.00
O8     O     0.63880   0.19960   0.43540   0.01267  Uiso   1.00
O9     O     0.82680   0.81290   0.28510   0.01267  Uiso   1.00
O10    O     0.74040   0.70800   0.30480   0.01267  Uiso   1.00
O11    O     0.03120   0.72260   0.29100   0.01267  Uiso   1.00
O12    O     0.15310   0.69470   0.37740   0.01267  Uiso   1.00
O13    O     0.07300   0.79250   0.62050   0.01267  Uiso   1.00
O14    O     0.97130   0.69790   0.65460   0.01267  Uiso   1.00
O15    O     0.75980   0.76260   0.64560   0.01267  Uiso   1.00
O16    O     0.63880   0.80040   0.56460   0.01267  Uiso   1.00
O17    O     0.32680   0.28510   0.18710   0.01267  Uiso   1.00
O18    O     0.24040   0.30480   0.29200   0.01267  Uiso   1.00
O19    O     0.53120   0.29100   0.27740   0.01267  Uiso   1.00
O20    O     0.65310   0.37740   0.30530   0.01267  Uiso   1.00
O21    O     0.57300   0.62050   0.20750   0.01267  Uiso   1.00
O22    O     0.47130   0.65460   0.30210   0.01267  Uiso   1.00
O23    O     0.25980   0.64560   0.23740   0.01267  Uiso   1.00
O24    O     0.13880   0.56460   0.19960   0.01267  Uiso   1.00
O25    O     0.32680   0.71490   0.81290   0.01267  Uiso   1.00
O26    O     0.24040   0.69520   0.70800   0.01267  Uiso   1.00
O27    O     0.53120   0.70900   0.72260   0.01267  Uiso   1.00
O28    O     0.65310   0.62260   0.69470   0.01267  Uiso   1.00
O29    O     0.57300   0.37950   0.79250   0.01267  Uiso   1.00
O30    O     0.47130   0.34540   0.69790   0.01267  Uiso   1.00
O31    O     0.25980   0.35440   0.76260   0.01267  Uiso   1.00
O32    O     0.13880   0.43540   0.80040   0.01267  Uiso   1.00
O33    O     0.82680   0.68710   0.78510   0.01267  Uiso   1.00
O34    O     0.74040   0.79200   0.80480   0.01267  Uiso   1.00
O35    O     0.03120   0.77740   0.79100   0.01267  Uiso   1.00
O36    O     0.15310   0.80530   0.87740   0.01267  Uiso   1.00
O37    O     0.07300   0.70750   0.12050   0.01267  Uiso   1.00
O38    O     0.97130   0.80210   0.15460   0.01267  Uiso   1.00
O39    O     0.75980   0.73740   0.14560   0.01267  Uiso   1.00
O40    O     0.63880   0.69960   0.06460   0.01267  Uiso   1.00
O41    O     0.82680   0.31290   0.21490   0.01267  Uiso   1.00
O42    O     0.74040   0.20800   0.19520   0.01267  Uiso   1.00
O43    O     0.03120   0.22260   0.20900   0.01267  Uiso   1.00
O44    O     0.15310   0.19470   0.12260   0.01267  Uiso   1.00
O45    O     0.07300   0.29250   0.87950   0.01267  Uiso   1.00
O46    O     0.97130   0.19790   0.84540   0.01267  Uiso   1.00
O47    O     0.75980   0.26260   0.85440   0.01267  Uiso   1.00
O48    O     0.63880   0.30040   0.93540   0.01267  Uiso   1.00
O49    O     0.32680   0.78510   0.31290   0.01267  Uiso   1.00
O50    O     0.24040   0.80480   0.20800   0.01267  Uiso   1.00
O51    O     0.53120   0.79100   0.22260   0.01267  Uiso   1.00
O52    O     0.65310   0.87740   0.19470   0.01267  Uiso   1.00
O53    O     0.57300   0.12050   0.29250   0.01267  Uiso   1.00
O54    O     0.47130   0.15460   0.19790   0.01267  Uiso   1.00
O55    O     0.25980   0.14560   0.26260   0.01267  Uiso   1.00
O56    O     0.13880   0.06460   0.30040   0.01267  Uiso   1.00
O57    O     0.32680   0.21490   0.68710   0.01267  Uiso   1.00
O58    O     0.24040   0.19520   0.79200   0.01267  Uiso   1.00
O59    O     0.53120   0.20900   0.77740   0.01267  Uiso   1.00
O60    O     0.65310   0.12260   0.80530   0.01267  Uiso   1.00
O61    O     0.57300   0.87950   0.70750   0.01267  Uiso   1.00
O62    O     0.47130   0.84540   0.80210   0.01267  Uiso   1.00
O63    O     0.25980   0.85440   0.73740   0.01267  Uiso   1.00
O64    O     0.13880   0.93540   0.69960   0.01267  Uiso   1.00
