data_EGELUY01_manual
_audit_creation_date              2014-07-02
_audit_creation_method            'Materials Studio'
_symmetry_space_group_name_H-M    'P1'
_symmetry_Int_Tables_number       1
_symmetry_cell_setting            triclinic
loop_
_symmetry_equiv_pos_as_xyz
  x,y,z
_cell_length_a                    6.6218
_cell_length_b                    16.2148
_cell_length_c                    13.5886
_cell_angle_alpha                 90.0000
_cell_angle_beta                  90.0000
_cell_angle_gamma                 90.0000
loop_
_atom_site_label
_atom_site_type_symbol
_atom_site_fract_x
_atom_site_fract_y
_atom_site_fract_z
_atom_site_U_iso_or_equiv
_atom_site_adp_type
_atom_site_occupancy
C1     C     0.81356   0.03438   0.96783   0.00000  Uiso   1.00
O2     O     0.16601   0.17184   0.83543   0.00000  Uiso   1.00
H3     H     0.67034   0.05881   0.94342   0.00000  Uiso   1.00
C4     C     0.31405   0.53464   0.46750   0.00000  Uiso   1.00
O5     O     0.66825   0.67180   0.33554   0.00000  Uiso   1.00
H6     H     0.17122   0.55915   0.44260   0.00000  Uiso   1.00
C7     C     0.17751   0.46740   0.96962   0.00000  Uiso   1.00
O8     O     0.82258   0.33077   0.83719   0.00000  Uiso   1.00
H9     H     0.32034   0.44244   0.94536   0.00000  Uiso   1.00
C10    C     0.67797   0.96756   0.47005   0.00000  Uiso   1.00
O11    O     0.32478   0.83063   0.33721   0.00000  Uiso   1.00
H12    H     0.82117   0.94268   0.44620   0.00000  Uiso   1.00
C13    C     0.17802   0.53555   0.03414   0.00000  Uiso   1.00
O14    O     0.82463   0.67255   0.16686   0.00000  Uiso   1.00
H15    H     0.32122   0.56036   0.05813   0.00000  Uiso   1.00
C16    C     0.67745   0.03601   0.53410   0.00000  Uiso   1.00
O17    O     0.32248   0.17285   0.66604   0.00000  Uiso   1.00
H18    H     0.82025   0.06116   0.55813   0.00000  Uiso   1.00
C19    C     0.81416   0.96665   0.03287   0.00000  Uiso   1.00
O20    O     0.16809   0.83140   0.16746   0.00000  Uiso   1.00
H21    H     0.67135   0.94166   0.05713   0.00000  Uiso   1.00
C22    C     0.31346   0.46700   0.53273   0.00000  Uiso   1.00
O23    O     0.66579   0.33132   0.66775   0.00000  Uiso   1.00
H24    H     0.17027   0.44223   0.55671   0.00000  Uiso   1.00
C25    C     0.17786   0.96695   0.03264   0.00000  Uiso   1.00
O26    O     0.82498   0.83086   0.16671   0.00000  Uiso   1.00
H27    H     0.32106   0.94220   0.05668   0.00000  Uiso   1.00
C28    C     0.67714   0.46697   0.53339   0.00000  Uiso   1.00
O29    O     0.32265   0.33102   0.66679   0.00000  Uiso   1.00
H30    H     0.81992   0.44216   0.55792   0.00000  Uiso   1.00
C31    C     0.81435   0.53577   0.03441   0.00000  Uiso   1.00
O32    O     0.16820   0.67251   0.16704   0.00000  Uiso   1.00
H33    H     0.67154   0.56074   0.05862   0.00000  Uiso   1.00
C34    C     0.31375   0.03573   0.53383   0.00000  Uiso   1.00
O35    O     0.66595   0.17272   0.66692   0.00000  Uiso   1.00
H36    H     0.17056   0.06060   0.55765   0.00000  Uiso   1.00
C37    C     0.81384   0.46766   0.96991   0.00000  Uiso   1.00
O38    O     0.16590   0.33088   0.83633   0.00000  Uiso   1.00
H39    H     0.67064   0.44295   0.94588   0.00000  Uiso   1.00
C40    C     0.31427   0.96732   0.46981   0.00000  Uiso   1.00
O41    O     0.66801   0.83070   0.33700   0.00000  Uiso   1.00
H42    H     0.17145   0.94226   0.44575   0.00000  Uiso   1.00
C43    C     0.17728   0.03469   0.96755   0.00000  Uiso   1.00
O44    O     0.82251   0.17213   0.83641   0.00000  Uiso   1.00
H45    H     0.32008   0.05940   0.94292   0.00000  Uiso   1.00
C46    C     0.67773   0.53460   0.46811   0.00000  Uiso   1.00
O47    O     0.32472   0.67232   0.33626   0.00000  Uiso   1.00
H48    H     0.82092   0.55909   0.44375   0.00000  Uiso   1.00
Al49   Al    0.24389   0.25169   0.75134   0.00000  Uiso   1.00
Al50   Al    0.74409   0.25175   0.75206   0.00000  Uiso   1.00
Al51   Al    0.74585   0.75182   0.25153   0.00000  Uiso   1.00
Al52   Al    0.24601   0.75185   0.25188   0.00000  Uiso   1.00
O53    O    -0.00638   0.25219   0.69900   0.00000  Uiso   1.00
O54    O     0.49579   0.75299   0.19897   0.00000  Uiso   1.00
O55    O    -0.00422   0.75251   0.30440   0.00000  Uiso   1.00
O56    O     0.49363   0.25163   0.80446   0.00000  Uiso   1.00
C57    C    -0.00375   0.93167   0.06659   0.00000  Uiso   1.00
C58    C    -0.00344   0.86012   0.13765   0.00000  Uiso   1.00
C59    C     0.49502   0.43188   0.56694   0.00000  Uiso   1.00
C60    C     0.49444   0.36024   0.63793   0.00000  Uiso   1.00
C61    C    -0.00361   0.57119   0.06756   0.00000  Uiso   1.00
C62    C    -0.00352   0.64336   0.13781   0.00000  Uiso   1.00
C63    C     0.49528   0.07153   0.56703   0.00000  Uiso   1.00
C64    C     0.49452   0.14369   0.63723   0.00000  Uiso   1.00
C65    C    -0.00464   0.43201   0.93645   0.00000  Uiso   1.00
C66    C    -0.00544   0.35995   0.86603   0.00000  Uiso   1.00
C67    C     0.49633   0.93181   0.43681   0.00000  Uiso   1.00
C68    C     0.49645   0.85973   0.36646   0.00000  Uiso   1.00
C69    C    -0.00489   0.07012   0.93451   0.00000  Uiso   1.00
C70    C    -0.00551   0.14262   0.86478   0.00000  Uiso   1.00
C71    C     0.49613   0.57017   0.43453   0.00000  Uiso   1.00
C72    C     0.49649   0.64266   0.36475   0.00000  Uiso   1.00
H73    H     0.49329   0.25148   0.86792   0.00000  Uiso   1.00
H74    H    -0.00672   0.25295   0.63556   0.00000  Uiso   1.00
H75    H    -0.00439   0.75342   0.36783   0.00000  Uiso   1.00
H76    H     0.49563   0.75467   0.13555   0.00000  Uiso   1.00
loop_
_geom_bond_atom_site_label_1
_geom_bond_atom_site_label_2
_geom_bond_distance
_geom_bond_site_symmetry_2
_ccdc_geom_bond_type
C1     H3      1.080   .     S
C1     C19     1.410   1_546 S
C1     C69     1.409   1_655 S
O2     Al49    1.802   .     S
O2     C70     1.294   .     A
C4     C22     1.410   .     A
C4     C71     1.409   .     A
C4     H6      1.080   .     S
O5     Al51    1.803   .     S
O5     C72     1.294   .     A
C7     C65     1.410   .     A
C7     H9      1.080   .     S
C7     C13     1.411   1_556 A
O8     Al50    1.803   .     S
O8     C66     1.294   1_655 A
C10    C67     1.410   .     A
C10    H12     1.080   .     S
C10    C16     1.410   1_565 A
O11    Al52    1.802   .     S
O11    C68     1.293   .     A
C13    C61     1.410   .     A
C13    H15     1.080   .     S
C13    C7      1.411   1_554 A
O14    Al51    1.802   .     S
O14    C62     1.294   1_655 S
C16    C63     1.410   .     A
C16    H18     1.080   .     S
C16    C10     1.410   1_545 A
O17    Al49    1.802   .     S
O17    C64     1.294   .     A
C19    H21     1.080   .     S
C19    C1      1.410   1_564 S
C19    C57     1.409   1_655 S
O20    Al52    1.802   .     S
O20    C58     1.293   .     A
C22    C59     1.409   .     A
C22    H24     1.080   .     S
O23    Al50    1.802   .     S
O23    C60     1.293   .     A
C25    C57     1.409   .     A
C25    H27     1.080   .     S
C25    C43     1.410   1_564 S
O26    Al51    1.802   .     S
O26    C58     1.293   1_655 A
C28    C46     1.410   .     A
C28    C59     1.409   .     A
C28    H30     1.080   .     S
O29    Al49    1.802   .     S
O29    C60     1.293   .     A
C31    H33     1.080   .     S
C31    C37     1.410   1_554 S
C31    C61     1.409   1_655 S
O32    Al52    1.803   .     S
O32    C62     1.294   .     A
C34    C63     1.409   .     A
C34    H36     1.080   .     S
C34    C40     1.410   1_545 A
O35    Al50    1.802   .     S
O35    C64     1.293   .     A
C37    H39     1.080   .     S
C37    C31     1.410   1_556 S
C37    C65     1.409   1_655 S
O38    Al49    1.803   .     S
O38    C66     1.293   .     A
C40    C67     1.409   .     A
C40    H42     1.080   .     S
C40    C34     1.410   1_565 A
O41    Al51    1.803   .     S
O41    C68     1.293   .     A
C43    C69     1.410   .     A
C43    H45     1.080   .     S
C43    C25     1.410   1_546 S
O44    Al50    1.803   .     S
O44    C70     1.294   1_655 S
C46    C71     1.410   .     A
C46    H48     1.080   .     S
O47    Al52    1.803   .     S
O47    C72     1.294   .     A
Al49   O53     1.803   .     S
Al49   O56     1.804   .     S
Al50   O56     1.805   .     S
Al50   O53     1.803   1_655 S
Al51   O54     1.803   .     S
Al51   O55     1.804   1_655 A
Al52   O55     1.804   .     S
Al52   O54     1.804   .     S
O53    H74     0.862   .     S
O53    Al50    1.803   1_455 S
O54    H76     0.862   .     S
O55    H75     0.862   .     S
O55    Al51    1.804   1_455 A
O56    H73     0.862   .     S
C57    C58     1.509   .     S
C57    C19     1.409   1_455 S
C58    O26     1.293   1_455 A
C59    C60     1.510   .     S
C61    C62     1.510   .     S
C61    C31     1.409   1_455 S
C62    O14     1.294   1_455 S
C63    C64     1.510   .     S
C65    C66     1.510   .     S
C65    C37     1.409   1_455 S
C66    O8      1.294   1_455 A
C67    C68     1.510   .     S
C69    C70     1.510   .     S
C69    C1      1.409   1_455 S
C70    O44     1.294   1_455 S
C71    C72     1.510   .     S
