data_image0
_cell_length_a       27.156
_cell_length_b       26.242
_cell_length_c       13.2949
_cell_angle_alpha    90
_cell_angle_beta     90.57
_cell_angle_gamma    90

_symmetry_space_group_name_H-M    "P 1"
_symmetry_int_tables_number       1

loop_
  _symmetry_equiv_pos_as_xyz
  'x, y, z'

loop_
  _atom_site_label
  _atom_site_occupancy
  _atom_site_fract_x
  _atom_site_fract_y
  _atom_site_fract_z
  _atom_site_thermal_displace_type
  _atom_site_B_iso_or_equiv
  _atom_site_type_symbol
  Cd1      1.0000 0.06174  0.42034  0.17877  Biso   1.000  Cd
  Cd2      1.0000 0.08705  0.42014  0.87441  Biso   1.000  Cd
  N1       1.0000 0.11380  0.37480  0.28870  Biso   1.000  N
  N2       1.0000 0.14010  0.36860  0.77720  Biso   1.000  N
  C1       1.0000 0.18050  0.31890  0.40510  Biso   1.000  C
  C2       1.0000 0.19020  0.31110  0.63310  Biso   1.000  C
  C3       1.0000 0.14240  0.31830  0.78310  Biso   1.000  C
  H1       1.0000 0.12720  0.30250  0.83710  Biso   1.000  H
  C4       1.0000 0.16170  0.38200  0.28360  Biso   1.000  C
  H2       1.0000 0.17240  0.40710  0.23970  Biso   1.000  H
  C5       1.0000 0.13210  0.31180  0.41380  Biso   1.000  C
  H3       1.0000 0.12030  0.28790  0.45930  Biso   1.000  H
  C6       1.0000 0.16630  0.28780  0.71360  Biso   1.000  C
  H4       1.0000 0.16630  0.25250  0.72040  Biso   1.000  H
  C7       1.0000 0.24810  0.25560  0.39620  Biso   1.000  C
  H5       1.0000 0.24590  0.25850  0.32660  Biso   1.000  H
  C8       1.0000 0.21850  0.27910  0.56010  Biso   1.000  C
  C9       1.0000 0.19740  0.35600  0.33720  Biso   1.000  C
  H6       1.0000 0.23070  0.36260  0.32900  Biso   1.000  H
  C10      1.0000 0.18650  0.36320  0.62560  Biso   1.000  C
  H7       1.0000 0.20050  0.38010  0.57140  Biso   1.000  H
  C11      1.0000 0.16210  0.39030  0.69790  Biso   1.000  C
  H8       1.0000 0.16070  0.42560  0.69170  Biso   1.000  H
  C12      1.0000 0.21720  0.28670  0.45950  Biso   1.000  C
  C13      1.0000 0.09880  0.34030  0.35430  Biso   1.000  C
  H9       1.0000 0.06520  0.33470  0.36140  Biso   1.000  H
  S1       1.0000 0.97948  0.40776  0.25960  Biso   1.000  S
  C14      1.0000 0.97520  0.34080  0.27810  Biso   1.000  C
  C15      1.0000 0.96250  0.32190  0.37290  Biso   1.000  C
  H10      1.0000 0.95570  0.34470  0.42440  Biso   1.000  H
  C16      1.0000 0.96000  0.27040  0.39190  Biso   1.000  C
  H11      1.0000 0.95180  0.25870  0.45560  Biso   1.000  H
  C17      1.0000 0.96970  0.23620  0.31490  Biso   1.000  C
  H12      1.0000 0.96730  0.20140  0.32680  Biso   1.000  H
  C18      1.0000 0.98310  0.25370  0.22000  Biso   1.000  C
  H13      1.0000 0.99050  0.23100  0.16870  Biso   1.000  H
  C19      1.0000 0.98510  0.30590  0.20430  Biso   1.000  C
  H14      1.0000 0.99350  0.31780  0.14080  Biso   1.000  H
  S2       1.0000 0.08078  0.36502  0.02665  Biso   1.000  S
  C20      1.0000 0.13950  0.33740  0.05290  Biso   1.000  C
  C21      1.0000 0.18280  0.35930  0.02730  Biso   1.000  C
  H15      1.0000 0.18260  0.39100  0.99600  Biso   1.000  H
  C22      1.0000 0.22760  0.33510  0.04700  Biso   1.000  C
  H16      1.0000 0.25640  0.35080  0.02580  Biso   1.000  H
  C23      1.0000 0.23120  0.28960  0.09580  Biso   1.000  C
  H17      1.0000 0.26130  0.27490  0.11320  Biso   1.000  H
  C24      1.0000 0.18710  0.26700  0.11720  Biso   1.000  C
  H18      1.0000 0.18710  0.23430  0.14410  Biso   1.000  H
  C25      1.0000 0.14230  0.29100  0.10050  Biso   1.000  C
  H19      1.0000 0.11350  0.27540  0.12190  Biso   1.000  H
  Cd3      1.0000 0.56174  0.92034  0.17877  Biso   1.000  Cd
  Cd4      1.0000 0.58705  0.92014  0.87441  Biso   1.000  Cd
  N3       1.0000 0.61380  0.87480  0.28870  Biso   1.000  N
  N4       1.0000 0.64010  0.86860  0.77720  Biso   1.000  N
  C26      1.0000 0.68050  0.81890  0.40510  Biso   1.000  C
  C27      1.0000 0.69020  0.81110  0.63310  Biso   1.000  C
  C28      1.0000 0.64240  0.81830  0.78310  Biso   1.000  C
  H20      1.0000 0.62720  0.80250  0.83710  Biso   1.000  H
  C29      1.0000 0.66170  0.88200  0.28360  Biso   1.000  C
  H21      1.0000 0.67240  0.90710  0.23970  Biso   1.000  H
  C30      1.0000 0.63210  0.81180  0.41380  Biso   1.000  C
  H22      1.0000 0.62030  0.78790  0.45930  Biso   1.000  H
  C31      1.0000 0.66630  0.78780  0.71360  Biso   1.000  C
  H23      1.0000 0.66630  0.75250  0.72040  Biso   1.000  H
  C32      1.0000 0.74810  0.75560  0.39620  Biso   1.000  C
  H24      1.0000 0.74590  0.75850  0.32660  Biso   1.000  H
  C33      1.0000 0.71850  0.77910  0.56010  Biso   1.000  C
  C34      1.0000 0.69740  0.85600  0.33720  Biso   1.000  C
  H25      1.0000 0.73070  0.86260  0.32900  Biso   1.000  H
  C35      1.0000 0.68650  0.86320  0.62560  Biso   1.000  C
  H26      1.0000 0.70050  0.88010  0.57140  Biso   1.000  H
  C36      1.0000 0.66210  0.89030  0.69790  Biso   1.000  C
  H27      1.0000 0.66070  0.92560  0.69170  Biso   1.000  H
  C37      1.0000 0.71720  0.78670  0.45950  Biso   1.000  C
  C38      1.0000 0.59880  0.84030  0.35430  Biso   1.000  C
  H28      1.0000 0.56520  0.83470  0.36140  Biso   1.000  H
  S3       1.0000 0.47948  0.90776  0.25960  Biso   1.000  S
  C39      1.0000 0.47520  0.84080  0.27810  Biso   1.000  C
  C40      1.0000 0.46250  0.82190  0.37290  Biso   1.000  C
  H29      1.0000 0.45570  0.84470  0.42440  Biso   1.000  H
  C41      1.0000 0.46000  0.77040  0.39190  Biso   1.000  C
  H30      1.0000 0.45180  0.75870  0.45560  Biso   1.000  H
  C42      1.0000 0.46970  0.73620  0.31490  Biso   1.000  C
  H31      1.0000 0.46730  0.70140  0.32680  Biso   1.000  H
  C43      1.0000 0.48310  0.75370  0.22000  Biso   1.000  C
  H32      1.0000 0.49050  0.73100  0.16870  Biso   1.000  H
  C44      1.0000 0.48510  0.80590  0.20430  Biso   1.000  C
  H33      1.0000 0.49350  0.81780  0.14080  Biso   1.000  H
  S4       1.0000 0.58078  0.86502  0.02665  Biso   1.000  S
  C45      1.0000 0.63950  0.83740  0.05290  Biso   1.000  C
  C46      1.0000 0.68280  0.85930  0.02730  Biso   1.000  C
  H34      1.0000 0.68260  0.89100  0.99600  Biso   1.000  H
  C47      1.0000 0.72760  0.83510  0.04700  Biso   1.000  C
  H35      1.0000 0.75640  0.85080  0.02580  Biso   1.000  H
  C48      1.0000 0.73120  0.78960  0.09580  Biso   1.000  C
  H36      1.0000 0.76130  0.77490  0.11320  Biso   1.000  H
  C49      1.0000 0.68710  0.76700  0.11720  Biso   1.000  C
  H37      1.0000 0.68710  0.73430  0.14410  Biso   1.000  H
  C50      1.0000 0.64230  0.79100  0.10050  Biso   1.000  C
  H38      1.0000 0.61350  0.77540  0.12190  Biso   1.000  H
  Cd5      1.0000 0.93826  0.42034  0.82123  Biso   1.000  Cd
  Cd6      1.0000 0.91295  0.42014  0.12559  Biso   1.000  Cd
  N5       1.0000 0.88620  0.37480  0.71130  Biso   1.000  N
  N6       1.0000 0.85990  0.36860  0.22280  Biso   1.000  N
  C51      1.0000 0.81950  0.31890  0.59490  Biso   1.000  C
  C52      1.0000 0.80980  0.31110  0.36690  Biso   1.000  C
  C53      1.0000 0.85760  0.31830  0.21690  Biso   1.000  C
  H39      1.0000 0.87280  0.30250  0.16290  Biso   1.000  H
  C54      1.0000 0.83830  0.38200  0.71640  Biso   1.000  C
  H40      1.0000 0.82760  0.40710  0.76030  Biso   1.000  H
  C55      1.0000 0.86790  0.31180  0.58620  Biso   1.000  C
  H41      1.0000 0.87970  0.28790  0.54070  Biso   1.000  H
  C56      1.0000 0.83370  0.28780  0.28640  Biso   1.000  C
  H42      1.0000 0.83370  0.25250  0.27960  Biso   1.000  H
  C57      1.0000 0.75190  0.25560  0.60380  Biso   1.000  C
  H43      1.0000 0.75410  0.25850  0.67340  Biso   1.000  H
  C58      1.0000 0.78150  0.27910  0.43990  Biso   1.000  C
  C59      1.0000 0.80260  0.35600  0.66280  Biso   1.000  C
  H44      1.0000 0.76930  0.36260  0.67100  Biso   1.000  H
  C60      1.0000 0.81350  0.36320  0.37440  Biso   1.000  C
  H45      1.0000 0.79950  0.38010  0.42860  Biso   1.000  H
  C61      1.0000 0.83790  0.39030  0.30210  Biso   1.000  C
  H46      1.0000 0.83930  0.42560  0.30830  Biso   1.000  H
  C62      1.0000 0.78280  0.28670  0.54050  Biso   1.000  C
  C63      1.0000 0.90120  0.34030  0.64570  Biso   1.000  C
  H47      1.0000 0.93480  0.33470  0.63860  Biso   1.000  H
  S5       1.0000 0.02052  0.40776  0.74040  Biso   1.000  S
  C64      1.0000 0.02480  0.34080  0.72190  Biso   1.000  C
  C65      1.0000 0.03750  0.32190  0.62710  Biso   1.000  C
  H48      1.0000 0.04430  0.34470  0.57560  Biso   1.000  H
  C66      1.0000 0.04000  0.27040  0.60810  Biso   1.000  C
  H49      1.0000 0.04820  0.25870  0.54440  Biso   1.000  H
  C67      1.0000 0.03030  0.23620  0.68510  Biso   1.000  C
  H50      1.0000 0.03270  0.20140  0.67320  Biso   1.000  H
  C68      1.0000 0.01690  0.25370  0.78000  Biso   1.000  C
  H51      1.0000 0.00950  0.23100  0.83130  Biso   1.000  H
  C69      1.0000 0.01490  0.30590  0.79570  Biso   1.000  C
  H52      1.0000 0.00650  0.31780  0.85920  Biso   1.000  H
  S6       1.0000 0.91922  0.36502  0.97335  Biso   1.000  S
  C70      1.0000 0.86050  0.33740  0.94710  Biso   1.000  C
  C71      1.0000 0.81720  0.35930  0.97270  Biso   1.000  C
  H53      1.0000 0.81740  0.39100  0.00400  Biso   1.000  H
  C72      1.0000 0.77240  0.33510  0.95300  Biso   1.000  C
  H54      1.0000 0.74360  0.35080  0.97420  Biso   1.000  H
  C73      1.0000 0.76880  0.28960  0.90420  Biso   1.000  C
  H55      1.0000 0.73870  0.27490  0.88680  Biso   1.000  H
  C74      1.0000 0.81290  0.26700  0.88280  Biso   1.000  C
  H56      1.0000 0.81290  0.23430  0.85590  Biso   1.000  H
  C75      1.0000 0.85770  0.29100  0.89950  Biso   1.000  C
  H57      1.0000 0.88650  0.27540  0.87810  Biso   1.000  H
  Cd7      1.0000 0.43826  0.92034  0.82123  Biso   1.000  Cd
  Cd8      1.0000 0.41295  0.92014  0.12559  Biso   1.000  Cd
  N7       1.0000 0.38620  0.87480  0.71130  Biso   1.000  N
  N8       1.0000 0.35990  0.86860  0.22280  Biso   1.000  N
  C76      1.0000 0.31950  0.81890  0.59490  Biso   1.000  C
  C77      1.0000 0.30980  0.81110  0.36690  Biso   1.000  C
  C78      1.0000 0.35760  0.81830  0.21690  Biso   1.000  C
  H58      1.0000 0.37280  0.80250  0.16290  Biso   1.000  H
  C79      1.0000 0.33830  0.88200  0.71640  Biso   1.000  C
  H59      1.0000 0.32760  0.90710  0.76030  Biso   1.000  H
  C80      1.0000 0.36790  0.81180  0.58620  Biso   1.000  C
  H60      1.0000 0.37970  0.78790  0.54070  Biso   1.000  H
  C81      1.0000 0.33370  0.78780  0.28640  Biso   1.000  C
  H61      1.0000 0.33370  0.75250  0.27960  Biso   1.000  H
  C82      1.0000 0.25190  0.75560  0.60380  Biso   1.000  C
  H62      1.0000 0.25410  0.75850  0.67340  Biso   1.000  H
  C83      1.0000 0.28150  0.77910  0.43990  Biso   1.000  C
  C84      1.0000 0.30260  0.85600  0.66280  Biso   1.000  C
  H63      1.0000 0.26930  0.86260  0.67100  Biso   1.000  H
  C85      1.0000 0.31350  0.86320  0.37440  Biso   1.000  C
  H64      1.0000 0.29950  0.88010  0.42860  Biso   1.000  H
  C86      1.0000 0.33790  0.89030  0.30210  Biso   1.000  C
  H65      1.0000 0.33930  0.92560  0.30830  Biso   1.000  H
  C87      1.0000 0.28280  0.78670  0.54050  Biso   1.000  C
  C88      1.0000 0.40120  0.84030  0.64570  Biso   1.000  C
  H66      1.0000 0.43480  0.83470  0.63860  Biso   1.000  H
  S7       1.0000 0.52052  0.90776  0.74040  Biso   1.000  S
  C89      1.0000 0.52480  0.84080  0.72190  Biso   1.000  C
  C90      1.0000 0.53750  0.82190  0.62710  Biso   1.000  C
  H67      1.0000 0.54430  0.84470  0.57560  Biso   1.000  H
  C91      1.0000 0.54000  0.77040  0.60810  Biso   1.000  C
  H68      1.0000 0.54820  0.75870  0.54440  Biso   1.000  H
  C92      1.0000 0.53030  0.73620  0.68510  Biso   1.000  C
  H69      1.0000 0.53270  0.70140  0.67320  Biso   1.000  H
  C93      1.0000 0.51690  0.75370  0.78000  Biso   1.000  C
  H70      1.0000 0.50950  0.73100  0.83130  Biso   1.000  H
  C94      1.0000 0.51490  0.80590  0.79570  Biso   1.000  C
  H71      1.0000 0.50650  0.81780  0.85920  Biso   1.000  H
  S8       1.0000 0.41922  0.86502  0.97335  Biso   1.000  S
  C95      1.0000 0.36050  0.83740  0.94710  Biso   1.000  C
  C96      1.0000 0.31720  0.85930  0.97270  Biso   1.000  C
  H72      1.0000 0.31740  0.89100  0.00400  Biso   1.000  H
  C97      1.0000 0.27240  0.83510  0.95300  Biso   1.000  C
  H73      1.0000 0.24360  0.85080  0.97420  Biso   1.000  H
  C98      1.0000 0.26880  0.78960  0.90420  Biso   1.000  C
  H74      1.0000 0.23870  0.77490  0.88680  Biso   1.000  H
  C99      1.0000 0.31290  0.76700  0.88280  Biso   1.000  C
  H75      1.0000 0.31290  0.73430  0.85590  Biso   1.000  H
  C100     1.0000 0.35770  0.79100  0.89950  Biso   1.000  C
  H76      1.0000 0.38650  0.77540  0.87810  Biso   1.000  H
  Cd9      1.0000 0.93826  0.57966  0.82123  Biso   1.000  Cd
  Cd10     1.0000 0.91295  0.57986  0.12559  Biso   1.000  Cd
  N9       1.0000 0.88620  0.62520  0.71130  Biso   1.000  N
  N10      1.0000 0.85990  0.63140  0.22280  Biso   1.000  N
  C101     1.0000 0.81950  0.68110  0.59490  Biso   1.000  C
  C102     1.0000 0.80980  0.68890  0.36690  Biso   1.000  C
  C103     1.0000 0.85760  0.68170  0.21690  Biso   1.000  C
  H77      1.0000 0.87280  0.69750  0.16290  Biso   1.000  H
  C104     1.0000 0.83830  0.61800  0.71640  Biso   1.000  C
  H78      1.0000 0.82760  0.59290  0.76030  Biso   1.000  H
  C105     1.0000 0.86790  0.68820  0.58620  Biso   1.000  C
  H79      1.0000 0.87970  0.71210  0.54070  Biso   1.000  H
  C106     1.0000 0.83370  0.71220  0.28640  Biso   1.000  C
  H80      1.0000 0.83370  0.74750  0.27960  Biso   1.000  H
  C107     1.0000 0.75190  0.74440  0.60380  Biso   1.000  C
  H81      1.0000 0.75410  0.74150  0.67340  Biso   1.000  H
  C108     1.0000 0.78150  0.72090  0.43990  Biso   1.000  C
  C109     1.0000 0.80260  0.64400  0.66280  Biso   1.000  C
  H82      1.0000 0.76930  0.63740  0.67100  Biso   1.000  H
  C110     1.0000 0.81350  0.63680  0.37440  Biso   1.000  C
  H83      1.0000 0.79950  0.61990  0.42860  Biso   1.000  H
  C111     1.0000 0.83790  0.60970  0.30210  Biso   1.000  C
  H84      1.0000 0.83930  0.57440  0.30830  Biso   1.000  H
  C112     1.0000 0.78280  0.71330  0.54050  Biso   1.000  C
  C113     1.0000 0.90120  0.65970  0.64570  Biso   1.000  C
  H85      1.0000 0.93480  0.66530  0.63860  Biso   1.000  H
  S9       1.0000 0.02052  0.59224  0.74040  Biso   1.000  S
  C114     1.0000 0.02480  0.65920  0.72190  Biso   1.000  C
  C115     1.0000 0.03750  0.67810  0.62710  Biso   1.000  C
  H86      1.0000 0.04430  0.65530  0.57560  Biso   1.000  H
  C116     1.0000 0.04000  0.72960  0.60810  Biso   1.000  C
  H87      1.0000 0.04820  0.74130  0.54440  Biso   1.000  H
  C117     1.0000 0.03030  0.76380  0.68510  Biso   1.000  C
  H88      1.0000 0.03270  0.79860  0.67320  Biso   1.000  H
  C118     1.0000 0.01690  0.74630  0.78000  Biso   1.000  C
  H89      1.0000 0.00950  0.76900  0.83130  Biso   1.000  H
  C119     1.0000 0.01490  0.69410  0.79570  Biso   1.000  C
  H90      1.0000 0.00650  0.68220  0.85920  Biso   1.000  H
  S10      1.0000 0.91922  0.63498  0.97335  Biso   1.000  S
  C120     1.0000 0.86050  0.66260  0.94710  Biso   1.000  C
  C121     1.0000 0.81720  0.64070  0.97270  Biso   1.000  C
  H91      1.0000 0.81740  0.60900  0.00400  Biso   1.000  H
  C122     1.0000 0.77240  0.66490  0.95300  Biso   1.000  C
  H92      1.0000 0.74360  0.64920  0.97420  Biso   1.000  H
  C123     1.0000 0.76880  0.71040  0.90420  Biso   1.000  C
  H93      1.0000 0.73870  0.72510  0.88680  Biso   1.000  H
  C124     1.0000 0.81290  0.73300  0.88280  Biso   1.000  C
  H94      1.0000 0.81290  0.76570  0.85590  Biso   1.000  H
  C125     1.0000 0.85770  0.70900  0.89950  Biso   1.000  C
  H95      1.0000 0.88650  0.72460  0.87810  Biso   1.000  H
  Cd11     1.0000 0.43826  0.07966  0.82123  Biso   1.000  Cd
  Cd12     1.0000 0.41295  0.07986  0.12559  Biso   1.000  Cd
  N11      1.0000 0.38620  0.12520  0.71130  Biso   1.000  N
  N12      1.0000 0.35990  0.13140  0.22280  Biso   1.000  N
  C126     1.0000 0.31950  0.18110  0.59490  Biso   1.000  C
  C127     1.0000 0.30980  0.18890  0.36690  Biso   1.000  C
  C128     1.0000 0.35760  0.18170  0.21690  Biso   1.000  C
  H96      1.0000 0.37280  0.19750  0.16290  Biso   1.000  H
  C129     1.0000 0.33830  0.11800  0.71640  Biso   1.000  C
  H97      1.0000 0.32760  0.09290  0.76030  Biso   1.000  H
  C130     1.0000 0.36790  0.18820  0.58620  Biso   1.000  C
  H98      1.0000 0.37970  0.21210  0.54070  Biso   1.000  H
  C131     1.0000 0.33370  0.21220  0.28640  Biso   1.000  C
  H99      1.0000 0.33370  0.24750  0.27960  Biso   1.000  H
  C132     1.0000 0.25190  0.24440  0.60380  Biso   1.000  C
  H100     1.0000 0.25410  0.24150  0.67340  Biso   1.000  H
  C133     1.0000 0.28150  0.22090  0.43990  Biso   1.000  C
  C134     1.0000 0.30260  0.14400  0.66280  Biso   1.000  C
  H101     1.0000 0.26930  0.13740  0.67100  Biso   1.000  H
  C135     1.0000 0.31350  0.13680  0.37440  Biso   1.000  C
  H102     1.0000 0.29950  0.11990  0.42860  Biso   1.000  H
  C136     1.0000 0.33790  0.10970  0.30210  Biso   1.000  C
  H103     1.0000 0.33930  0.07440  0.30830  Biso   1.000  H
  C137     1.0000 0.28280  0.21330  0.54050  Biso   1.000  C
  C138     1.0000 0.40120  0.15970  0.64570  Biso   1.000  C
  H104     1.0000 0.43480  0.16530  0.63860  Biso   1.000  H
  S11      1.0000 0.52052  0.09224  0.74040  Biso   1.000  S
  C139     1.0000 0.52480  0.15920  0.72190  Biso   1.000  C
  C140     1.0000 0.53750  0.17810  0.62710  Biso   1.000  C
  H105     1.0000 0.54430  0.15530  0.57560  Biso   1.000  H
  C141     1.0000 0.54000  0.22960  0.60810  Biso   1.000  C
  H106     1.0000 0.54820  0.24130  0.54440  Biso   1.000  H
  C142     1.0000 0.53030  0.26380  0.68510  Biso   1.000  C
  H107     1.0000 0.53270  0.29860  0.67320  Biso   1.000  H
  C143     1.0000 0.51690  0.24630  0.78000  Biso   1.000  C
  H108     1.0000 0.50950  0.26900  0.83130  Biso   1.000  H
  C144     1.0000 0.51490  0.19410  0.79570  Biso   1.000  C
  H109     1.0000 0.50650  0.18220  0.85920  Biso   1.000  H
  S12      1.0000 0.41922  0.13498  0.97335  Biso   1.000  S
  C145     1.0000 0.36050  0.16260  0.94710  Biso   1.000  C
  C146     1.0000 0.31720  0.14070  0.97270  Biso   1.000  C
  H110     1.0000 0.31740  0.10900  0.00400  Biso   1.000  H
  C147     1.0000 0.27240  0.16490  0.95300  Biso   1.000  C
  H111     1.0000 0.24360  0.14920  0.97420  Biso   1.000  H
  C148     1.0000 0.26880  0.21040  0.90420  Biso   1.000  C
  H112     1.0000 0.23870  0.22510  0.88680  Biso   1.000  H
  C149     1.0000 0.31290  0.23300  0.88280  Biso   1.000  C
  H113     1.0000 0.31290  0.26570  0.85590  Biso   1.000  H
  C150     1.0000 0.35770  0.20900  0.89950  Biso   1.000  C
  H114     1.0000 0.38650  0.22460  0.87810  Biso   1.000  H
  Cd13     1.0000 0.06174  0.57966  0.17877  Biso   1.000  Cd
  Cd14     1.0000 0.08705  0.57986  0.87441  Biso   1.000  Cd
  N13      1.0000 0.11380  0.62520  0.28870  Biso   1.000  N
  N14      1.0000 0.14010  0.63140  0.77720  Biso   1.000  N
  C151     1.0000 0.18050  0.68110  0.40510  Biso   1.000  C
  C152     1.0000 0.19020  0.68890  0.63310  Biso   1.000  C
  C153     1.0000 0.14240  0.68170  0.78310  Biso   1.000  C
  H115     1.0000 0.12720  0.69750  0.83710  Biso   1.000  H
  C154     1.0000 0.16170  0.61800  0.28360  Biso   1.000  C
  H116     1.0000 0.17240  0.59290  0.23970  Biso   1.000  H
  C155     1.0000 0.13210  0.68820  0.41380  Biso   1.000  C
  H117     1.0000 0.12030  0.71210  0.45930  Biso   1.000  H
  C156     1.0000 0.16630  0.71220  0.71360  Biso   1.000  C
  H118     1.0000 0.16630  0.74750  0.72040  Biso   1.000  H
  C157     1.0000 0.24810  0.74440  0.39620  Biso   1.000  C
  H119     1.0000 0.24590  0.74150  0.32660  Biso   1.000  H
  C158     1.0000 0.21850  0.72090  0.56010  Biso   1.000  C
  C159     1.0000 0.19740  0.64400  0.33720  Biso   1.000  C
  H120     1.0000 0.23070  0.63740  0.32900  Biso   1.000  H
  C160     1.0000 0.18650  0.63680  0.62560  Biso   1.000  C
  H121     1.0000 0.20050  0.61990  0.57140  Biso   1.000  H
  C161     1.0000 0.16210  0.60970  0.69790  Biso   1.000  C
  H122     1.0000 0.16070  0.57440  0.69170  Biso   1.000  H
  C162     1.0000 0.21720  0.71330  0.45950  Biso   1.000  C
  C163     1.0000 0.09880  0.65970  0.35430  Biso   1.000  C
  H123     1.0000 0.06520  0.66530  0.36140  Biso   1.000  H
  S13      1.0000 0.97948  0.59224  0.25960  Biso   1.000  S
  C164     1.0000 0.97520  0.65920  0.27810  Biso   1.000  C
  C165     1.0000 0.96250  0.67810  0.37290  Biso   1.000  C
  H124     1.0000 0.95570  0.65530  0.42440  Biso   1.000  H
  C166     1.0000 0.96000  0.72960  0.39190  Biso   1.000  C
  H125     1.0000 0.95180  0.74130  0.45560  Biso   1.000  H
  C167     1.0000 0.96970  0.76380  0.31490  Biso   1.000  C
  H126     1.0000 0.96730  0.79860  0.32680  Biso   1.000  H
  C168     1.0000 0.98310  0.74630  0.22000  Biso   1.000  C
  H127     1.0000 0.99050  0.76900  0.16870  Biso   1.000  H
  C169     1.0000 0.98510  0.69410  0.20430  Biso   1.000  C
  H128     1.0000 0.99350  0.68220  0.14080  Biso   1.000  H
  S14      1.0000 0.08078  0.63498  0.02665  Biso   1.000  S
  C170     1.0000 0.13950  0.66260  0.05290  Biso   1.000  C
  C171     1.0000 0.18280  0.64070  0.02730  Biso   1.000  C
  H129     1.0000 0.18260  0.60900  0.99600  Biso   1.000  H
  C172     1.0000 0.22760  0.66490  0.04700  Biso   1.000  C
  H130     1.0000 0.25640  0.64920  0.02580  Biso   1.000  H
  C173     1.0000 0.23120  0.71040  0.09580  Biso   1.000  C
  H131     1.0000 0.26130  0.72510  0.11320  Biso   1.000  H
  C174     1.0000 0.18710  0.73300  0.11720  Biso   1.000  C
  H132     1.0000 0.18710  0.76570  0.14410  Biso   1.000  H
  C175     1.0000 0.14230  0.70900  0.10050  Biso   1.000  C
  H133     1.0000 0.11350  0.72460  0.12190  Biso   1.000  H
  Cd15     1.0000 0.56174  0.07966  0.17877  Biso   1.000  Cd
  Cd16     1.0000 0.58705  0.07986  0.87441  Biso   1.000  Cd
  N15      1.0000 0.61380  0.12520  0.28870  Biso   1.000  N
  N16      1.0000 0.64010  0.13140  0.77720  Biso   1.000  N
  C176     1.0000 0.68050  0.18110  0.40510  Biso   1.000  C
  C177     1.0000 0.69020  0.18890  0.63310  Biso   1.000  C
  C178     1.0000 0.64240  0.18170  0.78310  Biso   1.000  C
  H134     1.0000 0.62720  0.19750  0.83710  Biso   1.000  H
  C179     1.0000 0.66170  0.11800  0.28360  Biso   1.000  C
  H135     1.0000 0.67240  0.09290  0.23970  Biso   1.000  H
  C180     1.0000 0.63210  0.18820  0.41380  Biso   1.000  C
  H136     1.0000 0.62030  0.21210  0.45930  Biso   1.000  H
  C181     1.0000 0.66630  0.21220  0.71360  Biso   1.000  C
  H137     1.0000 0.66630  0.24750  0.72040  Biso   1.000  H
  C182     1.0000 0.74810  0.24440  0.39620  Biso   1.000  C
  H138     1.0000 0.74590  0.24150  0.32660  Biso   1.000  H
  C183     1.0000 0.71850  0.22090  0.56010  Biso   1.000  C
  C184     1.0000 0.69740  0.14400  0.33720  Biso   1.000  C
  H139     1.0000 0.73070  0.13740  0.32900  Biso   1.000  H
  C185     1.0000 0.68650  0.13680  0.62560  Biso   1.000  C
  H140     1.0000 0.70050  0.11990  0.57140  Biso   1.000  H
  C186     1.0000 0.66210  0.10970  0.69790  Biso   1.000  C
  H141     1.0000 0.66070  0.07440  0.69170  Biso   1.000  H
  C187     1.0000 0.71720  0.21330  0.45950  Biso   1.000  C
  C188     1.0000 0.59880  0.15970  0.35430  Biso   1.000  C
  H142     1.0000 0.56520  0.16530  0.36140  Biso   1.000  H
  S15      1.0000 0.47948  0.09224  0.25960  Biso   1.000  S
  C189     1.0000 0.47520  0.15920  0.27810  Biso   1.000  C
  C190     1.0000 0.46250  0.17810  0.37290  Biso   1.000  C
  H143     1.0000 0.45570  0.15530  0.42440  Biso   1.000  H
  C191     1.0000 0.46000  0.22960  0.39190  Biso   1.000  C
  H144     1.0000 0.45180  0.24130  0.45560  Biso   1.000  H
  C192     1.0000 0.46970  0.26380  0.31490  Biso   1.000  C
  H145     1.0000 0.46730  0.29860  0.32680  Biso   1.000  H
  C193     1.0000 0.48310  0.24630  0.22000  Biso   1.000  C
  H146     1.0000 0.49050  0.26900  0.16870  Biso   1.000  H
  C194     1.0000 0.48510  0.19410  0.20430  Biso   1.000  C
  H147     1.0000 0.49350  0.18220  0.14080  Biso   1.000  H
  S16      1.0000 0.58078  0.13498  0.02665  Biso   1.000  S
  C195     1.0000 0.63950  0.16260  0.05290  Biso   1.000  C
  C196     1.0000 0.68280  0.14070  0.02730  Biso   1.000  C
  H148     1.0000 0.68260  0.10900  0.99600  Biso   1.000  H
  C197     1.0000 0.72760  0.16490  0.04700  Biso   1.000  C
  H149     1.0000 0.75640  0.14920  0.02580  Biso   1.000  H
  C198     1.0000 0.73120  0.21040  0.09580  Biso   1.000  C
  H150     1.0000 0.76130  0.22510  0.11320  Biso   1.000  H
  C199     1.0000 0.68710  0.23300  0.11720  Biso   1.000  C
  H151     1.0000 0.68710  0.26570  0.14410  Biso   1.000  H
  C200     1.0000 0.64230  0.20900  0.10050  Biso   1.000  C
  H152     1.0000 0.61350  0.22460  0.12190  Biso   1.000  H
  S17      1.0000 0.13490  0.50000  0.83670  Biso   1.000  S
  C201     1.0000 0.18910  0.50000  0.90600  Biso   1.000  C
  C202     1.0000 0.19130  0.50000  0.01050  Biso   1.000  C
  H153     1.0000 0.16220  0.50000  0.04700  Biso   1.000  H
  C203     1.0000 0.23640  0.50000  0.06100  Biso   1.000  C
  H154     1.0000 0.23920  0.50000  0.13100  Biso   1.000  H
  C204     1.0000 0.23120  0.50000  0.84800  Biso   1.000  C
  H155     1.0000 0.22840  0.50000  0.77840  Biso   1.000  H
  C205     1.0000 0.27750  0.50000  0.89300  Biso   1.000  C
  H156     1.0000 0.30650  0.50000  0.85680  Biso   1.000  H
  C206     1.0000 0.27700  0.50000  0.99800  Biso   1.000  C
  H157     1.0000 0.30770  0.50000  0.02960  Biso   1.000  H
  S18      1.0000 0.11032  0.50000  0.21520  Biso   1.000  S
  C207     1.0000 0.10960  0.50000  0.35060  Biso   1.000  C
  C208     1.0000 0.06830  0.50000  0.40490  Biso   1.000  C
  H158     1.0000 0.03850  0.50000  0.36980  Biso   1.000  H
  C209     1.0000 0.06620  0.50000  0.50650  Biso   1.000  C
  H159     1.0000 0.03660  0.50000  0.54110  Biso   1.000  H
  C210     1.0000 0.11070  0.50000  0.55400  Biso   1.000  C
  H160     1.0000 0.11070  0.50000  0.62390  Biso   1.000  H
  C211     1.0000 0.15450  0.50000  0.50850  Biso   1.000  C
  H161     1.0000 0.18430  0.50000  0.54350  Biso   1.000  H
  C212     1.0000 0.15130  0.50000  0.40530  Biso   1.000  C
  H162     1.0000 0.18070  0.50000  0.37030  Biso   1.000  H
  S19      1.0000 0.63490  0.00000  0.83670  Biso   1.000  S
  C213     1.0000 0.68910  0.00000  0.90600  Biso   1.000  C
  C214     1.0000 0.69130  0.00000  0.01050  Biso   1.000  C
  H163     1.0000 0.66220  0.00000  0.04700  Biso   1.000  H
  C215     1.0000 0.73640  0.00000  0.06100  Biso   1.000  C
  H164     1.0000 0.73920  0.00000  0.13100  Biso   1.000  H
  C216     1.0000 0.73120  0.00000  0.84800  Biso   1.000  C
  H165     1.0000 0.72840  0.00000  0.77840  Biso   1.000  H
  C217     1.0000 0.77750  0.00000  0.89300  Biso   1.000  C
  H166     1.0000 0.80650  0.00000  0.85680  Biso   1.000  H
  C218     1.0000 0.77700  0.00000  0.99800  Biso   1.000  C
  H167     1.0000 0.80770  0.00000  0.02960  Biso   1.000  H
  S20      1.0000 0.61032  0.00000  0.21520  Biso   1.000  S
  C219     1.0000 0.60960  0.00000  0.35060  Biso   1.000  C
  C220     1.0000 0.56830  0.00000  0.40490  Biso   1.000  C
  H168     1.0000 0.53850  0.00000  0.36980  Biso   1.000  H
  C221     1.0000 0.56620  0.00000  0.50650  Biso   1.000  C
  H169     1.0000 0.53660  0.00000  0.54110  Biso   1.000  H
  C222     1.0000 0.61070  0.00000  0.55400  Biso   1.000  C
  H170     1.0000 0.61070  0.00000  0.62390  Biso   1.000  H
  C223     1.0000 0.65450  0.00000  0.50850  Biso   1.000  C
  H171     1.0000 0.68430  0.00000  0.54350  Biso   1.000  H
  C224     1.0000 0.65130  0.00000  0.40530  Biso   1.000  C
  H172     1.0000 0.68070  0.00000  0.37030  Biso   1.000  H
  S21      1.0000 0.86510  0.50000  0.16330  Biso   1.000  S
  C225     1.0000 0.81090  0.50000  0.09400  Biso   1.000  C
  C226     1.0000 0.80870  0.50000  0.98950  Biso   1.000  C
  H173     1.0000 0.83780  0.50000  0.95300  Biso   1.000  H
  C227     1.0000 0.76360  0.50000  0.93900  Biso   1.000  C
  H174     1.0000 0.76080  0.50000  0.86900  Biso   1.000  H
  C228     1.0000 0.76880  0.50000  0.15200  Biso   1.000  C
  H175     1.0000 0.77160  0.50000  0.22160  Biso   1.000  H
  C229     1.0000 0.72250  0.50000  0.10700  Biso   1.000  C
  H176     1.0000 0.69350  0.50000  0.14320  Biso   1.000  H
  C230     1.0000 0.72300  0.50000  0.00200  Biso   1.000  C
  H177     1.0000 0.69230  0.50000  0.97040  Biso   1.000  H
  S22      1.0000 0.88968  0.50000  0.78480  Biso   1.000  S
  C231     1.0000 0.89040  0.50000  0.64940  Biso   1.000  C
  C232     1.0000 0.93170  0.50000  0.59510  Biso   1.000  C
  H178     1.0000 0.96150  0.50000  0.63020  Biso   1.000  H
  C233     1.0000 0.93380  0.50000  0.49350  Biso   1.000  C
  H179     1.0000 0.96340  0.50000  0.45890  Biso   1.000  H
  C234     1.0000 0.88930  0.50000  0.44600  Biso   1.000  C
  H180     1.0000 0.88930  0.50000  0.37610  Biso   1.000  H
  C235     1.0000 0.84550  0.50000  0.49150  Biso   1.000  C
  H181     1.0000 0.81570  0.50000  0.45650  Biso   1.000  H
  C236     1.0000 0.84870  0.50000  0.59470  Biso   1.000  C
  H182     1.0000 0.81930  0.50000  0.62970  Biso   1.000  H
  S23      1.0000 0.36510  0.00000  0.16330  Biso   1.000  S
  C237     1.0000 0.31090  0.00000  0.09400  Biso   1.000  C
  C238     1.0000 0.30870  0.00000  0.98950  Biso   1.000  C
  H183     1.0000 0.33780  0.00000  0.95300  Biso   1.000  H
  C239     1.0000 0.26360  0.00000  0.93900  Biso   1.000  C
  H184     1.0000 0.26080  0.00000  0.86900  Biso   1.000  H
  C240     1.0000 0.26880  0.00000  0.15200  Biso   1.000  C
  H185     1.0000 0.27160  0.00000  0.22160  Biso   1.000  H
  C241     1.0000 0.22250  0.00000  0.10700  Biso   1.000  C
  H186     1.0000 0.19350  0.00000  0.14320  Biso   1.000  H
  C242     1.0000 0.22300  0.00000  0.00200  Biso   1.000  C
  H187     1.0000 0.19230  0.00000  0.97040  Biso   1.000  H
  S24      1.0000 0.38968  0.00000  0.78480  Biso   1.000  S
  C243     1.0000 0.39040  0.00000  0.64940  Biso   1.000  C
  C244     1.0000 0.43170  0.00000  0.59510  Biso   1.000  C
  H188     1.0000 0.46150  0.00000  0.63020  Biso   1.000  H
  C245     1.0000 0.43380  0.00000  0.49350  Biso   1.000  C
  H189     1.0000 0.46340  0.00000  0.45890  Biso   1.000  H
  C246     1.0000 0.38930  0.00000  0.44600  Biso   1.000  C
  H190     1.0000 0.38930  0.00000  0.37610  Biso   1.000  H
  C247     1.0000 0.34550  0.00000  0.49150  Biso   1.000  C
  H191     1.0000 0.31570  0.00000  0.45650  Biso   1.000  H
  C248     1.0000 0.34870  0.00000  0.59470  Biso   1.000  C
  H192     1.0000 0.31930  0.00000  0.62970  Biso   1.000  H
