data_image0
_cell_length_a       18.825
_cell_length_b       8.3912
_cell_length_c       9.2901
_cell_angle_alpha    90
_cell_angle_beta     94.064
_cell_angle_gamma    90

_symmetry_space_group_name_H-M    "P 1"
_symmetry_int_tables_number       1

loop_
  _symmetry_equiv_pos_as_xyz
  'x, y, z'

loop_
  _atom_site_label
  _atom_site_occupancy
  _atom_site_fract_x
  _atom_site_fract_y
  _atom_site_fract_z
  _atom_site_thermal_displace_type
  _atom_site_B_iso_or_equiv
  _atom_site_type_symbol
  O1       1.0000 0.58045  0.51110  0.32625  Biso   1.000  O
  O2       1.0000 0.54913  0.66350  0.54950  Biso   1.000  O
  O3       1.0000 0.61634  0.40170  0.56840  Biso   1.000  O
  H1       1.0000 0.60670  0.41580  0.65220  Biso   1.000  H
  P1       1.0000 0.60214  0.56056  0.47953  Biso   1.000  P
  C1       1.0000 0.75035  0.43600  0.36170  Biso   1.000  C
  H2       1.0000 0.79810  0.41400  0.33730  Biso   1.000  H
  H3       1.0000 0.71900  0.43600  0.27550  Biso   1.000  H
  H4       1.0000 0.73540  0.35540  0.42650  Biso   1.000  H
  C2       1.0000 0.74803  0.59700  0.43360  Biso   1.000  C
  C3       1.0000 0.68631  0.66410  0.48490  Biso   1.000  C
  C4       1.0000 0.68966  0.81420  0.54940  Biso   1.000  C
  H5       1.0000 0.64820  0.85680  0.58260  Biso   1.000  H
  O4       1.0000 0.08045  0.01110  0.32625  Biso   1.000  O
  O5       1.0000 0.04913  0.16350  0.54950  Biso   1.000  O
  O6       1.0000 0.11634  0.90170  0.56840  Biso   1.000  O
  H6       1.0000 0.10670  0.91580  0.65220  Biso   1.000  H
  P2       1.0000 0.10214  0.06056  0.47953  Biso   1.000  P
  C5       1.0000 0.25035  0.93600  0.36170  Biso   1.000  C
  H7       1.0000 0.29810  0.91400  0.33730  Biso   1.000  H
  H8       1.0000 0.21900  0.93600  0.27550  Biso   1.000  H
  H9       1.0000 0.23540  0.85540  0.42650  Biso   1.000  H
  C6       1.0000 0.24803  0.09700  0.43360  Biso   1.000  C
  C7       1.0000 0.18631  0.16410  0.48490  Biso   1.000  C
  C8       1.0000 0.18966  0.31420  0.54940  Biso   1.000  C
  H10      1.0000 0.14820  0.35680  0.58260  Biso   1.000  H
  O7       1.0000 0.41955  0.51110  0.17375  Biso   1.000  O
  O8       1.0000 0.45087  0.66350  0.95050  Biso   1.000  O
  O9       1.0000 0.38366  0.40170  0.93160  Biso   1.000  O
  H11      1.0000 0.39330  0.41580  0.84780  Biso   1.000  H
  P3       1.0000 0.39786  0.56056  0.02047  Biso   1.000  P
  C9       1.0000 0.24965  0.43600  0.13830  Biso   1.000  C
  H12      1.0000 0.20190  0.41400  0.16270  Biso   1.000  H
  H13      1.0000 0.28100  0.43600  0.22450  Biso   1.000  H
  H14      1.0000 0.26460  0.35540  0.07350  Biso   1.000  H
  C10      1.0000 0.25197  0.59700  0.06640  Biso   1.000  C
  C11      1.0000 0.31369  0.66410  0.01510  Biso   1.000  C
  C12      1.0000 0.31034  0.81420  0.95060  Biso   1.000  C
  H15      1.0000 0.35180  0.85680  0.91740  Biso   1.000  H
  O10      1.0000 0.91955  0.01110  0.17375  Biso   1.000  O
  O11      1.0000 0.95087  0.16350  0.95050  Biso   1.000  O
  O12      1.0000 0.88366  0.90170  0.93160  Biso   1.000  O
  H16      1.0000 0.89330  0.91580  0.84780  Biso   1.000  H
  P4       1.0000 0.89786  0.06056  0.02047  Biso   1.000  P
  C13      1.0000 0.74965  0.93600  0.13830  Biso   1.000  C
  H17      1.0000 0.70190  0.91400  0.16270  Biso   1.000  H
  H18      1.0000 0.78100  0.93600  0.22450  Biso   1.000  H
  H19      1.0000 0.76460  0.85540  0.07350  Biso   1.000  H
  C14      1.0000 0.75197  0.09700  0.06640  Biso   1.000  C
  C15      1.0000 0.81369  0.16410  0.01510  Biso   1.000  C
  C16      1.0000 0.81034  0.31420  0.95060  Biso   1.000  C
  H20      1.0000 0.85180  0.35680  0.91740  Biso   1.000  H
  O13      1.0000 0.41955  0.48890  0.67375  Biso   1.000  O
  O14      1.0000 0.45087  0.33650  0.45050  Biso   1.000  O
  O15      1.0000 0.38366  0.59830  0.43160  Biso   1.000  O
  H21      1.0000 0.39330  0.58420  0.34780  Biso   1.000  H
  P5       1.0000 0.39786  0.43944  0.52047  Biso   1.000  P
  C17      1.0000 0.24965  0.56400  0.63830  Biso   1.000  C
  H22      1.0000 0.20190  0.58600  0.66270  Biso   1.000  H
  H23      1.0000 0.28100  0.56400  0.72450  Biso   1.000  H
  H24      1.0000 0.26460  0.64460  0.57350  Biso   1.000  H
  C18      1.0000 0.25197  0.40300  0.56640  Biso   1.000  C
  C19      1.0000 0.31369  0.33590  0.51510  Biso   1.000  C
  C20      1.0000 0.31034  0.18580  0.45060  Biso   1.000  C
  H25      1.0000 0.35180  0.14320  0.41740  Biso   1.000  H
  O16      1.0000 0.91955  0.98890  0.67375  Biso   1.000  O
  O17      1.0000 0.95087  0.83650  0.45050  Biso   1.000  O
  O18      1.0000 0.88366  0.09830  0.43160  Biso   1.000  O
  H26      1.0000 0.89330  0.08420  0.34780  Biso   1.000  H
  P6       1.0000 0.89786  0.93944  0.52047  Biso   1.000  P
  C21      1.0000 0.74965  0.06400  0.63830  Biso   1.000  C
  H27      1.0000 0.70190  0.08600  0.66270  Biso   1.000  H
  H28      1.0000 0.78100  0.06400  0.72450  Biso   1.000  H
  H29      1.0000 0.76460  0.14460  0.57350  Biso   1.000  H
  C22      1.0000 0.75197  0.90300  0.56640  Biso   1.000  C
  C23      1.0000 0.81369  0.83590  0.51510  Biso   1.000  C
  C24      1.0000 0.81034  0.68580  0.45060  Biso   1.000  C
  H30      1.0000 0.85180  0.64320  0.41740  Biso   1.000  H
  O19      1.0000 0.58045  0.48890  0.82625  Biso   1.000  O
  O20      1.0000 0.54913  0.33650  0.04950  Biso   1.000  O
  O21      1.0000 0.61634  0.59830  0.06840  Biso   1.000  O
  H31      1.0000 0.60670  0.58420  0.15220  Biso   1.000  H
  P7       1.0000 0.60214  0.43944  0.97953  Biso   1.000  P
  C25      1.0000 0.75035  0.56400  0.86170  Biso   1.000  C
  H32      1.0000 0.79810  0.58600  0.83730  Biso   1.000  H
  H33      1.0000 0.71900  0.56400  0.77550  Biso   1.000  H
  H34      1.0000 0.73540  0.64460  0.92650  Biso   1.000  H
  C26      1.0000 0.74803  0.40300  0.93360  Biso   1.000  C
  C27      1.0000 0.68631  0.33590  0.98490  Biso   1.000  C
  C28      1.0000 0.68966  0.18580  0.04940  Biso   1.000  C
  H35      1.0000 0.64820  0.14320  0.08260  Biso   1.000  H
  O22      1.0000 0.08045  0.98890  0.82625  Biso   1.000  O
  O23      1.0000 0.04913  0.83650  0.04950  Biso   1.000  O
  O24      1.0000 0.11634  0.09830  0.06840  Biso   1.000  O
  H36      1.0000 0.10670  0.08420  0.15220  Biso   1.000  H
  P8       1.0000 0.10214  0.93944  0.97953  Biso   1.000  P
  C29      1.0000 0.25035  0.06400  0.86170  Biso   1.000  C
  H37      1.0000 0.29810  0.08600  0.83730  Biso   1.000  H
  H38      1.0000 0.21900  0.06400  0.77550  Biso   1.000  H
  H39      1.0000 0.23540  0.14460  0.92650  Biso   1.000  H
  C30      1.0000 0.24803  0.90300  0.93360  Biso   1.000  C
  C31      1.0000 0.18631  0.83590  0.98490  Biso   1.000  C
  C32      1.0000 0.18966  0.68580  0.04940  Biso   1.000  C
  H40      1.0000 0.14820  0.64320  0.08260  Biso   1.000  H
  Mn1      1.0000 0.50000  0.33867  0.25000  Biso   1.000  Mn
  Mn2      1.0000 0.00000  0.83867  0.25000  Biso   1.000  Mn
  Mn3      1.0000 0.50000  0.66133  0.75000  Biso   1.000  Mn
  Mn4      1.0000 0.00000  0.16133  0.75000  Biso   1.000  Mn
