data_image0
_cell_length_a       10.8761
_cell_length_b       11.4866
_cell_length_c       13.4225
_cell_angle_alpha    69.499
_cell_angle_beta     79.992
_cell_angle_gamma    62.506

_symmetry_space_group_name_H-M    "P 1"
_symmetry_int_tables_number       1

loop_
  _symmetry_equiv_pos_as_xyz
  'x, y, z'

loop_
  _atom_site_label
  _atom_site_occupancy
  _atom_site_fract_x
  _atom_site_fract_y
  _atom_site_fract_z
  _atom_site_thermal_displace_type
  _atom_site_B_iso_or_equiv
  _atom_site_type_symbol
  U1       1.0000 0.63156  0.70286  0.83306  Biso   1.000  U
  Nd1      1.0000 0.62063  0.21519  0.77498  Biso   1.000  Nd
  O1       1.0000 0.85710  0.52830  0.90700  Biso   1.000  O
  O2       1.0000 0.77420  0.48530  0.79430  Biso   1.000  O
  O3       1.0000 0.85350  0.20740  0.76120  Biso   1.000  O
  O4       1.0000 0.89830  0.35670  0.62270  Biso   1.000  O
  O5       1.0000 0.42700  0.90950  0.82710  Biso   1.000  O
  O6       1.0000 0.51700  0.05940  0.77600  Biso   1.000  O
  O7       1.0000 0.47630  0.17600  0.93150  Biso   1.000  O
  O8       1.0000 0.31210  0.21350  0.05440  Biso   1.000  O
  O9       1.0000 0.50680  0.69150  0.71240  Biso   1.000  O
  O10      1.0000 0.42520  0.70010  0.56980  Biso   1.000  O
  O11      1.0000 0.73620  0.63140  0.53180  Biso   1.000  O
  O12      1.0000 0.85750  0.75120  0.47730  Biso   1.000  O
  C1       1.0000 0.00830  0.33710  0.84590  Biso   1.000  C
  C2       1.0000 0.11720  0.31240  0.90480  Biso   1.000  C
  H1       1.0000 0.09920  0.36290  0.95100  Biso   1.000  H
  C3       1.0000 0.25070  0.21460  0.89570  Biso   1.000  C
  C4       1.0000 0.27730  0.13450  0.82810  Biso   1.000  C
  C5       1.0000 0.16600  0.15510  0.77480  Biso   1.000  C
  H2       1.0000 0.18150  0.09840  0.73420  Biso   1.000  H
  C6       1.0000 0.03270  0.25760  0.78010  Biso   1.000  C
  C7       1.0000 0.62080  0.00200  0.45180  Biso   1.000  C
  H3       1.0000 0.70360  0.00250  0.41980  Biso   1.000  H
  C8       1.0000 0.61520  0.87550  0.50330  Biso   1.000  C
  C9       1.0000 0.49230  0.87480  0.55280  Biso   1.000  C
  C10      1.0000 0.87210  0.45550  0.85000  Biso   1.000  C
  C11      1.0000 0.35690  0.19860  0.96220  Biso   1.000  C
  C12      1.0000 0.41880  0.02970  0.80870  Biso   1.000  C
  C13      1.0000 0.91910  0.27750  0.71700  Biso   1.000  C
  C14      1.0000 0.47450  0.74580  0.61540  Biso   1.000  C
  C15      1.0000 0.74260  0.74440  0.50560  Biso   1.000  C
  U2       1.0000 0.36844  0.29714  0.16694  Biso   1.000  U
  Nd2      1.0000 0.37937  0.78481  0.22502  Biso   1.000  Nd
  O13      1.0000 0.14290  0.47170  0.09300  Biso   1.000  O
  O14      1.0000 0.22580  0.51470  0.20570  Biso   1.000  O
  O15      1.0000 0.14650  0.79260  0.23880  Biso   1.000  O
  O16      1.0000 0.10170  0.64330  0.37730  Biso   1.000  O
  O17      1.0000 0.57300  0.09050  0.17290  Biso   1.000  O
  O18      1.0000 0.48300  0.94060  0.22400  Biso   1.000  O
  O19      1.0000 0.52370  0.82400  0.06850  Biso   1.000  O
  O20      1.0000 0.68790  0.78650  0.94560  Biso   1.000  O
  O21      1.0000 0.49320  0.30850  0.28760  Biso   1.000  O
  O22      1.0000 0.57480  0.29990  0.43020  Biso   1.000  O
  O23      1.0000 0.26380  0.36860  0.46820  Biso   1.000  O
  O24      1.0000 0.14250  0.24880  0.52270  Biso   1.000  O
  C16      1.0000 0.99170  0.66290  0.15410  Biso   1.000  C
  C17      1.0000 0.88280  0.68760  0.09520  Biso   1.000  C
  H4       1.0000 0.90080  0.63710  0.04900  Biso   1.000  H
  C18      1.0000 0.74930  0.78540  0.10430  Biso   1.000  C
  C19      1.0000 0.72270  0.86550  0.17190  Biso   1.000  C
  C20      1.0000 0.83400  0.84490  0.22520  Biso   1.000  C
  H5       1.0000 0.81850  0.90160  0.26580  Biso   1.000  H
  C21      1.0000 0.96730  0.74240  0.21990  Biso   1.000  C
  C22      1.0000 0.37920  0.99800  0.54820  Biso   1.000  C
  H6       1.0000 0.29640  0.99750  0.58020  Biso   1.000  H
  C23      1.0000 0.38480  0.12450  0.49670  Biso   1.000  C
  C24      1.0000 0.50770  0.12520  0.44720  Biso   1.000  C
  C25      1.0000 0.12790  0.54450  0.15000  Biso   1.000  C
  C26      1.0000 0.64310  0.80140  0.03780  Biso   1.000  C
  C27      1.0000 0.58120  0.97030  0.19130  Biso   1.000  C
  C28      1.0000 0.08090  0.72250  0.28300  Biso   1.000  C
  C29      1.0000 0.52550  0.25420  0.38460  Biso   1.000  C
  C30      1.0000 0.25740  0.25560  0.49440  Biso   1.000  C
  U3       1.0000 0.00000  0.50000  0.50000  Biso   1.000  U
