data_image0
_cell_length_a       10.67
_cell_length_b       11.4911
_cell_length_c       13.4448
_cell_angle_alpha    69.159
_cell_angle_beta     78.913
_cell_angle_gamma    63.132

_symmetry_space_group_name_H-M    "P 1"
_symmetry_int_tables_number       1

loop_
  _symmetry_equiv_pos_as_xyz
  'x, y, z'

loop_
  _atom_site_label
  _atom_site_occupancy
  _atom_site_fract_x
  _atom_site_fract_y
  _atom_site_fract_z
  _atom_site_thermal_displace_type
  _atom_site_B_iso_or_equiv
  _atom_site_type_symbol
  U1       1.0000 0.62675  0.71024  0.83613  Biso   1.000  U
  Sm1      1.0000 0.60537  0.22611  0.75293  Biso   1.000  Sm
  C1       1.0000 0.00240  0.34070  0.85080  Biso   1.000  C
  C2       1.0000 0.11430  0.31370  0.90830  Biso   1.000  C
  H1       1.0000 0.09900  0.36030  0.95670  Biso   1.000  H
  C3       1.0000 0.24920  0.21650  0.89250  Biso   1.000  C
  C4       1.0000 0.26950  0.14050  0.82490  Biso   1.000  C
  C5       1.0000 0.15330  0.16150  0.77510  Biso   1.000  C
  H2       1.0000 0.16530  0.10580  0.73490  Biso   1.000  H
  C6       1.0000 0.02090  0.26390  0.78470  Biso   1.000  C
  C7       1.0000 0.62550  0.00000  0.45010  Biso   1.000  C
  H3       1.0000 0.70980  0.99990  0.41540  Biso   1.000  H
  C8       1.0000 0.61860  0.87470  0.50710  Biso   1.000  C
  C9       1.0000 0.49000  0.87500  0.55640  Biso   1.000  C
  C10      1.0000 0.86680  0.46260  0.85720  Biso   1.000  C
  C11      1.0000 0.36120  0.19490  0.95790  Biso   1.000  C
  C12      1.0000 0.41040  0.03810  0.79970  Biso   1.000  C
  C13      1.0000 0.90280  0.28680  0.72420  Biso   1.000  C
  C14      1.0000 0.47130  0.74490  0.62120  Biso   1.000  C
  C15      1.0000 0.74630  0.74630  0.50990  Biso   1.000  C
  O1       1.0000 0.85360  0.53440  0.91280  Biso   1.000  O
  O2       1.0000 0.76740  0.49260  0.80080  Biso   1.000  O
  O3       1.0000 0.82470  0.22850  0.76910  Biso   1.000  O
  O4       1.0000 0.89140  0.36130  0.62600  Biso   1.000  O
  O5       1.0000 0.41970  0.91710  0.82200  Biso   1.000  O
  O6       1.0000 0.50400  0.07190  0.75690  Biso   1.000  O
  O7       1.0000 0.48180  0.17460  0.91890  Biso   1.000  O
  O8       1.0000 0.32400  0.20110  0.05200  Biso   1.000  O
  O9       1.0000 0.50590  0.69440  0.71690  Biso   1.000  O
  O10      1.0000 0.41560  0.70130  0.57870  Biso   1.000  O
  O11      1.0000 0.73610  0.63280  0.53560  Biso   1.000  O
  O12      1.0000 0.86260  0.74990  0.47860  Biso   1.000  O
  U2       1.0000 0.37325  0.28976  0.16387  Biso   1.000  U
  Sm2      1.0000 0.39463  0.77389  0.24707  Biso   1.000  Sm
  C16      1.0000 0.99760  0.65930  0.14920  Biso   1.000  C
  C17      1.0000 0.88570  0.68630  0.09170  Biso   1.000  C
  H4       1.0000 0.90100  0.63970  0.04330  Biso   1.000  H
  C18      1.0000 0.75080  0.78350  0.10750  Biso   1.000  C
  C19      1.0000 0.73050  0.85950  0.17510  Biso   1.000  C
  C20      1.0000 0.84670  0.83850  0.22490  Biso   1.000  C
  H5       1.0000 0.83470  0.89420  0.26510  Biso   1.000  H
  C21      1.0000 0.97910  0.73610  0.21530  Biso   1.000  C
  C22      1.0000 0.37450  0.00000  0.54990  Biso   1.000  C
  H6       1.0000 0.29020  0.00010  0.58460  Biso   1.000  H
  C23      1.0000 0.38140  0.12530  0.49290  Biso   1.000  C
  C24      1.0000 0.51000  0.12500  0.44360  Biso   1.000  C
  C25      1.0000 0.13320  0.53740  0.14280  Biso   1.000  C
  C26      1.0000 0.63880  0.80510  0.04210  Biso   1.000  C
  C27      1.0000 0.58960  0.96190  0.20030  Biso   1.000  C
  C28      1.0000 0.09720  0.71320  0.27580  Biso   1.000  C
  C29      1.0000 0.52870  0.25510  0.37880  Biso   1.000  C
  C30      1.0000 0.25370  0.25370  0.49010  Biso   1.000  C
  O13      1.0000 0.14640  0.46560  0.08720  Biso   1.000  O
  O14      1.0000 0.23260  0.50740  0.19920  Biso   1.000  O
  O15      1.0000 0.17530  0.77150  0.23090  Biso   1.000  O
  O16      1.0000 0.10860  0.63870  0.37400  Biso   1.000  O
  O17      1.0000 0.58030  0.08290  0.17800  Biso   1.000  O
  O18      1.0000 0.49600  0.92810  0.24310  Biso   1.000  O
  O19      1.0000 0.51820  0.82540  0.08110  Biso   1.000  O
  O20      1.0000 0.67600  0.79890  0.94800  Biso   1.000  O
  O21      1.0000 0.49410  0.30560  0.28310  Biso   1.000  O
  O22      1.0000 0.58440  0.29870  0.42130  Biso   1.000  O
  O23      1.0000 0.26390  0.36720  0.46440  Biso   1.000  O
  O24      1.0000 0.13740  0.25010  0.52140  Biso   1.000  O
  U3       1.0000 0.00000  0.50000  0.50000  Biso   1.000  U
