data_image0
_cell_length_a       10.6427
_cell_length_b       11.5008
_cell_length_c       13.4731
_cell_angle_alpha    69.142
_cell_angle_beta     78.865
_cell_angle_gamma    63.208

_symmetry_space_group_name_H-M    "P 1"
_symmetry_int_tables_number       1

loop_
  _symmetry_equiv_pos_as_xyz
  'x, y, z'

loop_
  _atom_site_label
  _atom_site_occupancy
  _atom_site_fract_x
  _atom_site_fract_y
  _atom_site_fract_z
  _atom_site_thermal_displace_type
  _atom_site_B_iso_or_equiv
  _atom_site_type_symbol
  U1       1.0000 0.62579  0.71128  0.83650  Biso   1.000  U
  Eu1      1.0000 0.60329  0.22800  0.75140  Biso   1.000  Eu
  O1       1.0000 0.85100  0.53630  0.91320  Biso   1.000  O
  O2       1.0000 0.76510  0.49370  0.80230  Biso   1.000  O
  O3       1.0000 0.82110  0.23140  0.76990  Biso   1.000  O
  O4       1.0000 0.89050  0.36220  0.62590  Biso   1.000  O
  O5       1.0000 0.41860  0.91730  0.82050  Biso   1.000  O
  O6       1.0000 0.50260  0.07640  0.75360  Biso   1.000  O
  O7       1.0000 0.48270  0.17630  0.91850  Biso   1.000  O
  O8       1.0000 0.32460  0.19800  0.05390  Biso   1.000  O
  O9       1.0000 0.50320  0.69340  0.71850  Biso   1.000  O
  O10      1.0000 0.41490  0.70090  0.57840  Biso   1.000  O
  O11      1.0000 0.73620  0.63400  0.53540  Biso   1.000  O
  O12      1.0000 0.86360  0.74950  0.47820  Biso   1.000  O
  C1       1.0000 0.00170  0.34230  0.85120  Biso   1.000  C
  C2       1.0000 0.11370  0.31320  0.90790  Biso   1.000  C
  H1       1.0000 0.09880  0.36010  0.95580  Biso   1.000  H
  C3       1.0000 0.24770  0.21520  0.89450  Biso   1.000  C
  C4       1.0000 0.26750  0.14310  0.82420  Biso   1.000  C
  C5       1.0000 0.15140  0.16370  0.77520  Biso   1.000  C
  H2       1.0000 0.16310  0.10820  0.73500  Biso   1.000  H
  C6       1.0000 0.01940  0.26530  0.78570  Biso   1.000  C
  C7       1.0000 0.62600  0.00120  0.44960  Biso   1.000  C
  H3       1.0000 0.71120  0.00130  0.41660  Biso   1.000  H
  C8       1.0000 0.61530  0.87630  0.50560  Biso   1.000  C
  C9       1.0000 0.49160  0.87570  0.55620  Biso   1.000  C
  C10      1.0000 0.86680  0.46290  0.85660  Biso   1.000  C
  C11      1.0000 0.36240  0.19370  0.95810  Biso   1.000  C
  C12      1.0000 0.41010  0.03770  0.79770  Biso   1.000  C
  C13      1.0000 0.90060  0.29040  0.72310  Biso   1.000  C
  C14      1.0000 0.47080  0.74450  0.62170  Biso   1.000  C
  C15      1.0000 0.74620  0.74620  0.50770  Biso   1.000  C
  U2       1.0000 0.37421  0.28872  0.16350  Biso   1.000  U
  Eu2      1.0000 0.39671  0.77200  0.24860  Biso   1.000  Eu
  O13      1.0000 0.14900  0.46370  0.08680  Biso   1.000  O
  O14      1.0000 0.23490  0.50630  0.19770  Biso   1.000  O
  O15      1.0000 0.17890  0.76860  0.23010  Biso   1.000  O
  O16      1.0000 0.10950  0.63780  0.37410  Biso   1.000  O
  O17      1.0000 0.58140  0.08270  0.17950  Biso   1.000  O
  O18      1.0000 0.49740  0.92360  0.24640  Biso   1.000  O
  O19      1.0000 0.51730  0.82370  0.08150  Biso   1.000  O
  O20      1.0000 0.67540  0.80200  0.94610  Biso   1.000  O
  O21      1.0000 0.49680  0.30660  0.28150  Biso   1.000  O
  O22      1.0000 0.58510  0.29910  0.42160  Biso   1.000  O
  O23      1.0000 0.26380  0.36600  0.46460  Biso   1.000  O
  O24      1.0000 0.13640  0.25050  0.52180  Biso   1.000  O
  C16      1.0000 0.99830  0.65770  0.14880  Biso   1.000  C
  C17      1.0000 0.88630  0.68680  0.09210  Biso   1.000  C
  H4       1.0000 0.90120  0.63990  0.04420  Biso   1.000  H
  C18      1.0000 0.75230  0.78480  0.10550  Biso   1.000  C
  C19      1.0000 0.73250  0.85690  0.17580  Biso   1.000  C
  C20      1.0000 0.84860  0.83630  0.22480  Biso   1.000  C
  H5       1.0000 0.83690  0.89180  0.26500  Biso   1.000  H
  C21      1.0000 0.98060  0.73470  0.21430  Biso   1.000  C
  C22      1.0000 0.37400  0.99880  0.55040  Biso   1.000  C
  H6       1.0000 0.28880  0.99870  0.58340  Biso   1.000  H
  C23      1.0000 0.38470  0.12370  0.49440  Biso   1.000  C
  C24      1.0000 0.50840  0.12430  0.44380  Biso   1.000  C
  C25      1.0000 0.13320  0.53710  0.14340  Biso   1.000  C
  C26      1.0000 0.63760  0.80630  0.04190  Biso   1.000  C
  C27      1.0000 0.58990  0.96230  0.20230  Biso   1.000  C
  C28      1.0000 0.09940  0.70960  0.27690  Biso   1.000  C
  C29      1.0000 0.52920  0.25550  0.37830  Biso   1.000  C
  C30      1.0000 0.25380  0.25380  0.49230  Biso   1.000  C
  U3       1.0000 0.00000  0.50000  0.50000  Biso   1.000  U
