data_image0
_cell_length_a       10.5363
_cell_length_b       11.4698
_cell_length_c       13.4114
_cell_angle_alpha    69.028
_cell_angle_beta     78.406
_cell_angle_gamma    63.414

_symmetry_space_group_name_H-M    "P 1"
_symmetry_int_tables_number       1

loop_
  _symmetry_equiv_pos_as_xyz
  'x, y, z'

loop_
  _atom_site_label
  _atom_site_occupancy
  _atom_site_fract_x
  _atom_site_fract_y
  _atom_site_fract_z
  _atom_site_thermal_displace_type
  _atom_site_B_iso_or_equiv
  _atom_site_type_symbol
  U1       1.0000 0.62382  0.71245  0.83696  Biso   1.000  U
  Dy1      1.0000 0.60033  0.22942  0.74930  Biso   1.000  Dy
  C1       1.0000 0.99640  0.34150  0.85380  Biso   1.000  C
  C2       1.0000 0.11100  0.31200  0.91050  Biso   1.000  C
  H1       1.0000 0.09580  0.35770  0.95970  Biso   1.000  H
  C3       1.0000 0.24790  0.21510  0.89470  Biso   1.000  C
  C4       1.0000 0.26660  0.14190  0.82370  Biso   1.000  C
  C5       1.0000 0.14570  0.16480  0.77510  Biso   1.000  C
  H2       1.0000 0.15570  0.10960  0.73490  Biso   1.000  H
  C6       1.0000 0.01550  0.26560  0.78610  Biso   1.000  C
  C7       1.0000 0.62600  0.99870  0.45150  Biso   1.000  C
  H3       1.0000 0.71260  0.99800  0.41830  Biso   1.000  H
  C8       1.0000 0.61860  0.87570  0.50600  Biso   1.000  C
  C9       1.0000 0.48790  0.87590  0.55710  Biso   1.000  C
  C10      1.0000 0.86210  0.46300  0.86070  Biso   1.000  C
  C11      1.0000 0.36230  0.19270  0.95790  Biso   1.000  C
  C12      1.0000 0.40830  0.04100  0.79480  Biso   1.000  C
  C13      1.0000 0.89640  0.29130  0.72500  Biso   1.000  C
  C14      1.0000 0.46800  0.74740  0.62210  Biso   1.000  C
  C15      1.0000 0.74310  0.74550  0.50840  Biso   1.000  C
  O1       1.0000 0.85040  0.53530  0.91480  Biso   1.000  O
  O2       1.0000 0.76190  0.49500  0.80310  Biso   1.000  O
  O3       1.0000 0.81500  0.23380  0.77200  Biso   1.000  O
  O4       1.0000 0.88770  0.36230  0.62830  Biso   1.000  O
  O5       1.0000 0.41700  0.92010  0.82000  Biso   1.000  O
  O6       1.0000 0.50210  0.07710  0.75190  Biso   1.000  O
  O7       1.0000 0.48360  0.17480  0.91670  Biso   1.000  O
  O8       1.0000 0.32630  0.19650  0.05240  Biso   1.000  O
  O9       1.0000 0.50200  0.69510  0.71840  Biso   1.000  O
  O10      1.0000 0.41070  0.70150  0.58160  Biso   1.000  O
  O11      1.0000 0.73300  0.63360  0.53360  Biso   1.000  O
  O12      1.0000 0.86610  0.75050  0.47910  Biso   1.000  O
  U2       1.0000 0.37618  0.28755  0.16304  Biso   1.000  U
  Dy2      1.0000 0.39967  0.77058  0.25070  Biso   1.000  Dy
  C16      1.0000 0.00360  0.65850  0.14620  Biso   1.000  C
  C17      1.0000 0.88900  0.68800  0.08950  Biso   1.000  C
  H4       1.0000 0.90420  0.64230  0.04030  Biso   1.000  H
  C18      1.0000 0.75210  0.78490  0.10530  Biso   1.000  C
  C19      1.0000 0.73340  0.85810  0.17630  Biso   1.000  C
  C20      1.0000 0.85430  0.83520  0.22490  Biso   1.000  C
  H5       1.0000 0.84430  0.89040  0.26510  Biso   1.000  H
  C21      1.0000 0.98450  0.73440  0.21390  Biso   1.000  C
  C22      1.0000 0.37400  0.00130  0.54850  Biso   1.000  C
  H6       1.0000 0.28740  0.00200  0.58170  Biso   1.000  H
  C23      1.0000 0.38140  0.12430  0.49400  Biso   1.000  C
  C24      1.0000 0.51210  0.12410  0.44290  Biso   1.000  C
  C25      1.0000 0.13790  0.53700  0.13930  Biso   1.000  C
  C26      1.0000 0.63770  0.80730  0.04210  Biso   1.000  C
  C27      1.0000 0.59170  0.95900  0.20520  Biso   1.000  C
  C28      1.0000 0.10360  0.70870  0.27500  Biso   1.000  C
  C29      1.0000 0.53200  0.25260  0.37790  Biso   1.000  C
  C30      1.0000 0.25690  0.25450  0.49160  Biso   1.000  C
  O13      1.0000 0.14960  0.46470  0.08520  Biso   1.000  O
  O14      1.0000 0.23810  0.50500  0.19690  Biso   1.000  O
  O15      1.0000 0.18500  0.76620  0.22800  Biso   1.000  O
  O16      1.0000 0.11230  0.63770  0.37170  Biso   1.000  O
  O17      1.0000 0.58300  0.07990  0.18000  Biso   1.000  O
  O18      1.0000 0.49790  0.92290  0.24810  Biso   1.000  O
  O19      1.0000 0.51640  0.82520  0.08330  Biso   1.000  O
  O20      1.0000 0.67370  0.80350  0.94760  Biso   1.000  O
  O21      1.0000 0.49800  0.30490  0.28160  Biso   1.000  O
  O22      1.0000 0.58930  0.29850  0.41840  Biso   1.000  O
  O23      1.0000 0.26700  0.36640  0.46640  Biso   1.000  O
  O24      1.0000 0.13390  0.24950  0.52090  Biso   1.000  O
  U3       1.0000 0.00000  0.50000  0.50000  Biso   1.000  U
