data_EHEKUY_clean
_audit_creation_date              2014-07-02
_audit_creation_method            'Materials Studio'
_symmetry_space_group_name_H-M    'P1'
_symmetry_Int_Tables_number       1
_symmetry_cell_setting            triclinic
loop_
_symmetry_equiv_pos_as_xyz
  x,y,z
_cell_length_a                    15.2978
_cell_length_b                    15.5927
_cell_length_c                    22.1480
_cell_angle_alpha                 88.8410
_cell_angle_beta                  86.5380
_cell_angle_gamma                 62.0850
loop_
_atom_site_label
_atom_site_type_symbol
_atom_site_fract_x
_atom_site_fract_y
_atom_site_fract_z
_atom_site_U_iso_or_equiv
_atom_site_adp_type
_atom_site_occupancy
H1     H     0.67620   0.21390   0.93220   0.01267  Uiso   1.00
H2     H     0.49500   0.36780   0.83640   0.01267  Uiso   1.00
H3     H     0.49310   0.39870   0.90280   0.01267  Uiso   1.00
H4     H     0.51490   0.29350   0.88810   0.01267  Uiso   1.00
H5     H     0.62520   0.40840   0.79750   0.01267  Uiso   1.00
H6     H     0.79160   0.36240   0.78640   0.01267  Uiso   1.00
H7     H     0.90330   0.24450   0.84890   0.01267  Uiso   1.00
H8     H     0.09340   0.88410   0.79890   0.01267  Uiso   1.00
H9     H     0.11230   0.85980   0.68850   0.01267  Uiso   1.00
H10    H     0.09390   0.78020   0.65960   0.01267  Uiso   1.00
H11    H     0.19190   0.75170   0.69070   0.01267  Uiso   1.00
H12    H     0.04240   0.68040   0.72170   0.01267  Uiso   1.00
H13    H     0.97540   0.65750   0.81420   0.01267  Uiso   1.00
H14    H     0.96650   0.74760   0.89920   0.01267  Uiso   1.00
H15    H     0.95590   0.45270   0.86330   0.01267  Uiso   1.00
H16    H     0.81220   0.51670   0.93800   0.01267  Uiso   1.00
H17    H     0.75690   0.46910   0.90740   0.01267  Uiso   1.00
H18    H     0.70620   0.58070   0.91680   0.01267  Uiso   1.00
H19    H     0.67840   0.62040   0.80950   0.01267  Uiso   1.00
H20    H     0.74360   0.64290   0.71650   0.01267  Uiso   1.00
H21    H     0.91430   0.57430   0.69690   0.01267  Uiso   1.00
H22    H     0.28050   0.07450   0.69010   0.01267  Uiso   1.00
H23    H     0.28060   0.92070   0.66960   0.01267  Uiso   1.00
H24    H     0.38240   0.87350   0.63340   0.01267  Uiso   1.00
H25    H     0.28830   0.88560   0.60350   0.01267  Uiso   1.00
H26    H     0.30220   0.98170   0.51850   0.01267  Uiso   1.00
H27    H     0.27780   0.13220   0.48230   0.01267  Uiso   1.00
H28    H     0.25390   0.25580   0.55010   0.01267  Uiso   1.00
H29    H     0.59620   0.16090   0.77370   0.01267  Uiso   1.00
H30    H     0.76680   0.07090   0.80620   0.01267  Uiso   1.00
H31    H     0.85420   0.06960   0.76610   0.01267  Uiso   1.00
H32    H     0.80670   0.00550   0.74870   0.01267  Uiso   1.00
H33    H     0.82650   0.15670   0.67160   0.01267  Uiso   1.00
H34    H     0.71540   0.28330   0.61320   0.01267  Uiso   1.00
H35    H     0.54480   0.35000   0.63540   0.01267  Uiso   1.00
H36    H     0.28570   0.66200   0.79150   0.01267  Uiso   1.00
H37    H     0.28150   0.81870   0.80810   0.01267  Uiso   1.00
H38    H     0.38280   0.77800   0.83730   0.01267  Uiso   1.00
H39    H     0.28700   0.85170   0.87280   0.01267  Uiso   1.00
H40    H     0.30610   0.74590   0.95920   0.01267  Uiso   1.00
H41    H     0.28890   0.61600   0.00040   0.01267  Uiso   1.00
H42    H     0.27260   0.50600   0.93740   0.01267  Uiso   1.00
H43    H     0.68000   0.06620   0.58720   0.01267  Uiso   1.00
H44    H     0.51670   0.12320   0.63700   0.01267  Uiso   1.00
H45    H     0.49590   0.06070   0.68540   0.01267  Uiso   1.00
H46    H     0.50090   0.03680   0.61730   0.01267  Uiso   1.00
H47    H     0.62940   0.90070   0.71150   0.01267  Uiso   1.00
H48    H     0.80000   0.79710   0.71420   0.01267  Uiso   1.00
H49    H     0.91110   0.82590   0.65020   0.01267  Uiso   1.00
H50    H     0.90160   0.96440   0.30740   0.01267  Uiso   1.00
H51    H     0.82240   0.95730   0.21420   0.01267  Uiso   1.00
H52    H     0.85300   0.85850   0.18270   0.01267  Uiso   1.00
H53    H     0.92030   0.90800   0.17430   0.01267  Uiso   1.00
H54    H     0.97760   0.70780   0.22390   0.01267  Uiso   1.00
H55    H     0.06260   0.62530   0.30790   0.01267  Uiso   1.00
H56    H     0.06760   0.71110   0.39140   0.01267  Uiso   1.00
H57    H     0.32380   0.78610   0.06780   0.01267  Uiso   1.00
H58    H     0.50500   0.63220   0.16360   0.01267  Uiso   1.00
H59    H     0.50690   0.60130   0.09720   0.01267  Uiso   1.00
H60    H     0.48510   0.70650   0.11190   0.01267  Uiso   1.00
H61    H     0.37480   0.59160   0.20250   0.01267  Uiso   1.00
H62    H     0.20840   0.63760   0.21360   0.01267  Uiso   1.00
H63    H     0.09670   0.75550   0.15110   0.01267  Uiso   1.00
H64    H     0.90660   0.11590   0.20110   0.01267  Uiso   1.00
H65    H     0.88770   0.14020   0.31150   0.01267  Uiso   1.00
H66    H     0.90610   0.21980   0.34040   0.01267  Uiso   1.00
H67    H     0.80810   0.24830   0.30930   0.01267  Uiso   1.00
H68    H     0.95760   0.31960   0.27830   0.01267  Uiso   1.00
H69    H     0.02460   0.34250   0.18580   0.01267  Uiso   1.00
H70    H     0.03350   0.25240   0.10080   0.01267  Uiso   1.00
H71    H     0.04410   0.54730   0.13670   0.01267  Uiso   1.00
H72    H     0.18780   0.48330   0.06200   0.01267  Uiso   1.00
H73    H     0.24310   0.53090   0.09260   0.01267  Uiso   1.00
H74    H     0.29380   0.41930   0.08320   0.01267  Uiso   1.00
H75    H     0.32160   0.37960   0.19050   0.01267  Uiso   1.00
H76    H     0.25640   0.35710   0.28350   0.01267  Uiso   1.00
H77    H     0.08570   0.42570   0.30310   0.01267  Uiso   1.00
H78    H     0.71950   0.92550   0.30990   0.01267  Uiso   1.00
H79    H     0.71940   0.07930   0.33040   0.01267  Uiso   1.00
H80    H     0.61760   0.12650   0.36660   0.01267  Uiso   1.00
H81    H     0.71170   0.11440   0.39650   0.01267  Uiso   1.00
H82    H     0.69780   0.01830   0.48150   0.01267  Uiso   1.00
H83    H     0.72220   0.86780   0.51770   0.01267  Uiso   1.00
H84    H     0.74610   0.74420   0.44990   0.01267  Uiso   1.00
H85    H     0.40380   0.83910   0.22630   0.01267  Uiso   1.00
H86    H     0.23320   0.92910   0.19380   0.01267  Uiso   1.00
H87    H     0.14580   0.93040   0.23390   0.01267  Uiso   1.00
H88    H     0.19330   0.99450   0.25130   0.01267  Uiso   1.00
H89    H     0.17350   0.84330   0.32840   0.01267  Uiso   1.00
H90    H     0.28460   0.71670   0.38680   0.01267  Uiso   1.00
H91    H     0.45520   0.65000   0.36460   0.01267  Uiso   1.00
H92    H     0.71430   0.33800   0.20850   0.01267  Uiso   1.00
H93    H     0.71850   0.18130   0.19190   0.01267  Uiso   1.00
H94    H     0.61720   0.22200   0.16270   0.01267  Uiso   1.00
H95    H     0.71300   0.14830   0.12720   0.01267  Uiso   1.00
H96    H     0.69390   0.25410   0.04080   0.01267  Uiso   1.00
H97    H     0.71110   0.38400   0.99960   0.01267  Uiso   1.00
H98    H     0.72740   0.49400   0.06260   0.01267  Uiso   1.00
H99    H     0.32000   0.93380   0.41280   0.01267  Uiso   1.00
H100   H     0.48330   0.87680   0.36300   0.01267  Uiso   1.00
H101   H     0.50410   0.93930   0.31460   0.01267  Uiso   1.00
H102   H     0.49910   0.96320   0.38270   0.01267  Uiso   1.00
H103   H     0.37060   0.09930   0.28850   0.01267  Uiso   1.00
H104   H     0.20000   0.20290   0.28580   0.01267  Uiso   1.00
H105   H     0.08890   0.17410   0.34980   0.01267  Uiso   1.00
H106   H     0.09840   0.03560   0.69260   0.01267  Uiso   1.00
H107   H     0.17760   0.04270   0.78580   0.01267  Uiso   1.00
H108   H     0.14700   0.14150   0.81730   0.01267  Uiso   1.00
H109   H     0.07970   0.09200   0.82570   0.01267  Uiso   1.00
H110   H     0.02240   0.29220   0.77610   0.01267  Uiso   1.00
H111   H     0.93740   0.37470   0.69210   0.01267  Uiso   1.00
H112   H     0.93240   0.28890   0.60860   0.01267  Uiso   1.00
Ru1    Ru    0.06184   0.01376   0.97816   0.01267  Uiso   1.00
Ru2    Ru    0.26521   0.33041   0.78405   0.01267  Uiso   1.00
Ru3    Ru    0.24170   0.43371   0.70493   0.01267  Uiso   1.00
Ru4    Ru    0.06439   0.93138   0.51733   0.01267  Uiso   1.00
Ru5    Ru    0.93816   0.98624   0.02184   0.01267  Uiso   1.00
Ru6    Ru    0.73479   0.66959   0.21595   0.01267  Uiso   1.00
Ru7    Ru    0.75830   0.56629   0.29507   0.01267  Uiso   1.00
Ru8    Ru    0.93561   0.06862   0.48267   0.01267  Uiso   1.00
C1     C     0.87120   0.14200   0.93570   0.01267  Uiso   1.00
C2     C     0.80100   0.21830   0.89672   0.01267  Uiso   1.00
C3     C     0.69970   0.24540   0.90312   0.01267  Uiso   1.00
C4     C     0.63270   0.31700   0.86690   0.01267  Uiso   1.00
C5     C     0.52380   0.34780   0.87450   0.01267  Uiso   1.00
C6     C     0.66920   0.35960   0.82320   0.01267  Uiso   1.00
C7     C     0.76880   0.33220   0.81630   0.01267  Uiso   1.00
C8     C     0.83500   0.26230   0.85340   0.01267  Uiso   1.00
C9     C     0.02260   0.88330   0.90977   0.01267  Uiso   1.00
C10    C     0.02920   0.82430   0.85680   0.01267  Uiso   1.00
C11    C     0.06940   0.83770   0.80174   0.01267  Uiso   1.00
C12    C     0.07560   0.78390   0.75103   0.01267  Uiso   1.00
C13    C     0.12230   0.79530   0.69208   0.01267  Uiso   1.00
C14    C     0.03950   0.71730   0.75637   0.01267  Uiso   1.00
C15    C     0.99900   0.70410   0.81110   0.01267  Uiso   1.00
C16    C     0.99370   0.75750   0.86149   0.01267  Uiso   1.00
C17    C     0.24740   0.05890   0.93595   0.01267  Uiso   1.00
C18    C     0.31790   0.09250   0.93372   0.01267  Uiso   1.00
C19    C     0.29770   0.17150   0.89494   0.01267  Uiso   1.00
C20    C     0.40710   0.04660   0.96685   0.01267  Uiso   1.00
C21    C     0.45550   0.94760   0.97957   0.01267  Uiso   1.00
C22    C     0.54640   0.90100   0.01113   0.01267  Uiso   1.00
C23    C     0.06010   0.46100   0.76619   0.01267  Uiso   1.00
C24    C     0.95130   0.50560   0.77816   0.01267  Uiso   1.00
C25    C     0.91180   0.49200   0.83389   0.01267  Uiso   1.00
C26    C     0.81090   0.53510   0.84698   0.01267  Uiso   1.00
C27    C     0.76750   0.52410   0.90760   0.01267  Uiso   1.00
C28    C     0.74840   0.59120   0.80220   0.01267  Uiso   1.00
C29    C     0.78650   0.60550   0.74660   0.01267  Uiso   1.00
C30    C     0.88800   0.56340   0.73450   0.01267  Uiso   1.00
C31    C     0.25410   0.25210   0.66987   0.01267  Uiso   1.00
C32    C     0.26510   0.17690   0.62678   0.01267  Uiso   1.00
C33    C     0.28030   0.08570   0.64781   0.01267  Uiso   1.00
C34    C     0.29480   0.01220   0.60799   0.01267  Uiso   1.00
C35    C     0.31360   0.91370   0.63050   0.01267  Uiso   1.00
C36    C     0.29330   0.03130   0.54650   0.01267  Uiso   1.00
C37    C     0.27750   0.12110   0.52492   0.01267  Uiso   1.00
C38    C     0.26370   0.19400   0.56491   0.01267  Uiso   1.00
C39    C     0.44640   0.30430   0.72141   0.01267  Uiso   1.00
C40    C     0.55500   0.26190   0.70763   0.01267  Uiso   1.00
C41    C     0.62070   0.18630   0.74134   0.01267  Uiso   1.00
C42    C     0.72260   0.14700   0.72920   0.01267  Uiso   1.00
C43    C     0.79400   0.06600   0.76560   0.01267  Uiso   1.00
C44    C     0.75700   0.18360   0.68090   0.01267  Uiso   1.00
C45    C     0.69110   0.25880   0.64630   0.01267  Uiso   1.00
C46    C     0.59020   0.29830   0.65920   0.01267  Uiso   1.00
C47    C     0.26500   0.50700   0.81773   0.01267  Uiso   1.00
C48    C     0.27630   0.57460   0.85866   0.01267  Uiso   1.00
C49    C     0.28690   0.65260   0.83397   0.01267  Uiso   1.00
C50    C     0.29890   0.71670   0.87110   0.01267  Uiso   1.00
C51    C     0.31320   0.79910   0.84500   0.01267  Uiso   1.00
C52    C     0.29870   0.70240   0.93325   0.01267  Uiso   1.00
C53    C     0.28870   0.62480   0.95775   0.01267  Uiso   1.00
C54    C     0.27840   0.56000   0.92062   0.01267  Uiso   1.00
C55    C     0.25620   0.56910   0.59502   0.01267  Uiso   1.00
C56    C     0.29880   0.61230   0.55591   0.01267  Uiso   1.00
C57    C     0.24120   0.71260   0.54962   0.01267  Uiso   1.00
C58    C     0.39710   0.55730   0.52752   0.01267  Uiso   1.00
C59    C     0.44460   0.45520   0.52191   0.01267  Uiso   1.00
C60    C     0.54470   0.39950   0.49504   0.01267  Uiso   1.00
C61    C     0.87510   0.96610   0.57129   0.01267  Uiso   1.00
C62    C     0.80540   0.94860   0.61225   0.01267  Uiso   1.00
C63    C     0.70430   0.01080   0.61232   0.01267  Uiso   1.00
C64    C     0.63740   0.99260   0.64903   0.01267  Uiso   1.00
C65    C     0.52800   0.05890   0.64730   0.01267  Uiso   1.00
C66    C     0.67490   0.91320   0.68630   0.01267  Uiso   1.00
C67    C     0.77630   0.85140   0.68790   0.01267  Uiso   1.00
C68    C     0.84180   0.86870   0.65023   0.01267  Uiso   1.00
C69    C     0.98660   0.90090   0.40950   0.01267  Uiso   1.00
C70    C     0.98450   0.84550   0.35683   0.01267  Uiso   1.00
C71    C     0.93410   0.89520   0.30692   0.01267  Uiso   1.00
C72    C     0.93120   0.84490   0.25624   0.01267  Uiso   1.00
C73    C     0.87680   0.89730   0.20199   0.01267  Uiso   1.00
C74    C     0.97920   0.74400   0.25745   0.01267  Uiso   1.00
C75    C     0.02960   0.69460   0.30787   0.01267  Uiso   1.00
C76    C     0.03270   0.74500   0.35716   0.01267  Uiso   1.00
C77    C     0.12880   0.85800   0.06430   0.01267  Uiso   1.00
C78    C     0.19900   0.78170   0.10328   0.01267  Uiso   1.00
C79    C     0.30030   0.75460   0.09688   0.01267  Uiso   1.00
C80    C     0.36730   0.68300   0.13310   0.01267  Uiso   1.00
C81    C     0.47620   0.65220   0.12550   0.01267  Uiso   1.00
C82    C     0.33080   0.64040   0.17680   0.01267  Uiso   1.00
C83    C     0.23120   0.66780   0.18370   0.01267  Uiso   1.00
C84    C     0.16500   0.73770   0.14660   0.01267  Uiso   1.00
C85    C     0.97740   0.11670   0.09023   0.01267  Uiso   1.00
C86    C     0.97080   0.17570   0.14320   0.01267  Uiso   1.00
C87    C     0.93060   0.16230   0.19826   0.01267  Uiso   1.00
C88    C     0.92440   0.21610   0.24897   0.01267  Uiso   1.00
C89    C     0.87770   0.20470   0.30792   0.01267  Uiso   1.00
C90    C     0.96050   0.28270   0.24363   0.01267  Uiso   1.00
C91    C     0.00100   0.29590   0.18890   0.01267  Uiso   1.00
C92    C     0.00630   0.24250   0.13851   0.01267  Uiso   1.00
C93    C     0.75260   0.94110   0.06405   0.01267  Uiso   1.00
C94    C     0.68210   0.90750   0.06628   0.01267  Uiso   1.00
C95    C     0.70230   0.82850   0.10506   0.01267  Uiso   1.00
C96    C     0.59290   0.95340   0.03315   0.01267  Uiso   1.00
C97    C     0.54450   0.05240   0.02043   0.01267  Uiso   1.00
C98    C     0.45360   0.09900   0.98887   0.01267  Uiso   1.00
C99    C     0.93990   0.53900   0.23381   0.01267  Uiso   1.00
C100   C     0.04870   0.49440   0.22184   0.01267  Uiso   1.00
C101   C     0.08820   0.50800   0.16611   0.01267  Uiso   1.00
C102   C     0.18910   0.46490   0.15302   0.01267  Uiso   1.00
C103   C     0.23250   0.47590   0.09240   0.01267  Uiso   1.00
C104   C     0.25160   0.40880   0.19780   0.01267  Uiso   1.00
C105   C     0.21350   0.39450   0.25340   0.01267  Uiso   1.00
C106   C     0.11200   0.43660   0.26550   0.01267  Uiso   1.00
C107   C     0.74590   0.74790   0.33013   0.01267  Uiso   1.00
C108   C     0.73490   0.82310   0.37322   0.01267  Uiso   1.00
C109   C     0.71970   0.91430   0.35219   0.01267  Uiso   1.00
C110   C     0.70520   0.98780   0.39201   0.01267  Uiso   1.00
C111   C     0.68640   0.08630   0.36950   0.01267  Uiso   1.00
C112   C     0.70670   0.96870   0.45350   0.01267  Uiso   1.00
C113   C     0.72250   0.87890   0.47508   0.01267  Uiso   1.00
C114   C     0.73630   0.80600   0.43509   0.01267  Uiso   1.00
C115   C     0.55360   0.69570   0.27859   0.01267  Uiso   1.00
C116   C     0.44500   0.73810   0.29237   0.01267  Uiso   1.00
C117   C     0.37930   0.81370   0.25866   0.01267  Uiso   1.00
C118   C     0.27740   0.85300   0.27080   0.01267  Uiso   1.00
C119   C     0.20600   0.93400   0.23440   0.01267  Uiso   1.00
C120   C     0.24300   0.81640   0.31910   0.01267  Uiso   1.00
C121   C     0.30890   0.74120   0.35370   0.01267  Uiso   1.00
C122   C     0.40980   0.70170   0.34080   0.01267  Uiso   1.00
C123   C     0.73500   0.49300   0.18227   0.01267  Uiso   1.00
C124   C     0.72370   0.42540   0.14134   0.01267  Uiso   1.00
C125   C     0.71310   0.34740   0.16603   0.01267  Uiso   1.00
C126   C     0.70110   0.28330   0.12890   0.01267  Uiso   1.00
C127   C     0.68680   0.20090   0.15500   0.01267  Uiso   1.00
C128   C     0.70130   0.29760   0.06675   0.01267  Uiso   1.00
C129   C     0.71130   0.37520   0.04225   0.01267  Uiso   1.00
C130   C     0.72160   0.44000   0.07938   0.01267  Uiso   1.00
C131   C     0.74380   0.43090   0.40498   0.01267  Uiso   1.00
C132   C     0.70120   0.38770   0.44409   0.01267  Uiso   1.00
C133   C     0.75880   0.28740   0.45038   0.01267  Uiso   1.00
C134   C     0.60290   0.44270   0.47248   0.01267  Uiso   1.00
C135   C     0.55540   0.54480   0.47809   0.01267  Uiso   1.00
C136   C     0.45530   0.60050   0.50496   0.01267  Uiso   1.00
C137   C     0.12490   0.03390   0.42871   0.01267  Uiso   1.00
C138   C     0.19460   0.05140   0.38775   0.01267  Uiso   1.00
C139   C     0.29570   0.98920   0.38768   0.01267  Uiso   1.00
C140   C     0.36260   0.00740   0.35097   0.01267  Uiso   1.00
C141   C     0.47200   0.94110   0.35270   0.01267  Uiso   1.00
C142   C     0.32510   0.08680   0.31370   0.01267  Uiso   1.00
C143   C     0.22370   0.14860   0.31210   0.01267  Uiso   1.00
C144   C     0.15820   0.13130   0.34977   0.01267  Uiso   1.00
C145   C     0.01340   0.09910   0.59050   0.01267  Uiso   1.00
C146   C     0.01550   0.15450   0.64317   0.01267  Uiso   1.00
C147   C     0.06590   0.10480   0.69308   0.01267  Uiso   1.00
C148   C     0.06880   0.15510   0.74376   0.01267  Uiso   1.00
C149   C     0.12320   0.10270   0.79801   0.01267  Uiso   1.00
C150   C     0.02080   0.25600   0.74255   0.01267  Uiso   1.00
C151   C     0.97040   0.30540   0.69213   0.01267  Uiso   1.00
C152   C     0.96730   0.25500   0.64284   0.01267  Uiso   1.00
S1     S     0.50717   0.77784   0.98225   0.01267  Uiso   1.00
S2     S     0.48217   0.28877   0.52111   0.01267  Uiso   1.00
S3     S     0.49283   0.22216   0.01775   0.01267  Uiso   1.00
S4     S     0.51783   0.71123   0.47889   0.01267  Uiso   1.00
N1     N     0.18710   0.03420   0.93841   0.01267  Uiso   1.00
N2     N     0.42520   0.88250   0.96092   0.01267  Uiso   1.00
N3     N     0.58260   0.80340   0.01543   0.01267  Uiso   1.00
N4     N     0.28130   0.23320   0.86177   0.01267  Uiso   1.00
N5     N     0.22040   0.53510   0.62805   0.01267  Uiso   1.00
N6     N     0.40200   0.39830   0.53811   0.01267  Uiso   1.00
N7     N     0.57360   0.30250   0.49232   0.01267  Uiso   1.00
N8     N     0.19000   0.79480   0.54648   0.01267  Uiso   1.00
N9     N     0.81290   0.96580   0.06159   0.01267  Uiso   1.00
N10    N     0.57480   0.11750   0.03908   0.01267  Uiso   1.00
N11    N     0.41740   0.19660   0.98457   0.01267  Uiso   1.00
N12    N     0.71870   0.76680   0.13823   0.01267  Uiso   1.00
N13    N     0.77960   0.46490   0.37195   0.01267  Uiso   1.00
N14    N     0.59800   0.60170   0.46189   0.01267  Uiso   1.00
N15    N     0.42640   0.69750   0.50768   0.01267  Uiso   1.00
N16    N     0.81000   0.20520   0.45352   0.01267  Uiso   1.00
O1     O     0.96172   0.12374   0.93030   0.01267  Uiso   1.00
O2     O     0.83971   0.09745   0.97249   0.01267  Uiso   1.00
O3     O     0.07799   0.92401   0.90964   0.01267  Uiso   1.00
O4     O     0.95971   0.89350   0.95333   0.01267  Uiso   1.00
O5     O     0.11576   0.39292   0.80021   0.01267  Uiso   1.00
O6     O     0.09331   0.49182   0.72158   0.01267  Uiso   1.00
O7     O     0.26331   0.23223   0.72610   0.01267  Uiso   1.00
O8     O     0.23895   0.33470   0.64885   0.01267  Uiso   1.00
O9     O     0.41425   0.27124   0.76571   0.01267  Uiso   1.00
O10    O     0.38937   0.37346   0.68829   0.01267  Uiso   1.00
O11    O     0.27102   0.42801   0.83990   0.01267  Uiso   1.00
O12    O     0.25068   0.52824   0.76219   0.01267  Uiso   1.00
O13    O     0.96736   0.90587   0.57086   0.01267  Uiso   1.00
O14    O     0.84048   0.04069   0.53680   0.01267  Uiso   1.00
O15    O     0.05099   0.85585   0.44851   0.01267  Uiso   1.00
O16    O     0.92571   0.99104   0.41411   0.01267  Uiso   1.00
O17    O     0.03828   0.87626   0.06970   0.01267  Uiso   1.00
O18    O     0.16029   0.90255   0.02751   0.01267  Uiso   1.00
O19    O     0.92201   0.07599   0.09036   0.01267  Uiso   1.00
O20    O     0.04029   0.10650   0.04667   0.01267  Uiso   1.00
O21    O     0.88424   0.60708   0.19979   0.01267  Uiso   1.00
O22    O     0.90669   0.50818   0.27842   0.01267  Uiso   1.00
O23    O     0.73669   0.76777   0.27390   0.01267  Uiso   1.00
O24    O     0.76105   0.66530   0.35115   0.01267  Uiso   1.00
O25    O     0.58575   0.72876   0.23429   0.01267  Uiso   1.00
O26    O     0.61063   0.62654   0.31171   0.01267  Uiso   1.00
O27    O     0.72898   0.57199   0.16010   0.01267  Uiso   1.00
O28    O     0.74932   0.47176   0.23781   0.01267  Uiso   1.00
O29    O     0.03264   0.09413   0.42914   0.01267  Uiso   1.00
O30    O     0.15952   0.95931   0.46320   0.01267  Uiso   1.00
O31    O     0.94901   0.14415   0.55149   0.01267  Uiso   1.00
O32    O     0.07429   0.00896   0.58589   0.01267  Uiso   1.00
