data_image0
_cell_length_a       16.9915
_cell_length_b       24.799
_cell_length_c       6.7833
_cell_angle_alpha    90
_cell_angle_beta     95.784
_cell_angle_gamma    90

_symmetry_space_group_name_H-M    "P 1"
_symmetry_int_tables_number       1

loop_
  _symmetry_equiv_pos_as_xyz
  'x, y, z'

loop_
  _atom_site_label
  _atom_site_occupancy
  _atom_site_fract_x
  _atom_site_fract_y
  _atom_site_fract_z
  _atom_site_thermal_displace_type
  _atom_site_B_iso_or_equiv
  _atom_site_type_symbol
  Pr1      1.0000 0.23071  0.66213  0.38240  Biso   1.000  Pr
  Ag1      1.0000 0.72940  0.77129  0.50981  Biso   1.000  Ag
  Ag2      1.0000 0.73488  0.51054  0.59660  Biso   1.000  Ag
  N1       1.0000 0.85087  0.52911  0.49920  Biso   1.000  N
  N2       1.0000 0.85567  0.77221  0.50080  Biso   1.000  N
  N3       1.0000 0.61316  0.53713  0.62480  Biso   1.000  N
  N4       1.0000 0.60317  0.77207  0.51670  Biso   1.000  N
  O1       1.0000 0.11470  0.60646  0.39790  Biso   1.000  O
  O2       1.0000 0.08681  0.55666  0.12600  Biso   1.000  O
  O3       1.0000 0.13823  0.73028  0.45800  Biso   1.000  O
  O4       1.0000 0.14559  0.81468  0.56870  Biso   1.000  O
  O5       1.0000 0.33440  0.60208  0.52710  Biso   1.000  O
  O6       1.0000 0.34975  0.58336  0.85090  Biso   1.000  O
  O7       1.0000 0.31686  0.73056  0.54890  Biso   1.000  O
  O8       1.0000 0.32798  0.81560  0.65450  Biso   1.000  O
  O9       1.0000 0.24082  0.57809  0.16240  Biso   1.000  O
  H1       1.0000 0.23920  0.54680  0.21290  Biso   1.000  H
  H2       1.0000 0.24570  0.58160  0.03950  Biso   1.000  H
  C1       1.0000 0.07110  0.57562  0.28650  Biso   1.000  C
  C2       1.0000 0.99220  0.56064  0.35860  Biso   1.000  C
  C3       1.0000 0.97350  0.57669  0.54450  Biso   1.000  C
  H3       1.0000 0.00830  0.59820  0.62460  Biso   1.000  H
  C4       1.0000 0.90290  0.56045  0.60910  Biso   1.000  C
  H4       1.0000 0.89080  0.57160  0.73340  Biso   1.000  H
  C5       1.0000 0.86980  0.51363  0.32070  Biso   1.000  C
  H5       1.0000 0.83470  0.49150  0.24400  Biso   1.000  H
  C6       1.0000 0.93860  0.52885  0.24550  Biso   1.000  C
  H6       1.0000 0.94890  0.51780  0.11960  Biso   1.000  H
  C7       1.0000 0.10834  0.77273  0.51360  Biso   1.000  C
  C8       1.0000 0.01968  0.77320  0.50790  Biso   1.000  C
  C9       1.0000 0.97720  0.82071  0.51060  Biso   1.000  C
  H7       1.0000 0.00340  0.85370  0.51600  Biso   1.000  H
  C10      1.0000 0.89670  0.81897  0.50540  Biso   1.000  C
  H8       1.0000 0.86900  0.85130  0.50500  Biso   1.000  H
  C11      1.0000 0.89680  0.72614  0.49740  Biso   1.000  C
  H9       1.0000 0.86950  0.69360  0.49390  Biso   1.000  H
  C12      1.0000 0.97760  0.72515  0.49900  Biso   1.000  C
  H10      1.0000 0.00400  0.69240  0.49410  Biso   1.000  H
  C13      1.0000 0.37330  0.58667  0.68380  Biso   1.000  C
  C14      1.0000 0.45840  0.57084  0.66510  Biso   1.000  C
  C15      1.0000 0.50600  0.54937  0.82190  Biso   1.000  C
  H11      1.0000 0.48700  0.54620  0.94530  Biso   1.000  H
  C16      1.0000 0.58150  0.53262  0.79670  Biso   1.000  C
  H12      1.0000 0.61190  0.51740  0.90430  Biso   1.000  H
  C17      1.0000 0.56770  0.55959  0.47280  Biso   1.000  C
  H13      1.0000 0.58910  0.56420  0.35290  Biso   1.000  H
  C18      1.0000 0.49100  0.57614  0.48610  Biso   1.000  C
  H14      1.0000 0.46130  0.59070  0.37630  Biso   1.000  H
  C19      1.0000 0.35459  0.77296  0.58690  Biso   1.000  C
  C20      1.0000 0.44112  0.77290  0.55310  Biso   1.000  C
  C21      1.0000 0.48300  0.82057  0.54250  Biso   1.000  C
  H15      1.0000 0.45750  0.85360  0.54880  Biso   1.000  H
  C22      1.0000 0.56260  0.81848  0.52270  Biso   1.000  C
  H16      1.0000 0.58980  0.85080  0.51280  Biso   1.000  H
  C23      1.0000 0.56190  0.72601  0.52480  Biso   1.000  C
  H17      1.0000 0.58860  0.69340  0.51940  Biso   1.000  H
  C24      1.0000 0.48180  0.72512  0.54060  Biso   1.000  C
  H18      1.0000 0.45520  0.69240  0.54280  Biso   1.000  H
  Pr2      1.0000 0.76929  0.16213  0.11760  Biso   1.000  Pr
  Ag3      1.0000 0.27060  0.27129  0.99019  Biso   1.000  Ag
  Ag4      1.0000 0.26512  0.01054  0.90340  Biso   1.000  Ag
  N5       1.0000 0.14913  0.02911  0.00080  Biso   1.000  N
  N6       1.0000 0.14433  0.27221  0.99920  Biso   1.000  N
  N7       1.0000 0.38684  0.03713  0.87520  Biso   1.000  N
  N8       1.0000 0.39683  0.27207  0.98330  Biso   1.000  N
  O10      1.0000 0.88530  0.10646  0.10210  Biso   1.000  O
  O11      1.0000 0.91319  0.05666  0.37400  Biso   1.000  O
  O12      1.0000 0.86177  0.23028  0.04200  Biso   1.000  O
  O13      1.0000 0.85441  0.31468  0.93130  Biso   1.000  O
  O14      1.0000 0.66560  0.10208  0.97290  Biso   1.000  O
  O15      1.0000 0.65025  0.08336  0.64910  Biso   1.000  O
  O16      1.0000 0.68314  0.23056  0.95110  Biso   1.000  O
  O17      1.0000 0.67202  0.31560  0.84550  Biso   1.000  O
  O18      1.0000 0.75918  0.07809  0.33760  Biso   1.000  O
  H19      1.0000 0.76080  0.04680  0.28710  Biso   1.000  H
  H20      1.0000 0.75430  0.08160  0.46050  Biso   1.000  H
  C25      1.0000 0.92890  0.07562  0.21350  Biso   1.000  C
  C26      1.0000 0.00780  0.06064  0.14140  Biso   1.000  C
  C27      1.0000 0.02650  0.07669  0.95550  Biso   1.000  C
  H21      1.0000 0.99170  0.09820  0.87540  Biso   1.000  H
  C28      1.0000 0.09710  0.06045  0.89090  Biso   1.000  C
  H22      1.0000 0.10920  0.07160  0.76660  Biso   1.000  H
  C29      1.0000 0.13020  0.01363  0.17930  Biso   1.000  C
  H23      1.0000 0.16530  0.99150  0.25600  Biso   1.000  H
  C30      1.0000 0.06140  0.02885  0.25450  Biso   1.000  C
  H24      1.0000 0.05110  0.01780  0.38040  Biso   1.000  H
  C31      1.0000 0.89166  0.27273  0.98640  Biso   1.000  C
  C32      1.0000 0.98032  0.27320  0.99210  Biso   1.000  C
  C33      1.0000 0.02280  0.32071  0.98940  Biso   1.000  C
  H25      1.0000 0.99660  0.35370  0.98400  Biso   1.000  H
  C34      1.0000 0.10330  0.31897  0.99460  Biso   1.000  C
  H26      1.0000 0.13100  0.35130  0.99500  Biso   1.000  H
  C35      1.0000 0.10320  0.22614  0.00260  Biso   1.000  C
  H27      1.0000 0.13050  0.19360  0.00610  Biso   1.000  H
  C36      1.0000 0.02240  0.22515  0.00100  Biso   1.000  C
  H28      1.0000 0.99600  0.19240  0.00590  Biso   1.000  H
  C37      1.0000 0.62670  0.08667  0.81620  Biso   1.000  C
  C38      1.0000 0.54160  0.07084  0.83490  Biso   1.000  C
  C39      1.0000 0.49400  0.04937  0.67810  Biso   1.000  C
  H29      1.0000 0.51300  0.04620  0.55470  Biso   1.000  H
  C40      1.0000 0.41850  0.03262  0.70330  Biso   1.000  C
  H30      1.0000 0.38810  0.01740  0.59570  Biso   1.000  H
  C41      1.0000 0.43230  0.05959  0.02720  Biso   1.000  C
  H31      1.0000 0.41090  0.06420  0.14710  Biso   1.000  H
  C42      1.0000 0.50900  0.07614  0.01390  Biso   1.000  C
  H32      1.0000 0.53870  0.09070  0.12370  Biso   1.000  H
  C43      1.0000 0.64541  0.27296  0.91310  Biso   1.000  C
  C44      1.0000 0.55888  0.27290  0.94690  Biso   1.000  C
  C45      1.0000 0.51700  0.32057  0.95750  Biso   1.000  C
  H33      1.0000 0.54250  0.35360  0.95120  Biso   1.000  H
  C46      1.0000 0.43740  0.31848  0.97730  Biso   1.000  C
  H34      1.0000 0.41020  0.35080  0.98720  Biso   1.000  H
  C47      1.0000 0.43810  0.22601  0.97520  Biso   1.000  C
  H35      1.0000 0.41140  0.19340  0.98060  Biso   1.000  H
  C48      1.0000 0.51820  0.22512  0.95940  Biso   1.000  C
  H36      1.0000 0.54480  0.19240  0.95720  Biso   1.000  H
  Pr3      1.0000 0.76929  0.33787  0.61760  Biso   1.000  Pr
  Ag5      1.0000 0.27060  0.22871  0.49019  Biso   1.000  Ag
  Ag6      1.0000 0.26512  0.48946  0.40340  Biso   1.000  Ag
  N9       1.0000 0.14913  0.47089  0.50080  Biso   1.000  N
  N10      1.0000 0.14433  0.22779  0.49920  Biso   1.000  N
  N11      1.0000 0.38684  0.46287  0.37520  Biso   1.000  N
  N12      1.0000 0.39683  0.22793  0.48330  Biso   1.000  N
  O19      1.0000 0.88530  0.39354  0.60210  Biso   1.000  O
  O20      1.0000 0.91319  0.44334  0.87400  Biso   1.000  O
  O21      1.0000 0.86177  0.26972  0.54200  Biso   1.000  O
  O22      1.0000 0.85441  0.18532  0.43130  Biso   1.000  O
  O23      1.0000 0.66560  0.39792  0.47290  Biso   1.000  O
  O24      1.0000 0.65025  0.41664  0.14910  Biso   1.000  O
  O25      1.0000 0.68314  0.26944  0.45110  Biso   1.000  O
  O26      1.0000 0.67202  0.18440  0.34550  Biso   1.000  O
  O27      1.0000 0.75918  0.42191  0.83760  Biso   1.000  O
  H37      1.0000 0.76080  0.45320  0.78710  Biso   1.000  H
  H38      1.0000 0.75430  0.41840  0.96050  Biso   1.000  H
  C49      1.0000 0.92890  0.42438  0.71350  Biso   1.000  C
  C50      1.0000 0.00780  0.43936  0.64140  Biso   1.000  C
  C51      1.0000 0.02650  0.42331  0.45550  Biso   1.000  C
  H39      1.0000 0.99170  0.40180  0.37540  Biso   1.000  H
  C52      1.0000 0.09710  0.43955  0.39090  Biso   1.000  C
  H40      1.0000 0.10920  0.42840  0.26660  Biso   1.000  H
  C53      1.0000 0.13020  0.48637  0.67930  Biso   1.000  C
  H41      1.0000 0.16530  0.50850  0.75600  Biso   1.000  H
  C54      1.0000 0.06140  0.47115  0.75450  Biso   1.000  C
  H42      1.0000 0.05110  0.48220  0.88040  Biso   1.000  H
  C55      1.0000 0.89166  0.22727  0.48640  Biso   1.000  C
  C56      1.0000 0.98032  0.22680  0.49210  Biso   1.000  C
  C57      1.0000 0.02280  0.17929  0.48940  Biso   1.000  C
  H43      1.0000 0.99660  0.14630  0.48400  Biso   1.000  H
  C58      1.0000 0.10330  0.18103  0.49460  Biso   1.000  C
  H44      1.0000 0.13100  0.14870  0.49500  Biso   1.000  H
  C59      1.0000 0.10320  0.27386  0.50260  Biso   1.000  C
  H45      1.0000 0.13050  0.30640  0.50610  Biso   1.000  H
  C60      1.0000 0.02240  0.27485  0.50100  Biso   1.000  C
  H46      1.0000 0.99600  0.30760  0.50590  Biso   1.000  H
  C61      1.0000 0.62670  0.41333  0.31620  Biso   1.000  C
  C62      1.0000 0.54160  0.42916  0.33490  Biso   1.000  C
  C63      1.0000 0.49400  0.45063  0.17810  Biso   1.000  C
  H47      1.0000 0.51300  0.45380  0.05470  Biso   1.000  H
  C64      1.0000 0.41850  0.46738  0.20330  Biso   1.000  C
  H48      1.0000 0.38810  0.48260  0.09570  Biso   1.000  H
  C65      1.0000 0.43230  0.44041  0.52720  Biso   1.000  C
  H49      1.0000 0.41090  0.43580  0.64710  Biso   1.000  H
  C66      1.0000 0.50900  0.42386  0.51390  Biso   1.000  C
  H50      1.0000 0.53870  0.40930  0.62370  Biso   1.000  H
  C67      1.0000 0.64541  0.22704  0.41310  Biso   1.000  C
  C68      1.0000 0.55888  0.22710  0.44690  Biso   1.000  C
  C69      1.0000 0.51700  0.17943  0.45750  Biso   1.000  C
  H51      1.0000 0.54250  0.14640  0.45120  Biso   1.000  H
  C70      1.0000 0.43740  0.18152  0.47730  Biso   1.000  C
  H52      1.0000 0.41020  0.14920  0.48720  Biso   1.000  H
  C71      1.0000 0.43810  0.27399  0.47520  Biso   1.000  C
  H53      1.0000 0.41140  0.30660  0.48060  Biso   1.000  H
  C72      1.0000 0.51820  0.27488  0.45940  Biso   1.000  C
  H54      1.0000 0.54480  0.30760  0.45720  Biso   1.000  H
  Pr4      1.0000 0.23071  0.83787  0.88240  Biso   1.000  Pr
  Ag7      1.0000 0.72940  0.72871  0.00981  Biso   1.000  Ag
  Ag8      1.0000 0.73488  0.98946  0.09660  Biso   1.000  Ag
  N13      1.0000 0.85087  0.97089  0.99920  Biso   1.000  N
  N14      1.0000 0.85567  0.72779  0.00080  Biso   1.000  N
  N15      1.0000 0.61316  0.96287  0.12480  Biso   1.000  N
  N16      1.0000 0.60317  0.72793  0.01670  Biso   1.000  N
  O28      1.0000 0.11470  0.89354  0.89790  Biso   1.000  O
  O29      1.0000 0.08681  0.94334  0.62600  Biso   1.000  O
  O30      1.0000 0.13823  0.76972  0.95800  Biso   1.000  O
  O31      1.0000 0.14559  0.68532  0.06870  Biso   1.000  O
  O32      1.0000 0.33440  0.89792  0.02710  Biso   1.000  O
  O33      1.0000 0.34975  0.91664  0.35090  Biso   1.000  O
  O34      1.0000 0.31686  0.76944  0.04890  Biso   1.000  O
  O35      1.0000 0.32798  0.68440  0.15450  Biso   1.000  O
  O36      1.0000 0.24082  0.92191  0.66240  Biso   1.000  O
  H55      1.0000 0.23920  0.95320  0.71290  Biso   1.000  H
  H56      1.0000 0.24570  0.91840  0.53950  Biso   1.000  H
  C73      1.0000 0.07110  0.92438  0.78650  Biso   1.000  C
  C74      1.0000 0.99220  0.93936  0.85860  Biso   1.000  C
  C75      1.0000 0.97350  0.92331  0.04450  Biso   1.000  C
  H57      1.0000 0.00830  0.90180  0.12460  Biso   1.000  H
  C76      1.0000 0.90290  0.93955  0.10910  Biso   1.000  C
  H58      1.0000 0.89080  0.92840  0.23340  Biso   1.000  H
  C77      1.0000 0.86980  0.98637  0.82070  Biso   1.000  C
  H59      1.0000 0.83470  0.00850  0.74400  Biso   1.000  H
  C78      1.0000 0.93860  0.97115  0.74550  Biso   1.000  C
  H60      1.0000 0.94890  0.98220  0.61960  Biso   1.000  H
  C79      1.0000 0.10834  0.72727  0.01360  Biso   1.000  C
  C80      1.0000 0.01968  0.72680  0.00790  Biso   1.000  C
  C81      1.0000 0.97720  0.67929  0.01060  Biso   1.000  C
  H61      1.0000 0.00340  0.64630  0.01600  Biso   1.000  H
  C82      1.0000 0.89670  0.68103  0.00540  Biso   1.000  C
  H62      1.0000 0.86900  0.64870  0.00500  Biso   1.000  H
  C83      1.0000 0.89680  0.77386  0.99740  Biso   1.000  C
  H63      1.0000 0.86950  0.80640  0.99390  Biso   1.000  H
  C84      1.0000 0.97760  0.77485  0.99900  Biso   1.000  C
  H64      1.0000 0.00400  0.80760  0.99410  Biso   1.000  H
  C85      1.0000 0.37330  0.91333  0.18380  Biso   1.000  C
  C86      1.0000 0.45840  0.92916  0.16510  Biso   1.000  C
  C87      1.0000 0.50600  0.95063  0.32190  Biso   1.000  C
  H65      1.0000 0.48700  0.95380  0.44530  Biso   1.000  H
  C88      1.0000 0.58150  0.96738  0.29670  Biso   1.000  C
  H66      1.0000 0.61190  0.98260  0.40430  Biso   1.000  H
  C89      1.0000 0.56770  0.94041  0.97280  Biso   1.000  C
  H67      1.0000 0.58910  0.93580  0.85290  Biso   1.000  H
  C90      1.0000 0.49100  0.92386  0.98610  Biso   1.000  C
  H68      1.0000 0.46130  0.90930  0.87630  Biso   1.000  H
  C91      1.0000 0.35459  0.72704  0.08690  Biso   1.000  C
  C92      1.0000 0.44112  0.72710  0.05310  Biso   1.000  C
  C93      1.0000 0.48300  0.67943  0.04250  Biso   1.000  C
  H69      1.0000 0.45750  0.64640  0.04880  Biso   1.000  H
  C94      1.0000 0.56260  0.68152  0.02270  Biso   1.000  C
  H70      1.0000 0.58980  0.64920  0.01280  Biso   1.000  H
  C95      1.0000 0.56190  0.77399  0.02480  Biso   1.000  C
  H71      1.0000 0.58860  0.80660  0.01940  Biso   1.000  H
  C96      1.0000 0.48180  0.77488  0.04060  Biso   1.000  C
  H72      1.0000 0.45520  0.80760  0.04280  Biso   1.000  H
