data_image0
_cell_length_a       8.1219
_cell_length_b       11.0982
_cell_length_c       13.7649
_cell_angle_alpha    91.3904
_cell_angle_beta     100.821
_cell_angle_gamma    103.378

_symmetry_space_group_name_H-M    "P 1"
_symmetry_int_tables_number       1

loop_
  _symmetry_equiv_pos_as_xyz
  'x, y, z'

loop_
  _atom_site_label
  _atom_site_occupancy
  _atom_site_fract_x
  _atom_site_fract_y
  _atom_site_fract_z
  _atom_site_thermal_displace_type
  _atom_site_B_iso_or_equiv
  _atom_site_type_symbol
  Cu1      1.0000 0.46830  0.99910  0.81240  Biso   1.000  Cu
  Cu2      1.0000 0.33680  0.15480  0.71750  Biso   1.000  Cu
  N1       1.0000 0.49120  0.00470  0.95770  Biso   1.000  N
  C1       1.0000 0.21690  0.96510  0.73840  Biso   1.000  C
  C2       1.0000 0.58480  0.20230  0.77620  Biso   1.000  C
  C3       1.0000 0.60530  0.90270  0.75660  Biso   1.000  C
  N2       1.0000 0.26390  0.16980  0.57420  Biso   1.000  N
  N3       1.0000 0.20510  0.26290  0.77520  Biso   1.000  N
  N4       1.0000 0.08230  0.90080  0.70910  Biso   1.000  N
  C4       1.0000 0.21690  0.18610  0.49260  Biso   1.000  C
  C5       1.0000 0.11950  0.32310  0.79380  Biso   1.000  C
  Cu3      1.0000 0.85060  0.78220  0.64570  Biso   1.000  Cu
  Cu4      1.0000 0.94400  0.40370  0.82210  Biso   1.000  Cu
  N5       1.0000 0.68960  0.85300  0.72210  Biso   1.000  N
  C6       1.0000 0.86340  0.62170  0.69290  Biso   1.000  C
  N6       1.0000 0.71720  0.26680  0.79830  Biso   1.000  N
  N7       1.0000 0.88750  0.53660  0.73250  Biso   1.000  N
  C7       1.0000 0.98550  0.47720  0.96010  Biso   1.000  C
  Cu5      1.0000 0.53170  0.00090  0.18760  Biso   1.000  Cu
  Cu6      1.0000 0.66320  0.84520  0.28250  Biso   1.000  Cu
  N8       1.0000 0.50880  0.99530  0.04230  Biso   1.000  N
  C8       1.0000 0.78310  0.03490  0.26160  Biso   1.000  C
  C9       1.0000 0.41520  0.79770  0.22380  Biso   1.000  C
  C10      1.0000 0.39470  0.09730  0.24340  Biso   1.000  C
  N9       1.0000 0.73610  0.83020  0.42580  Biso   1.000  N
  N10      1.0000 0.79490  0.73710  0.22480  Biso   1.000  N
  N11      1.0000 0.91770  0.09920  0.29090  Biso   1.000  N
  C11      1.0000 0.78310  0.81390  0.50740  Biso   1.000  C
  C12      1.0000 0.88050  0.67690  0.20620  Biso   1.000  C
  Cu7      1.0000 0.14940  0.21780  0.35430  Biso   1.000  Cu
  Cu8      1.0000 0.05600  0.59630  0.17790  Biso   1.000  Cu
  N12      1.0000 0.31040  0.14700  0.27790  Biso   1.000  N
  C13      1.0000 0.13660  0.37830  0.30710  Biso   1.000  C
  N13      1.0000 0.28280  0.73320  0.20170  Biso   1.000  N
  N14      1.0000 0.11250  0.46340  0.26750  Biso   1.000  N
  C14      1.0000 0.01450  0.52280  0.03990  Biso   1.000  C
  C15      1.0000 0.80830  0.27310  0.53150  Biso   1.000  C
  N15      1.0000 0.86790  0.10250  0.63420  Biso   1.000  N
  C16      1.0000 0.74620  0.13700  0.54620  Biso   1.000  C
  C17      1.0000 0.60980  0.48880  0.36110  Biso   1.000  C
  C18      1.0000 0.73950  0.44670  0.43430  Biso   1.000  C
  C19      1.0000 0.68760  0.31370  0.45350  Biso   1.000  C
  N16      1.0000 0.55090  0.42760  0.27260  Biso   1.000  N
  H1       1.0000 0.83160  0.01580  0.64430  Biso   1.000  H
  H2       1.0000 0.86591  0.15101  0.69249  Biso   1.000  H
  H3       1.0000 0.98302  0.12032  0.62152  Biso   1.000  H
  H4       1.0000 0.63049  0.12073  0.55797  Biso   1.000  H
  H5       1.0000 0.74761  0.09004  0.48700  Biso   1.000  H
  H6       1.0000 0.81229  0.31981  0.59192  Biso   1.000  H
  H7       1.0000 0.92178  0.28871  0.51654  Biso   1.000  H
  H8       1.0000 0.68684  0.26817  0.39315  Biso   1.000  H
  H9       1.0000 0.57369  0.29467  0.46798  Biso   1.000  H
  H10      1.0000 0.84543  0.46081  0.41020  Biso   1.000  H
  H11      1.0000 0.76018  0.48939  0.49854  Biso   1.000  H
  H12      1.0000 0.51145  0.48800  0.39057  Biso   1.000  H
  H13      1.0000 0.65989  0.57219  0.34726  Biso   1.000  H
  H14      1.0000 0.46815  0.46427  0.23235  Biso   1.000  H
  H15      1.0000 0.49678  0.34370  0.28294  Biso   1.000  H
  H16      1.0000 0.64522  0.42790  0.23962  Biso   1.000  H
  C20      1.0000 0.19170  0.72690  0.46850  Biso   1.000  C
  N17      1.0000 0.13210  0.89750  0.36580  Biso   1.000  N
  C21      1.0000 0.25380  0.86300  0.45380  Biso   1.000  C
  C22      1.0000 0.39020  0.51120  0.63890  Biso   1.000  C
  C23      1.0000 0.26050  0.55330  0.56570  Biso   1.000  C
  C24      1.0000 0.31240  0.68630  0.54650  Biso   1.000  C
  N18      1.0000 0.44910  0.57240  0.72740  Biso   1.000  N
  H17      1.0000 0.16840  0.98420  0.35570  Biso   1.000  H
  H18      1.0000 0.13409  0.84899  0.30751  Biso   1.000  H
  H19      1.0000 0.01698  0.87968  0.37848  Biso   1.000  H
  H20      1.0000 0.36951  0.87927  0.44203  Biso   1.000  H
  H21      1.0000 0.25239  0.90996  0.51300  Biso   1.000  H
  H22      1.0000 0.18771  0.68019  0.40808  Biso   1.000  H
  H23      1.0000 0.07822  0.71129  0.48346  Biso   1.000  H
  H24      1.0000 0.31316  0.73183  0.60685  Biso   1.000  H
  H25      1.0000 0.42631  0.70533  0.53202  Biso   1.000  H
  H26      1.0000 0.15457  0.53919  0.58980  Biso   1.000  H
  H27      1.0000 0.23982  0.51061  0.50146  Biso   1.000  H
  H28      1.0000 0.48855  0.51200  0.60943  Biso   1.000  H
  H29      1.0000 0.34011  0.42781  0.65274  Biso   1.000  H
  H30      1.0000 0.53185  0.53573  0.76765  Biso   1.000  H
  H31      1.0000 0.50322  0.65630  0.71706  Biso   1.000  H
  H32      1.0000 0.35478  0.57210  0.76038  Biso   1.000  H
