data_EHODOV_clean
_audit_creation_date              2015-05-14
_audit_creation_method            'Materials Studio'
_symmetry_space_group_name_H-M    'P1'
_symmetry_Int_Tables_number       1
_symmetry_cell_setting            triclinic
loop_
_symmetry_equiv_pos_as_xyz
  x,y,z
_cell_length_a                    13.9668
_cell_length_b                    25.3174
_cell_length_c                    25.1821
_cell_angle_alpha                 32.1101
_cell_angle_beta                  74.4783
_cell_angle_gamma                 73.4115
loop_
_atom_site_label
_atom_site_type_symbol
_atom_site_fract_x
_atom_site_fract_y
_atom_site_fract_z
_atom_site_U_iso_or_equiv
_atom_site_adp_type
_atom_site_occupancy
H1     H     0.03550   0.43170   0.90770   0.01267  Uiso   1.00
H2     H     0.27420   0.44460   0.95420   0.01267  Uiso   1.00
H3     H     0.04330   0.65970   0.87790   0.01267  Uiso   1.00
H4     H     0.04190   0.75030   0.87830   0.01267  Uiso   1.00
H5     H     0.11040   0.98720   0.58280   0.01267  Uiso   1.00
H6     H     0.98390   0.59730   0.79310   0.01267  Uiso   1.00
H7     H     0.10640   0.89800   0.58240   0.01267  Uiso   1.00
H8     H     0.22170   0.61350   0.83390   0.01267  Uiso   1.00
C9     C     0.19212   0.31228   0.01888   0.01267  Uiso   1.00
C10    C     0.07328   0.46692   0.89472   0.01267  Uiso   1.00
C11    C     0.21555   0.47485   0.92185   0.01267  Uiso   1.00
C12    C     0.07946   0.87834   0.73034   0.01267  Uiso   1.00
C13    C     0.07767   0.76953   0.73053   0.01267  Uiso   1.00
C14    C     0.05706   0.72574   0.81874   0.01267  Uiso   1.00
C15    C     0.15870   0.41990   0.94490   0.01267  Uiso   1.00
C16    C     0.05690   0.77950   0.81910   0.01267  Uiso   1.00
C17    C     0.08271   0.93529   0.73129   0.01267  Uiso   1.00
C18    C     0.09708   0.92092   0.64252   0.01267  Uiso   1.00
C19    C     0.04312   0.56648   0.82508   0.01267  Uiso   1.00
C20    C     0.09558   0.86802   0.64202   0.01267  Uiso   1.00
C21    C     0.09828   0.61892   0.80332   0.01267  Uiso   1.00
C22    C     0.18410   0.57590   0.84990   0.01267  Uiso   1.00
O23    O     0.06286   0.23556   0.48794   0.01267  Uiso   1.00
O24    O     0.11681   0.01943   0.65251   0.01267  Uiso   1.00
O25    O     0.05243   0.89803   0.80937   0.01267  Uiso   1.00
O26    O     0.26835   0.27181   0.06615   0.01267  Uiso   1.00
O27    O     0.14196   0.27292   0.02584   0.01267  Uiso   1.00
O28    O     0.07169   0.72051   0.72511   0.01267  Uiso   1.00
H29    H     0.43170   0.03550   0.62510   0.01267  Uiso   1.00
H30    H     0.44460   0.27420   0.32700   0.01267  Uiso   1.00
H31    H     0.65970   0.04330   0.41910   0.01267  Uiso   1.00
H32    H     0.75030   0.04190   0.32950   0.01267  Uiso   1.00
H33    H     0.98720   0.11040   0.31960   0.01267  Uiso   1.00
H34    H     0.59730   0.98390   0.62570   0.01267  Uiso   1.00
H35    H     0.89800   0.10640   0.41320   0.01267  Uiso   1.00
H36    H     0.61350   0.22170   0.33090   0.01267  Uiso   1.00
C37    C     0.31228   0.19212   0.47672   0.01267  Uiso   1.00
C38    C     0.46692   0.07328   0.56508   0.01267  Uiso   1.00
C39    C     0.47485   0.21555   0.38775   0.01267  Uiso   1.00
C40    C     0.87834   0.07946   0.31186   0.01267  Uiso   1.00
C41    C     0.76953   0.07767   0.42227   0.01267  Uiso   1.00
C42    C     0.72574   0.05706   0.39846   0.01267  Uiso   1.00
C43    C     0.41990   0.15870   0.47650   0.01267  Uiso   1.00
C44    C     0.77950   0.05690   0.34450   0.01267  Uiso   1.00
C45    C     0.93529   0.08271   0.25071   0.01267  Uiso   1.00
C46    C     0.92092   0.09708   0.33948   0.01267  Uiso   1.00
C47    C     0.56648   0.04312   0.56532   0.01267  Uiso   1.00
C48    C     0.86802   0.09558   0.39438   0.01267  Uiso   1.00
C49    C     0.61892   0.09828   0.47948   0.01267  Uiso   1.00
C50    C     0.57590   0.18410   0.39010   0.01267  Uiso   1.00
O51    O     0.23556   0.06286   0.21364   0.01267  Uiso   1.00
O52    O     0.01943   0.11681   0.21125   0.01267  Uiso   1.00
O53    O     0.89803   0.05243   0.24017   0.01267  Uiso   1.00
O54    O     0.27181   0.26835   0.39369   0.01267  Uiso   1.00
O55    O     0.27292   0.14196   0.55928   0.01267  Uiso   1.00
O56    O     0.72051   0.07169   0.48269   0.01267  Uiso   1.00
H57    H     0.90770   0.62510   0.03550   0.01267  Uiso   1.00
H58    H     0.95420   0.32700   0.27420   0.01267  Uiso   1.00
H59    H     0.87790   0.41910   0.04330   0.01267  Uiso   1.00
H60    H     0.87830   0.32950   0.04190   0.01267  Uiso   1.00
H61    H     0.58280   0.31960   0.11040   0.01267  Uiso   1.00
H62    H     0.79310   0.62570   0.98390   0.01267  Uiso   1.00
H63    H     0.58240   0.41320   0.10640   0.01267  Uiso   1.00
H64    H     0.83390   0.33090   0.22170   0.01267  Uiso   1.00
C65    C     0.01888   0.47672   0.19212   0.01267  Uiso   1.00
C66    C     0.89472   0.56508   0.07328   0.01267  Uiso   1.00
C67    C     0.92185   0.38775   0.21555   0.01267  Uiso   1.00
C68    C     0.73034   0.31186   0.07946   0.01267  Uiso   1.00
C69    C     0.73053   0.42227   0.07767   0.01267  Uiso   1.00
C70    C     0.81874   0.39846   0.05706   0.01267  Uiso   1.00
C71    C     0.94490   0.47650   0.15870   0.01267  Uiso   1.00
C72    C     0.81910   0.34450   0.05690   0.01267  Uiso   1.00
C73    C     0.73129   0.25071   0.08271   0.01267  Uiso   1.00
C74    C     0.64252   0.33948   0.09708   0.01267  Uiso   1.00
C75    C     0.82508   0.56532   0.04312   0.01267  Uiso   1.00
C76    C     0.64202   0.39438   0.09558   0.01267  Uiso   1.00
C77    C     0.80332   0.47948   0.09828   0.01267  Uiso   1.00
C78    C     0.84990   0.39010   0.18410   0.01267  Uiso   1.00
O79    O     0.48794   0.21364   0.06286   0.01267  Uiso   1.00
O80    O     0.65251   0.21125   0.11681   0.01267  Uiso   1.00
O81    O     0.80937   0.24017   0.05243   0.01267  Uiso   1.00
O82    O     0.06615   0.39369   0.26835   0.01267  Uiso   1.00
O83    O     0.02584   0.55928   0.14196   0.01267  Uiso   1.00
O84    O     0.72511   0.48269   0.07169   0.01267  Uiso   1.00
H85    H     0.62510   0.90770   0.43170   0.01267  Uiso   1.00
H86    H     0.32700   0.95420   0.44460   0.01267  Uiso   1.00
H87    H     0.41910   0.87790   0.65970   0.01267  Uiso   1.00
H88    H     0.32950   0.87830   0.75030   0.01267  Uiso   1.00
H89    H     0.31960   0.58280   0.98720   0.01267  Uiso   1.00
H90    H     0.62570   0.79310   0.59730   0.01267  Uiso   1.00
H91    H     0.41320   0.58240   0.89800   0.01267  Uiso   1.00
H92    H     0.33090   0.83390   0.61350   0.01267  Uiso   1.00
C93    C     0.47672   0.01888   0.31228   0.01267  Uiso   1.00
C94    C     0.56508   0.89472   0.46692   0.01267  Uiso   1.00
C95    C     0.38775   0.92185   0.47485   0.01267  Uiso   1.00
C96    C     0.31186   0.73034   0.87834   0.01267  Uiso   1.00
C97    C     0.42227   0.73053   0.76953   0.01267  Uiso   1.00
C98    C     0.39846   0.81874   0.72574   0.01267  Uiso   1.00
C99    C     0.47650   0.94490   0.41990   0.01267  Uiso   1.00
C100   C     0.34450   0.81910   0.77950   0.01267  Uiso   1.00
C101   C     0.25071   0.73129   0.93529   0.01267  Uiso   1.00
C102   C     0.33948   0.64252   0.92092   0.01267  Uiso   1.00
C103   C     0.56532   0.82508   0.56648   0.01267  Uiso   1.00
C104   C     0.39438   0.64202   0.86802   0.01267  Uiso   1.00
C105   C     0.47948   0.80332   0.61892   0.01267  Uiso   1.00
C106   C     0.39010   0.84990   0.57590   0.01267  Uiso   1.00
O107   O     0.21364   0.48794   0.23556   0.01267  Uiso   1.00
O108   O     0.21125   0.65251   0.01943   0.01267  Uiso   1.00
O109   O     0.24017   0.80937   0.89803   0.01267  Uiso   1.00
O110   O     0.39369   0.06615   0.27181   0.01267  Uiso   1.00
O111   O     0.55928   0.02584   0.27292   0.01267  Uiso   1.00
O112   O     0.48269   0.72511   0.72051   0.01267  Uiso   1.00
H113   H     0.27607   0.49173   0.24415   0.01267  Uiso   1.00
H114   H     0.21450   0.81830   0.34230   0.01267  Uiso   1.00
H115   H     0.97580   0.80540   0.29580   0.01267  Uiso   1.00
H116   H     0.20670   0.59030   0.37210   0.01267  Uiso   1.00
H117   H     0.20810   0.49970   0.37170   0.01267  Uiso   1.00
H118   H     0.13960   0.26280   0.66720   0.01267  Uiso   1.00
H119   H     0.26610   0.65270   0.45690   0.01267  Uiso   1.00
H120   H     0.14360   0.35200   0.66760   0.01267  Uiso   1.00
H121   H     0.02830   0.63650   0.41610   0.01267  Uiso   1.00
C122   C     0.05788   0.93772   0.23112   0.01267  Uiso   1.00
C123   C     0.17672   0.78308   0.35528   0.01267  Uiso   1.00
C124   C     0.03445   0.77515   0.32815   0.01267  Uiso   1.00
C125   C     0.17054   0.37166   0.51966   0.01267  Uiso   1.00
C126   C     0.17233   0.48047   0.51947   0.01267  Uiso   1.00
C127   C     0.19294   0.52426   0.43126   0.01267  Uiso   1.00
C128   C     0.09130   0.83010   0.30510   0.01267  Uiso   1.00
C129   C     0.19310   0.47050   0.43090   0.01267  Uiso   1.00
C130   C     0.16729   0.31471   0.51871   0.01267  Uiso   1.00
C131   C     0.15292   0.32908   0.60748   0.01267  Uiso   1.00
C132   C     0.20688   0.68352   0.42492   0.01267  Uiso   1.00
C133   C     0.15442   0.38198   0.60798   0.01267  Uiso   1.00
C134   C     0.15172   0.63108   0.44668   0.01267  Uiso   1.00
C135   C     0.06590   0.67410   0.40010   0.01267  Uiso   1.00
O136   O     0.18714   0.01444   0.76206   0.01267  Uiso   1.00
O137   O     0.13319   0.23057   0.59749   0.01267  Uiso   1.00
O138   O     0.19757   0.35197   0.44063   0.01267  Uiso   1.00
O139   O     0.98165   0.97819   0.18385   0.01267  Uiso   1.00
O140   O     0.10804   0.97708   0.22416   0.01267  Uiso   1.00
O141   O     0.17831   0.52949   0.52489   0.01267  Uiso   1.00
H142   H     0.26194   0.00585   0.75827   0.01267  Uiso   1.00
H143   H     0.81830   0.21450   0.62490   0.01267  Uiso   1.00
H144   H     0.80540   0.97580   0.92300   0.01267  Uiso   1.00
H145   H     0.59030   0.20670   0.83090   0.01267  Uiso   1.00
H146   H     0.49970   0.20810   0.92050   0.01267  Uiso   1.00
H147   H     0.26280   0.13960   0.93040   0.01267  Uiso   1.00
H148   H     0.65270   0.26610   0.62430   0.01267  Uiso   1.00
H149   H     0.35200   0.14360   0.83680   0.01267  Uiso   1.00
H150   H     0.63650   0.02830   0.91910   0.01267  Uiso   1.00
C151   C     0.93772   0.05788   0.77328   0.01267  Uiso   1.00
C152   C     0.78308   0.17672   0.68492   0.01267  Uiso   1.00
C153   C     0.77515   0.03445   0.86225   0.01267  Uiso   1.00
C154   C     0.37166   0.17054   0.93814   0.01267  Uiso   1.00
C155   C     0.48047   0.17233   0.82773   0.01267  Uiso   1.00
C156   C     0.52426   0.19294   0.85154   0.01267  Uiso   1.00
C157   C     0.83010   0.09130   0.77350   0.01267  Uiso   1.00
C158   C     0.47050   0.19310   0.90550   0.01267  Uiso   1.00
C159   C     0.31471   0.16729   0.99929   0.01267  Uiso   1.00
C160   C     0.32908   0.15292   0.91052   0.01267  Uiso   1.00
C161   C     0.68352   0.20688   0.68468   0.01267  Uiso   1.00
C162   C     0.38198   0.15442   0.85562   0.01267  Uiso   1.00
C163   C     0.63108   0.15172   0.77052   0.01267  Uiso   1.00
C164   C     0.67410   0.06590   0.85990   0.01267  Uiso   1.00
O165   O     0.01444   0.18714   0.03636   0.01267  Uiso   1.00
O166   O     0.23057   0.13319   0.03875   0.01267  Uiso   1.00
O167   O     0.35197   0.19757   0.00983   0.01267  Uiso   1.00
O168   O     0.97819   0.98165   0.85631   0.01267  Uiso   1.00
O169   O     0.97708   0.10804   0.69072   0.01267  Uiso   1.00
O170   O     0.52949   0.17831   0.76731   0.01267  Uiso   1.00
H171   H     0.34230   0.62490   0.21450   0.01267  Uiso   1.00
H172   H     0.29580   0.92300   0.97580   0.01267  Uiso   1.00
H173   H     0.37210   0.83090   0.20670   0.01267  Uiso   1.00
H174   H     0.37170   0.92050   0.20810   0.01267  Uiso   1.00
H175   H     0.66720   0.93040   0.13960   0.01267  Uiso   1.00
H176   H     0.45690   0.62430   0.26610   0.01267  Uiso   1.00
H177   H     0.66760   0.83680   0.14360   0.01267  Uiso   1.00
H178   H     0.41610   0.91910   0.02830   0.01267  Uiso   1.00
C179   C     0.23112   0.77328   0.05788   0.01267  Uiso   1.00
C180   C     0.35528   0.68492   0.17672   0.01267  Uiso   1.00
C181   C     0.32815   0.86225   0.03445   0.01267  Uiso   1.00
C182   C     0.51966   0.93814   0.17054   0.01267  Uiso   1.00
C183   C     0.51947   0.82773   0.17233   0.01267  Uiso   1.00
C184   C     0.43126   0.85154   0.19294   0.01267  Uiso   1.00
C185   C     0.30510   0.77350   0.09130   0.01267  Uiso   1.00
C186   C     0.43090   0.90550   0.19310   0.01267  Uiso   1.00
C187   C     0.51871   0.99929   0.16729   0.01267  Uiso   1.00
C188   C     0.60748   0.91052   0.15292   0.01267  Uiso   1.00
C189   C     0.42492   0.68468   0.20688   0.01267  Uiso   1.00
C190   C     0.60798   0.85562   0.15442   0.01267  Uiso   1.00
C191   C     0.44668   0.77052   0.15172   0.01267  Uiso   1.00
C192   C     0.40010   0.85990   0.06590   0.01267  Uiso   1.00
O193   O     0.76206   0.03636   0.18714   0.01267  Uiso   1.00
O194   O     0.59749   0.03875   0.13319   0.01267  Uiso   1.00
O195   O     0.44063   0.00983   0.19757   0.01267  Uiso   1.00
O196   O     0.18385   0.85631   0.98165   0.01267  Uiso   1.00
O197   O     0.22416   0.69072   0.10804   0.01267  Uiso   1.00
O198   O     0.52489   0.76731   0.17831   0.01267  Uiso   1.00
H199   H     0.62490   0.34230   0.81830   0.01267  Uiso   1.00
H200   H     0.92300   0.29580   0.80540   0.01267  Uiso   1.00
H201   H     0.83090   0.37210   0.59030   0.01267  Uiso   1.00
H202   H     0.92050   0.37170   0.49970   0.01267  Uiso   1.00
H203   H     0.93040   0.66720   0.26280   0.01267  Uiso   1.00
H204   H     0.62430   0.45690   0.65270   0.01267  Uiso   1.00
H205   H     0.83680   0.66760   0.35200   0.01267  Uiso   1.00
H206   H     0.91910   0.41610   0.63650   0.01267  Uiso   1.00
C207   C     0.77328   0.23112   0.93772   0.01267  Uiso   1.00
C208   C     0.68492   0.35528   0.78308   0.01267  Uiso   1.00
C209   C     0.86225   0.32815   0.77515   0.01267  Uiso   1.00
C210   C     0.93814   0.51966   0.37166   0.01267  Uiso   1.00
C211   C     0.82773   0.51947   0.48047   0.01267  Uiso   1.00
C212   C     0.85154   0.43126   0.52426   0.01267  Uiso   1.00
C213   C     0.77350   0.30510   0.83010   0.01267  Uiso   1.00
C214   C     0.90550   0.43090   0.47050   0.01267  Uiso   1.00
C215   C     0.99929   0.51871   0.31471   0.01267  Uiso   1.00
C216   C     0.91052   0.60748   0.32908   0.01267  Uiso   1.00
C217   C     0.68468   0.42492   0.68352   0.01267  Uiso   1.00
C218   C     0.85562   0.60798   0.38198   0.01267  Uiso   1.00
C219   C     0.77052   0.44668   0.63108   0.01267  Uiso   1.00
C220   C     0.85990   0.40010   0.67410   0.01267  Uiso   1.00
O221   O     0.03636   0.76206   0.01444   0.01267  Uiso   1.00
O222   O     0.03875   0.59749   0.23057   0.01267  Uiso   1.00
O223   O     0.00983   0.44063   0.35197   0.01267  Uiso   1.00
O224   O     0.85631   0.18385   0.97819   0.01267  Uiso   1.00
O225   O     0.69072   0.22416   0.97708   0.01267  Uiso   1.00
O226   O     0.76731   0.52489   0.52949   0.01267  Uiso   1.00
In227  In    0.12500   0.12500   0.62500   0.01267  Uiso   1.00
In228  In    0.12500   0.12500   0.12500   0.01267  Uiso   1.00
In229  In    0.62500   0.12500   0.12500   0.01267  Uiso   1.00
In230  In    0.12500   0.62500   0.12500   0.01267  Uiso   1.00
In231  In    0.13881   0.36119   0.36119   0.01267  Uiso   1.00
In232  In    0.36119   0.13881   0.13881   0.01267  Uiso   1.00
In233  In    0.11119   0.88881   0.88881   0.01267  Uiso   1.00
In234  In    0.88881   0.11119   0.11119   0.01267  Uiso   1.00
H235   H     0.49173   0.27607  -0.01194   0.01267  Uiso   1.00
H236   H     0.00585   0.26194  -0.02607   0.01267  Uiso   1.00
H237   H     0.24415  -0.01194   0.27607   0.01267  Uiso   1.00
H238   H     0.75827  -0.02607   0.26194   0.01267  Uiso   1.00
H239   H    -0.01194   0.24415   0.49173   0.01267  Uiso   1.00
H240   H    -0.02607   0.75827   0.00585   0.01267  Uiso   1.00
