data_EJAXIW_clean
_audit_creation_date              2014-07-02
_audit_creation_method            'Materials Studio'
_symmetry_space_group_name_H-M    'P1'
_symmetry_Int_Tables_number       1
_symmetry_cell_setting            triclinic
loop_
_symmetry_equiv_pos_as_xyz
  x,y,z
_cell_length_a                    13.6440
_cell_length_b                    15.3339
_cell_length_c                    15.3339
_cell_angle_alpha                 99.1727
_cell_angle_beta                  102.3320
_cell_angle_gamma                 77.6685
loop_
_atom_site_label
_atom_site_type_symbol
_atom_site_fract_x
_atom_site_fract_y
_atom_site_fract_z
_atom_site_U_iso_or_equiv
_atom_site_adp_type
_atom_site_occupancy
Co1    Co    0.50000   0.50000   0.00000   0.01267  Uiso   1.00
Co2    Co    0.00000   0.00000   0.50000   0.01267  Uiso   1.00
Co3    Co    0.25000   0.81207   0.81207   0.01267  Uiso   1.00
Co4    Co    0.75000   0.18793   0.18793   0.01267  Uiso   1.00
H1     H     0.18120   0.79440   0.60940   0.01267  Uiso   1.00
H2     H     0.23650   0.75320   0.47800   0.01267  Uiso   1.00
H3     H     0.70390   0.37150   0.98450   0.01267  Uiso   1.00
H4     H     0.50120   0.70530   0.29590   0.01267  Uiso   1.00
H5     H     0.65550   0.63070   0.04290   0.01267  Uiso   1.00
H6     H     0.47870   0.42710   0.16630   0.01267  Uiso   1.00
H7     H     0.52720   0.65940   0.15120   0.01267  Uiso   1.00
H8     H     0.51730   0.59370   0.45730   0.01267  Uiso   1.00
H9     H     0.40250   0.58630   0.42310   0.01267  Uiso   1.00
H10    H     0.87090   0.36420   0.00460   0.01267  Uiso   1.00
H11    H     0.51980   0.71990   0.61410   0.01267  Uiso   1.00
H12    H     0.45290   0.46350   0.31050   0.01267  Uiso   1.00
H13    H     0.45460   0.75980   0.74440   0.01267  Uiso   1.00
H14    H     0.48330   0.74260   0.45080   0.01267  Uiso   1.00
H15    H     0.37210   0.73970   0.39810   0.01267  Uiso   1.00
H16    H     0.82640   0.63120   0.06640   0.01267  Uiso   1.00
H17    H     0.00020   0.54990   0.08670   0.01267  Uiso   1.00
H18    H     0.02400   0.44460   0.07060   0.01267  Uiso   1.00
H19    H     0.31880   0.60940   0.79440   0.01267  Uiso   1.00
H20    H     0.26350   0.47800   0.75320   0.01267  Uiso   1.00
H21    H     0.79610   0.98450   0.37150   0.01267  Uiso   1.00
H22    H     0.99880   0.29590   0.70530   0.01267  Uiso   1.00
H23    H     0.84450   0.04290   0.63070   0.01267  Uiso   1.00
H24    H     0.02130   0.16630   0.42710   0.01267  Uiso   1.00
H25    H     0.97280   0.15120   0.65940   0.01267  Uiso   1.00
H26    H     0.98270   0.45730   0.59370   0.01267  Uiso   1.00
H27    H     0.09750   0.42310   0.58630   0.01267  Uiso   1.00
H28    H     0.62910   0.00460   0.36420   0.01267  Uiso   1.00
H29    H     0.98020   0.61410   0.71990   0.01267  Uiso   1.00
H30    H     0.04710   0.31050   0.46350   0.01267  Uiso   1.00
H31    H     0.04540   0.74440   0.75980   0.01267  Uiso   1.00
H32    H     0.01670   0.45080   0.74260   0.01267  Uiso   1.00
H33    H     0.12790   0.39810   0.73970   0.01267  Uiso   1.00
H34    H     0.67360   0.06640   0.63120   0.01267  Uiso   1.00
H35    H     0.49980   0.08670   0.54990   0.01267  Uiso   1.00
H36    H     0.47600   0.07060   0.44460   0.01267  Uiso   1.00
H37    H     0.81880   0.20560   0.39060   0.01267  Uiso   1.00
H38    H     0.76350   0.24680   0.52200   0.01267  Uiso   1.00
H39    H     0.29610   0.62850   0.01550   0.01267  Uiso   1.00
H40    H     0.49880   0.29470   0.70410   0.01267  Uiso   1.00
H41    H     0.34450   0.36930   0.95710   0.01267  Uiso   1.00
H42    H     0.52130   0.57290   0.83370   0.01267  Uiso   1.00
H43    H     0.47280   0.34060   0.84880   0.01267  Uiso   1.00
H44    H     0.48270   0.40630   0.54270   0.01267  Uiso   1.00
H45    H     0.59750   0.41370   0.57690   0.01267  Uiso   1.00
H46    H     0.12910   0.63580   0.99540   0.01267  Uiso   1.00
H47    H     0.48020   0.28010   0.38590   0.01267  Uiso   1.00
H48    H     0.54710   0.53650   0.68950   0.01267  Uiso   1.00
H49    H     0.54540   0.24020   0.25560   0.01267  Uiso   1.00
H50    H     0.51670   0.25740   0.54920   0.01267  Uiso   1.00
H51    H     0.62790   0.26030   0.60190   0.01267  Uiso   1.00
H52    H     0.17360   0.36880   0.93360   0.01267  Uiso   1.00
H53    H     0.99980   0.45010   0.91330   0.01267  Uiso   1.00
H54    H     0.97600   0.55540   0.92940   0.01267  Uiso   1.00
H55    H     0.68120   0.39060   0.20560   0.01267  Uiso   1.00
H56    H     0.73650   0.52200   0.24680   0.01267  Uiso   1.00
H57    H     0.20390   0.01550   0.62850   0.01267  Uiso   1.00
H58    H     0.00120   0.70410   0.29470   0.01267  Uiso   1.00
H59    H     0.15550   0.95710   0.36930   0.01267  Uiso   1.00
H60    H     0.97870   0.83370   0.57290   0.01267  Uiso   1.00
H61    H     0.02720   0.84880   0.34060   0.01267  Uiso   1.00
H62    H     0.01730   0.54270   0.40630   0.01267  Uiso   1.00
H63    H     0.90250   0.57690   0.41370   0.01267  Uiso   1.00
H64    H     0.37090   0.99540   0.63580   0.01267  Uiso   1.00
H65    H     0.01980   0.38590   0.28010   0.01267  Uiso   1.00
H66    H     0.95290   0.68950   0.53650   0.01267  Uiso   1.00
H67    H     0.95460   0.25560   0.24020   0.01267  Uiso   1.00
H68    H     0.98330   0.54920   0.25740   0.01267  Uiso   1.00
H69    H     0.87210   0.60190   0.26030   0.01267  Uiso   1.00
H70    H     0.32640   0.93360   0.36880   0.01267  Uiso   1.00
H71    H     0.50020   0.91330   0.45010   0.01267  Uiso   1.00
H72    H     0.52400   0.92940   0.55540   0.01267  Uiso   1.00
C1     C     0.25120   0.77750   0.61130   0.01267  Uiso   1.00
C2     C     0.28330   0.75480   0.53180   0.01267  Uiso   1.00
C3     C     0.47500   0.59160   0.32160   0.01267  Uiso   1.00
C4     C     0.72920   0.42450   0.00250   0.01267  Uiso   1.00
C5     C     0.38650   0.73400   0.53180   0.01267  Uiso   1.00
C6     C     0.49580   0.64680   0.27100   0.01267  Uiso   1.00
C7     C     0.70030   0.57600   0.03680   0.01267  Uiso   1.00
C8     C     0.48150   0.48580   0.19240   0.01267  Uiso   1.00
C9     C     0.50960   0.61960   0.18240   0.01267  Uiso   1.00
C10    C     0.45560   0.61670   0.41650   0.01267  Uiso   1.00
C11    C     0.82890   0.42020   0.01260   0.01267  Uiso   1.00
C12    C     0.87270   0.49630   0.03430   0.01267  Uiso   1.00
C13    C     0.44950   0.73480   0.61120   0.01267  Uiso   1.00
C14    C     0.46720   0.50600   0.28020   0.01267  Uiso   1.00
C15    C     0.40950   0.75790   0.68950   0.01267  Uiso   1.00
C16    C     0.42510   0.71380   0.44480   0.01267  Uiso   1.00
C17    C     0.80300   0.57720   0.04880   0.01267  Uiso   1.00
C18    C     0.98430   0.49800   0.04500   0.01267  Uiso   1.00
C19    C     0.24880   0.61130   0.77750   0.01267  Uiso   1.00
C20    C     0.21670   0.53180   0.75480   0.01267  Uiso   1.00
C21    C     0.02500   0.32160   0.59160   0.01267  Uiso   1.00
C22    C     0.77080   0.00250   0.42450   0.01267  Uiso   1.00
C23    C     0.11350   0.53180   0.73400   0.01267  Uiso   1.00
C24    C     0.00420   0.27100   0.64680   0.01267  Uiso   1.00
C25    C     0.79970   0.03680   0.57600   0.01267  Uiso   1.00
C26    C     0.01850   0.19240   0.48580   0.01267  Uiso   1.00
C27    C     0.99040   0.18240   0.61960   0.01267  Uiso   1.00
C28    C     0.04440   0.41650   0.61670   0.01267  Uiso   1.00
C29    C     0.67110   0.01260   0.42020   0.01267  Uiso   1.00
C30    C     0.62730   0.03430   0.49630   0.01267  Uiso   1.00
C31    C     0.05050   0.61120   0.73480   0.01267  Uiso   1.00
C32    C     0.03280   0.28020   0.50600   0.01267  Uiso   1.00
C33    C     0.09050   0.68950   0.75790   0.01267  Uiso   1.00
C34    C     0.07490   0.44480   0.71380   0.01267  Uiso   1.00
C35    C     0.69700   0.04880   0.57720   0.01267  Uiso   1.00
C36    C     0.51570   0.04500   0.49800   0.01267  Uiso   1.00
C37    C     0.74880   0.22250   0.38870   0.01267  Uiso   1.00
C38    C     0.71670   0.24520   0.46820   0.01267  Uiso   1.00
C39    C     0.52500   0.40840   0.67840   0.01267  Uiso   1.00
C40    C     0.27080   0.57550   0.99750   0.01267  Uiso   1.00
C41    C     0.61350   0.26600   0.46820   0.01267  Uiso   1.00
C42    C     0.50420   0.35320   0.72900   0.01267  Uiso   1.00
C43    C     0.29970   0.42400   0.96320   0.01267  Uiso   1.00
C44    C     0.51850   0.51420   0.80760   0.01267  Uiso   1.00
C45    C     0.49040   0.38040   0.81760   0.01267  Uiso   1.00
C46    C     0.54440   0.38330   0.58350   0.01267  Uiso   1.00
C47    C     0.17110   0.57980   0.98740   0.01267  Uiso   1.00
C48    C     0.12730   0.50370   0.96570   0.01267  Uiso   1.00
C49    C     0.55050   0.26520   0.38880   0.01267  Uiso   1.00
C50    C     0.53280   0.49400   0.71980   0.01267  Uiso   1.00
C51    C     0.59050   0.24210   0.31050   0.01267  Uiso   1.00
C52    C     0.57490   0.28620   0.55520   0.01267  Uiso   1.00
C53    C     0.19700   0.42280   0.95120   0.01267  Uiso   1.00
C54    C     0.01570   0.50200   0.95500   0.01267  Uiso   1.00
C55    C     0.75120   0.38870   0.22250   0.01267  Uiso   1.00
C56    C     0.78330   0.46820   0.24520   0.01267  Uiso   1.00
C57    C     0.97500   0.67840   0.40840   0.01267  Uiso   1.00
C58    C     0.22920   0.99750   0.57550   0.01267  Uiso   1.00
C59    C     0.88650   0.46820   0.26600   0.01267  Uiso   1.00
C60    C     0.99580   0.72900   0.35320   0.01267  Uiso   1.00
C61    C     0.20030   0.96320   0.42400   0.01267  Uiso   1.00
C62    C     0.98150   0.80760   0.51420   0.01267  Uiso   1.00
C63    C     0.00960   0.81760   0.38040   0.01267  Uiso   1.00
C64    C     0.95560   0.58350   0.38330   0.01267  Uiso   1.00
C65    C     0.32890   0.98740   0.57980   0.01267  Uiso   1.00
C66    C     0.37270   0.96570   0.50370   0.01267  Uiso   1.00
C67    C     0.94950   0.38880   0.26520   0.01267  Uiso   1.00
C68    C     0.96720   0.71980   0.49400   0.01267  Uiso   1.00
C69    C     0.90950   0.31050   0.24210   0.01267  Uiso   1.00
C70    C     0.92510   0.55520   0.28620   0.01267  Uiso   1.00
C71    C     0.30300   0.95120   0.42280   0.01267  Uiso   1.00
C72    C     0.48430   0.95500   0.50200   0.01267  Uiso   1.00
S1     S     0.43860   0.73021   0.97351   0.01267  Uiso   1.00
S2     S     0.06140   0.97351   0.73021   0.01267  Uiso   1.00
S3     S     0.56140   0.26979   0.02649   0.01267  Uiso   1.00
S4     S     0.93860   0.02649   0.26979   0.01267  Uiso   1.00
N1     N     0.49840   0.53880   0.14200   0.01267  Uiso   1.00
N2     N     0.66190   0.50200   0.01720   0.01267  Uiso   1.00
N3     N     0.30980   0.77780   0.68980   0.01267  Uiso   1.00
N4     N     0.00160   0.14200   0.53880   0.01267  Uiso   1.00
N5     N     0.83810   0.01720   0.50200   0.01267  Uiso   1.00
N6     N     0.19020   0.68980   0.77780   0.01267  Uiso   1.00
N7     N     0.50160   0.46120   0.85800   0.01267  Uiso   1.00
N8     N     0.33810   0.49800   0.98280   0.01267  Uiso   1.00
N9     N     0.69020   0.22220   0.31020   0.01267  Uiso   1.00
N10    N     0.99840   0.85800   0.46120   0.01267  Uiso   1.00
N11    N     0.16190   0.98280   0.49800   0.01267  Uiso   1.00
N12    N     0.80980   0.31020   0.22220   0.01267  Uiso   1.00
O1     O     0.38740   0.74779   0.88261   0.01267  Uiso   1.00
O2     O     0.46650   0.63336   0.97684   0.01267  Uiso   1.00
O3     O     0.36420   0.76720   0.03460   0.01267  Uiso   1.00
O4     O     0.52910   0.76940   0.00140   0.01267  Uiso   1.00
O5     O     0.11260   0.88261   0.74779   0.01267  Uiso   1.00
O6     O     0.03350   0.97684   0.63336   0.01267  Uiso   1.00
O7     O     0.13580   0.03460   0.76720   0.01267  Uiso   1.00
O8     O     0.97090   0.00140   0.76940   0.01267  Uiso   1.00
O9     O     0.61260   0.25221   0.11739   0.01267  Uiso   1.00
O10    O     0.53350   0.36664   0.02316   0.01267  Uiso   1.00
O11    O     0.63580   0.23280   0.96540   0.01267  Uiso   1.00
O12    O     0.47090   0.23060   0.99860   0.01267  Uiso   1.00
O13    O     0.88740   0.11739   0.25221   0.01267  Uiso   1.00
O14    O     0.96650   0.02316   0.36664   0.01267  Uiso   1.00
O15    O     0.86420   0.96540   0.23280   0.01267  Uiso   1.00
O16    O     0.02910   0.99860   0.23060   0.01267  Uiso   1.00
