data_EJIDUW02_clean
_audit_creation_date              2014-07-02
_audit_creation_method            'Materials Studio'
_symmetry_space_group_name_H-M    'P1'
_symmetry_Int_Tables_number       1
_symmetry_cell_setting            triclinic
loop_
_symmetry_equiv_pos_as_xyz
  x,y,z
_cell_length_a                    9.2410
_cell_length_b                    9.7459
_cell_length_c                    10.6610
_cell_angle_alpha                 67.7116
_cell_angle_beta                  84.6800
_cell_angle_gamma                 61.7352
loop_
_atom_site_label
_atom_site_type_symbol
_atom_site_fract_x
_atom_site_fract_y
_atom_site_fract_z
_atom_site_U_iso_or_equiv
_atom_site_adp_type
_atom_site_occupancy
Nd1    Nd    0.77969   0.45649   0.01839   0.01267  Uiso   1.00
Nd2    Nd    0.22031   0.54351   0.98161   0.01267  Uiso   1.00
H1     H     0.58830   0.96270   0.12790   0.01267  Uiso   1.00
H2     H     0.56400   0.96700   0.27280   0.01267  Uiso   1.00
H3     H     0.56620   0.69980   0.38950   0.01267  Uiso   1.00
H4     H     0.63820   0.65970   0.24940   0.01267  Uiso   1.00
H5     H     0.54480   0.46230   0.38200   0.01267  Uiso   1.00
H6     H     0.36180   0.62200   0.37390   0.01267  Uiso   1.00
H7     H     0.11590   0.27710   0.43050   0.01267  Uiso   1.00
H8     H     0.17670   0.40620   0.35670   0.01267  Uiso   1.00
H9     H     0.32360   0.93990   0.26390   0.01267  Uiso   1.00
H10    H     0.37900   0.90540   0.13500   0.01267  Uiso   1.00
H11    H     0.87410   0.47790   0.46340   0.01267  Uiso   1.00
H12    H     0.90150   0.63280   0.36730   0.01267  Uiso   1.00
H13    H     0.41170   0.03730   0.87210   0.01267  Uiso   1.00
H14    H     0.43600   0.03300   0.72720   0.01267  Uiso   1.00
H15    H     0.43380   0.30020   0.61050   0.01267  Uiso   1.00
H16    H     0.36180   0.34030   0.75060   0.01267  Uiso   1.00
H17    H     0.45520   0.53770   0.61800   0.01267  Uiso   1.00
H18    H     0.63820   0.37800   0.62610   0.01267  Uiso   1.00
H19    H     0.88410   0.72290   0.56950   0.01267  Uiso   1.00
H20    H     0.82330   0.59380   0.64330   0.01267  Uiso   1.00
H21    H     0.67640   0.06010   0.73610   0.01267  Uiso   1.00
H22    H     0.62100   0.09460   0.86500   0.01267  Uiso   1.00
H23    H     0.12590   0.52210   0.53660   0.01267  Uiso   1.00
H24    H     0.09850   0.36720   0.63270   0.01267  Uiso   1.00
C1     C     0.40930   0.58520   0.19054   0.01267  Uiso   1.00
C2     C     0.51320   0.98650   0.18990   0.01267  Uiso   1.00
C3     C     0.53550   0.69940   0.29850   0.01267  Uiso   1.00
C4     C     0.99220   0.40510   0.25053   0.01267  Uiso   1.00
C5     C     0.45550   0.58730   0.32080   0.01267  Uiso   1.00
C6     C     0.07820   0.38430   0.37420   0.01267  Uiso   1.00
C7     C     0.40560   0.17480   0.12210   0.01267  Uiso   1.00
C8     C     0.42150   0.88490   0.21490   0.01267  Uiso   1.00
C9     C     0.95840   0.50550   0.43880   0.01267  Uiso   1.00
C10    C     0.59070   0.41480   0.80946   0.01267  Uiso   1.00
C11    C     0.48680   0.01350   0.81010   0.01267  Uiso   1.00
C12    C     0.46450   0.30060   0.70150   0.01267  Uiso   1.00
C13    C     0.00780   0.59490   0.74947   0.01267  Uiso   1.00
C14    C     0.54450   0.41270   0.67920   0.01267  Uiso   1.00
C15    C     0.92180   0.61570   0.62580   0.01267  Uiso   1.00
C16    C     0.59440   0.82520   0.87790   0.01267  Uiso   1.00
C17    C     0.57850   0.11510   0.78510   0.01267  Uiso   1.00
C18    C     0.04160   0.49450   0.56120   0.01267  Uiso   1.00
O1     O     0.51660   0.54890   0.11082   0.01267  Uiso   1.00
O2     O     0.02816   0.46680   0.13285   0.01267  Uiso   1.00
O3     O     0.30521   0.23722   0.01884   0.01267  Uiso   1.00
O4     O     0.26342   0.61690   0.16619   0.01267  Uiso   1.00
O5     O     0.42071   0.27039   0.16802   0.01267  Uiso   1.00
O6     O     0.87780   0.36630   0.26385   0.01267  Uiso   1.00
O7     O     0.48340   0.45110   0.88918   0.01267  Uiso   1.00
O8     O     0.97184   0.53320   0.86715   0.01267  Uiso   1.00
O9     O     0.69479   0.76278   0.98116   0.01267  Uiso   1.00
O10    O     0.73658   0.38310   0.83381   0.01267  Uiso   1.00
O11    O     0.57929   0.72961   0.83198   0.01267  Uiso   1.00
O12    O     0.12220   0.63370   0.73615   0.01267  Uiso   1.00
