data_EJIDUW01_clean
_audit_creation_date              2014-07-02
_audit_creation_method            'Materials Studio'
_symmetry_space_group_name_H-M    'P1'
_symmetry_Int_Tables_number       1
_symmetry_cell_setting            triclinic
loop_
_symmetry_equiv_pos_as_xyz
  x,y,z
_cell_length_a                    9.1820
_cell_length_b                    9.6870
_cell_length_c                    10.6390
_cell_angle_alpha                 106.8070
_cell_angle_beta                  95.6250
_cell_angle_gamma                 118.0600
loop_
_atom_site_label
_atom_site_type_symbol
_atom_site_fract_x
_atom_site_fract_y
_atom_site_fract_z
_atom_site_U_iso_or_equiv
_atom_site_adp_type
_atom_site_occupancy
Nd1    Nd    0.23498   0.45502   0.98180   0.01267  Uiso   1.00
Nd2    Nd    0.76502   0.54498   0.01820   0.01267  Uiso   1.00
H1     H     0.57650   0.40080   0.65140   0.01267  Uiso   1.00
H2     H     0.38410   0.26210   0.55680   0.01267  Uiso   1.00
H3     H     0.53230   0.62140   0.63050   0.01267  Uiso   1.00
H4     H     0.34440   0.47960   0.53030   0.01267  Uiso   1.00
H5     H     0.98140   0.62580   0.62870   0.01267  Uiso   1.00
H6     H     0.00300   0.46860   0.61760   0.01267  Uiso   1.00
H7     H     0.29480   0.65730   0.74810   0.01267  Uiso   1.00
H8     H     0.25970   0.68700   0.61090   0.01267  Uiso   1.00
H9     H     0.27950   0.89710   0.87300   0.01267  Uiso   1.00
H10    H     0.25460   0.92930   0.73500   0.01267  Uiso   1.00
H11    H     0.52130   0.94980   0.71680   0.01267  Uiso   1.00
H12    H     0.54670   0.94400   0.86290   0.01267  Uiso   1.00
H13    H     0.42350   0.59920   0.34860   0.01267  Uiso   1.00
H14    H     0.61590   0.73790   0.44320   0.01267  Uiso   1.00
H15    H     0.46770   0.37860   0.36950   0.01267  Uiso   1.00
H16    H     0.65560   0.52040   0.46970   0.01267  Uiso   1.00
H17    H     0.01860   0.37420   0.37130   0.01267  Uiso   1.00
H18    H     0.99700   0.53140   0.38240   0.01267  Uiso   1.00
H19    H     0.70520   0.34270   0.25190   0.01267  Uiso   1.00
H20    H     0.74030   0.31300   0.38910   0.01267  Uiso   1.00
H21    H     0.72050   0.10290   0.12700   0.01267  Uiso   1.00
H22    H     0.74540   0.07070   0.26500   0.01267  Uiso   1.00
H23    H     0.47870   0.05020   0.28320   0.01267  Uiso   1.00
H24    H     0.45330   0.05600   0.13710   0.01267  Uiso   1.00
C1     C     0.39290   0.40160   0.74790   0.01267  Uiso   1.00
C2     C     0.45920   0.37960   0.62450   0.01267  Uiso   1.00
C3     C     0.46280   0.50480   0.56040   0.01267  Uiso   1.00
C4     C     0.99070   0.58500   0.80760   0.01267  Uiso   1.00
C5     C     0.04150   0.58580   0.67720   0.01267  Uiso   1.00
C6     C     0.23510   0.69830   0.70070   0.01267  Uiso   1.00
C7     C     0.30760   0.88460   0.78450   0.01267  Uiso   1.00
C8     C     0.50250   0.98550   0.80960   0.01267  Uiso   1.00
C9     C     0.58320   0.17490   0.87770   0.01267  Uiso   1.00
C10    C     0.60710   0.59840   0.25210   0.01267  Uiso   1.00
C11    C     0.54080   0.62040   0.37550   0.01267  Uiso   1.00
C12    C     0.53720   0.49520   0.43960   0.01267  Uiso   1.00
C13    C     0.00930   0.41500   0.19240   0.01267  Uiso   1.00
C14    C     0.95850   0.41420   0.32280   0.01267  Uiso   1.00
C15    C     0.76490   0.30170   0.29930   0.01267  Uiso   1.00
C16    C     0.69240   0.11540   0.21550   0.01267  Uiso   1.00
C17    C     0.49750   0.01450   0.19040   0.01267  Uiso   1.00
C18    C     0.41680   0.82510   0.12230   0.01267  Uiso   1.00
O1     O     0.23740   0.36200   0.73380   0.01267  Uiso   1.00
O2     O     0.49160   0.46570   0.86710   0.01267  Uiso   1.00
O3     O     0.06210   0.54930   0.88950   0.01267  Uiso   1.00
O4     O     0.87540   0.61770   0.83040   0.01267  Uiso   1.00
O5     O     0.69180   0.27180   0.83010   0.01267  Uiso   1.00
O6     O     0.54560   0.23730   0.98210   0.01267  Uiso   1.00
O7     O     0.76260   0.63800   0.26620   0.01267  Uiso   1.00
O8     O     0.50840   0.53430   0.13290   0.01267  Uiso   1.00
O9     O     0.93790   0.45070   0.11050   0.01267  Uiso   1.00
O10    O     0.12460   0.38230   0.16960   0.01267  Uiso   1.00
O11    O     0.30820   0.72820   0.16990   0.01267  Uiso   1.00
O12    O     0.45440   0.76270   0.01790   0.01267  Uiso   1.00
