data_image0
_cell_length_a       18.5924
_cell_length_b       18.5924
_cell_length_c       42.2293
_cell_angle_alpha    90
_cell_angle_beta     90
_cell_angle_gamma    90

_symmetry_space_group_name_H-M    "P 1"
_symmetry_int_tables_number       1

loop_
  _symmetry_equiv_pos_as_xyz
  'x, y, z'

loop_
  _atom_site_label
  _atom_site_occupancy
  _atom_site_fract_x
  _atom_site_fract_y
  _atom_site_fract_z
  _atom_site_thermal_displace_type
  _atom_site_B_iso_or_equiv
  _atom_site_type_symbol
  C1       1.0000 0.00520  0.32240  0.39385  Biso   1.000  C
  C2       1.0000 0.03920  0.27950  0.41608  Biso   1.000  C
  C3       1.0000 0.09330  0.31300  0.43468  Biso   1.000  C
  C4       1.0000 0.11020  0.38270  0.43090  Biso   1.000  C
  H1       1.0000 0.14670  0.40270  0.44310  Biso   1.000  H
  C5       1.0000 0.07280  0.42680  0.40840  Biso   1.000  C
  H2       1.0000 0.08260  0.47550  0.40610  Biso   1.000  H
  C6       1.0000 0.02140  0.39250  0.39026  Biso   1.000  C
  H3       1.0000 0.99700  0.41890  0.37500  Biso   1.000  H
  C7       1.0000 0.96290  0.28720  0.34365  Biso   1.000  C
  C8       1.0000 0.90300  0.29370  0.32463  Biso   1.000  C
  H4       1.0000 0.85870  0.30560  0.33340  Biso   1.000  H
  C9       1.0000 0.90890  0.28260  0.29296  Biso   1.000  C
  C10      1.0000 0.97410  0.26480  0.27967  Biso   1.000  C
  H5       1.0000 0.97710  0.25440  0.25820  Biso   1.000  H
  C11      1.0000 0.03580  0.26230  0.29860  Biso   1.000  C
  C12      1.0000 0.03000  0.27330  0.33104  Biso   1.000  C
  H6       1.0000 0.07040  0.27130  0.34400  Biso   1.000  H
  C13      1.0000 0.02060  0.20110  0.41618  Biso   1.000  C
  C14      1.0000 0.13450  0.26930  0.45869  Biso   1.000  C
  C15      1.0000 0.10740  0.24560  0.28386  Biso   1.000  C
  C16      1.0000 0.84230  0.28470  0.27301  Biso   1.000  C
  O1       1.0000 0.05930  0.16140  0.39978  Biso   1.000  O
  O2       1.0000 0.96570  0.18240  0.43239  Biso   1.000  O
  O3       1.0000 0.10820  0.21340  0.46826  Biso   1.000  O
  O4       1.0000 0.19380  0.29860  0.46791  Biso   1.000  O
  O5       1.0000 0.16240  0.26670  0.29798  Biso   1.000  O
  O6       1.0000 0.10580  0.21210  0.25795  Biso   1.000  O
  O7       1.0000 0.84510  0.25770  0.24570  Biso   1.000  O
  O8       1.0000 0.78800  0.31490  0.28546  Biso   1.000  O
  O9       1.0000 0.95060  0.29090  0.37597  Biso   1.000  O
  C17      1.0000 0.99480  0.67760  0.39385  Biso   1.000  C
  C18      1.0000 0.96080  0.72050  0.41608  Biso   1.000  C
  C19      1.0000 0.90670  0.68700  0.43468  Biso   1.000  C
  C20      1.0000 0.88980  0.61730  0.43090  Biso   1.000  C
  H7       1.0000 0.85330  0.59730  0.44310  Biso   1.000  H
  C21      1.0000 0.92720  0.57320  0.40840  Biso   1.000  C
  H8       1.0000 0.91740  0.52450  0.40610  Biso   1.000  H
  C22      1.0000 0.97860  0.60750  0.39026  Biso   1.000  C
  H9       1.0000 0.00300  0.58110  0.37500  Biso   1.000  H
  C23      1.0000 0.03710  0.71280  0.34365  Biso   1.000  C
  C24      1.0000 0.09700  0.70630  0.32463  Biso   1.000  C
  H10      1.0000 0.14130  0.69440  0.33340  Biso   1.000  H
  C25      1.0000 0.09110  0.71740  0.29296  Biso   1.000  C
  C26      1.0000 0.02590  0.73520  0.27967  Biso   1.000  C
  H11      1.0000 0.02290  0.74560  0.25820  Biso   1.000  H
  C27      1.0000 0.96420  0.73770  0.29860  Biso   1.000  C
  C28      1.0000 0.97000  0.72670  0.33104  Biso   1.000  C
  H12      1.0000 0.92960  0.72870  0.34400  Biso   1.000  H
  C29      1.0000 0.97940  0.79890  0.41618  Biso   1.000  C
  C30      1.0000 0.86550  0.73070  0.45869  Biso   1.000  C
  C31      1.0000 0.89260  0.75440  0.28386  Biso   1.000  C
  C32      1.0000 0.15770  0.71530  0.27301  Biso   1.000  C
  O10      1.0000 0.94070  0.83860  0.39978  Biso   1.000  O
  O11      1.0000 0.03430  0.81760  0.43239  Biso   1.000  O
  O12      1.0000 0.89180  0.78660  0.46826  Biso   1.000  O
  O13      1.0000 0.80620  0.70140  0.46791  Biso   1.000  O
  O14      1.0000 0.83760  0.73330  0.29798  Biso   1.000  O
  O15      1.0000 0.89420  0.78790  0.25795  Biso   1.000  O
  O16      1.0000 0.15490  0.74230  0.24570  Biso   1.000  O
  O17      1.0000 0.21200  0.68510  0.28546  Biso   1.000  O
  O18      1.0000 0.04940  0.70910  0.37597  Biso   1.000  O
  C33      1.0000 0.17760  0.50520  0.89385  Biso   1.000  C
  C34      1.0000 0.22050  0.53920  0.91608  Biso   1.000  C
  C35      1.0000 0.18700  0.59330  0.93468  Biso   1.000  C
  C36      1.0000 0.11730  0.61020  0.93090  Biso   1.000  C
  H13      1.0000 0.09730  0.64670  0.94310  Biso   1.000  H
  C37      1.0000 0.07320  0.57280  0.90840  Biso   1.000  C
  H14      1.0000 0.02450  0.58260  0.90610  Biso   1.000  H
  C38      1.0000 0.10750  0.52140  0.89026  Biso   1.000  C
  H15      1.0000 0.08110  0.49700  0.87500  Biso   1.000  H
  C39      1.0000 0.21280  0.46290  0.84365  Biso   1.000  C
  C40      1.0000 0.20630  0.40300  0.82463  Biso   1.000  C
  H16      1.0000 0.19440  0.35870  0.83340  Biso   1.000  H
  C41      1.0000 0.21740  0.40890  0.79296  Biso   1.000  C
  C42      1.0000 0.23520  0.47410  0.77967  Biso   1.000  C
  H17      1.0000 0.24560  0.47710  0.75820  Biso   1.000  H
  C43      1.0000 0.23770  0.53580  0.79860  Biso   1.000  C
  C44      1.0000 0.22670  0.53000  0.83104  Biso   1.000  C
  H18      1.0000 0.22870  0.57040  0.84400  Biso   1.000  H
  C45      1.0000 0.29890  0.52060  0.91618  Biso   1.000  C
  C46      1.0000 0.23070  0.63450  0.95869  Biso   1.000  C
  C47      1.0000 0.25440  0.60740  0.78386  Biso   1.000  C
  C48      1.0000 0.21530  0.34230  0.77301  Biso   1.000  C
  O19      1.0000 0.33860  0.55930  0.89978  Biso   1.000  O
  O20      1.0000 0.31760  0.46570  0.93239  Biso   1.000  O
  O21      1.0000 0.28660  0.60820  0.96826  Biso   1.000  O
  O22      1.0000 0.20140  0.69380  0.96791  Biso   1.000  O
  O23      1.0000 0.23330  0.66240  0.79798  Biso   1.000  O
  O24      1.0000 0.28790  0.60580  0.75795  Biso   1.000  O
  O25      1.0000 0.24230  0.34510  0.74570  Biso   1.000  O
  O26      1.0000 0.18510  0.28800  0.78546  Biso   1.000  O
  O27      1.0000 0.20910  0.45060  0.87597  Biso   1.000  O
  C49      1.0000 0.82240  0.49480  0.89385  Biso   1.000  C
  C50      1.0000 0.77950  0.46080  0.91608  Biso   1.000  C
  C51      1.0000 0.81300  0.40670  0.93468  Biso   1.000  C
  C52      1.0000 0.88270  0.38980  0.93090  Biso   1.000  C
  H19      1.0000 0.90270  0.35330  0.94310  Biso   1.000  H
  C53      1.0000 0.92680  0.42720  0.90840  Biso   1.000  C
  H20      1.0000 0.97550  0.41740  0.90610  Biso   1.000  H
  C54      1.0000 0.89250  0.47860  0.89026  Biso   1.000  C
  H21      1.0000 0.91890  0.50300  0.87500  Biso   1.000  H
  C55      1.0000 0.78720  0.53710  0.84365  Biso   1.000  C
  C56      1.0000 0.79370  0.59700  0.82463  Biso   1.000  C
  H22      1.0000 0.80560  0.64130  0.83340  Biso   1.000  H
  C57      1.0000 0.78260  0.59110  0.79296  Biso   1.000  C
  C58      1.0000 0.76480  0.52590  0.77967  Biso   1.000  C
  H23      1.0000 0.75440  0.52290  0.75820  Biso   1.000  H
  C59      1.0000 0.76230  0.46420  0.79860  Biso   1.000  C
  C60      1.0000 0.77330  0.47000  0.83104  Biso   1.000  C
  H24      1.0000 0.77130  0.42960  0.84400  Biso   1.000  H
  C61      1.0000 0.70110  0.47940  0.91618  Biso   1.000  C
  C62      1.0000 0.76930  0.36550  0.95869  Biso   1.000  C
  C63      1.0000 0.74560  0.39260  0.78386  Biso   1.000  C
  C64      1.0000 0.78470  0.65770  0.77301  Biso   1.000  C
  O28      1.0000 0.66140  0.44070  0.89978  Biso   1.000  O
  O29      1.0000 0.68240  0.53430  0.93239  Biso   1.000  O
  O30      1.0000 0.71340  0.39180  0.96826  Biso   1.000  O
  O31      1.0000 0.79860  0.30620  0.96791  Biso   1.000  O
  O32      1.0000 0.76670  0.33760  0.79798  Biso   1.000  O
  O33      1.0000 0.71210  0.39420  0.75795  Biso   1.000  O
  O34      1.0000 0.75770  0.65490  0.74570  Biso   1.000  O
  O35      1.0000 0.81490  0.71200  0.78546  Biso   1.000  O
  O36      1.0000 0.79090  0.54940  0.87597  Biso   1.000  O
  C65      1.0000 0.49480  0.82240  0.10615  Biso   1.000  C
  C66      1.0000 0.46080  0.77950  0.08392  Biso   1.000  C
  C67      1.0000 0.40670  0.81300  0.06532  Biso   1.000  C
  C68      1.0000 0.38980  0.88270  0.06910  Biso   1.000  C
  H25      1.0000 0.35330  0.90270  0.05690  Biso   1.000  H
  C69      1.0000 0.42720  0.92680  0.09160  Biso   1.000  C
  H26      1.0000 0.41740  0.97550  0.09390  Biso   1.000  H
  C70      1.0000 0.47860  0.89250  0.10974  Biso   1.000  C
  H27      1.0000 0.50300  0.91890  0.12500  Biso   1.000  H
  C71      1.0000 0.53710  0.78720  0.15635  Biso   1.000  C
  C72      1.0000 0.59700  0.79370  0.17537  Biso   1.000  C
  H28      1.0000 0.64130  0.80560  0.16660  Biso   1.000  H
  C73      1.0000 0.59110  0.78260  0.20704  Biso   1.000  C
  C74      1.0000 0.52590  0.76480  0.22033  Biso   1.000  C
  H29      1.0000 0.52290  0.75440  0.24180  Biso   1.000  H
  C75      1.0000 0.46420  0.76230  0.20140  Biso   1.000  C
  C76      1.0000 0.47000  0.77330  0.16896  Biso   1.000  C
  H30      1.0000 0.42960  0.77130  0.15600  Biso   1.000  H
  C77      1.0000 0.47940  0.70110  0.08382  Biso   1.000  C
  C78      1.0000 0.36550  0.76930  0.04131  Biso   1.000  C
  C79      1.0000 0.39260  0.74560  0.21614  Biso   1.000  C
  C80      1.0000 0.65770  0.78470  0.22699  Biso   1.000  C
  O37      1.0000 0.44070  0.66140  0.10022  Biso   1.000  O
  O38      1.0000 0.53430  0.68240  0.06761  Biso   1.000  O
  O39      1.0000 0.39180  0.71340  0.03174  Biso   1.000  O
  O40      1.0000 0.30620  0.79860  0.03209  Biso   1.000  O
  O41      1.0000 0.33760  0.76670  0.20202  Biso   1.000  O
  O42      1.0000 0.39420  0.71210  0.24205  Biso   1.000  O
  O43      1.0000 0.65490  0.75770  0.25430  Biso   1.000  O
  O44      1.0000 0.71200  0.81490  0.21454  Biso   1.000  O
  O45      1.0000 0.54940  0.79090  0.12403  Biso   1.000  O
  C81      1.0000 0.50520  0.17760  0.10615  Biso   1.000  C
  C82      1.0000 0.53920  0.22050  0.08392  Biso   1.000  C
  C83      1.0000 0.59330  0.18700  0.06532  Biso   1.000  C
  C84      1.0000 0.61020  0.11730  0.06910  Biso   1.000  C
  H31      1.0000 0.64670  0.09730  0.05690  Biso   1.000  H
  C85      1.0000 0.57280  0.07320  0.09160  Biso   1.000  C
  H32      1.0000 0.58260  0.02450  0.09390  Biso   1.000  H
  C86      1.0000 0.52140  0.10750  0.10974  Biso   1.000  C
  H33      1.0000 0.49700  0.08110  0.12500  Biso   1.000  H
  C87      1.0000 0.46290  0.21280  0.15635  Biso   1.000  C
  C88      1.0000 0.40300  0.20630  0.17537  Biso   1.000  C
  H34      1.0000 0.35870  0.19440  0.16660  Biso   1.000  H
  C89      1.0000 0.40890  0.21740  0.20704  Biso   1.000  C
  C90      1.0000 0.47410  0.23520  0.22033  Biso   1.000  C
  H35      1.0000 0.47710  0.24560  0.24180  Biso   1.000  H
  C91      1.0000 0.53580  0.23770  0.20140  Biso   1.000  C
  C92      1.0000 0.53000  0.22670  0.16896  Biso   1.000  C
  H36      1.0000 0.57040  0.22870  0.15600  Biso   1.000  H
  C93      1.0000 0.52060  0.29890  0.08382  Biso   1.000  C
  C94      1.0000 0.63450  0.23070  0.04131  Biso   1.000  C
  C95      1.0000 0.60740  0.25440  0.21614  Biso   1.000  C
  C96      1.0000 0.34230  0.21530  0.22699  Biso   1.000  C
  O46      1.0000 0.55930  0.33860  0.10022  Biso   1.000  O
  O47      1.0000 0.46570  0.31760  0.06761  Biso   1.000  O
  O48      1.0000 0.60820  0.28660  0.03174  Biso   1.000  O
  O49      1.0000 0.69380  0.20140  0.03209  Biso   1.000  O
  O50      1.0000 0.66240  0.23330  0.20202  Biso   1.000  O
  O51      1.0000 0.60580  0.28790  0.24205  Biso   1.000  O
  O52      1.0000 0.34510  0.24230  0.25430  Biso   1.000  O
  O53      1.0000 0.28800  0.18510  0.21454  Biso   1.000  O
  O54      1.0000 0.45060  0.20910  0.12403  Biso   1.000  O
  C97      1.0000 0.32240  0.00520  0.60615  Biso   1.000  C
  C98      1.0000 0.27950  0.03920  0.58392  Biso   1.000  C
  C99      1.0000 0.31300  0.09330  0.56532  Biso   1.000  C
  C100     1.0000 0.38270  0.11020  0.56910  Biso   1.000  C
  H37      1.0000 0.40270  0.14670  0.55690  Biso   1.000  H
  C101     1.0000 0.42680  0.07280  0.59160  Biso   1.000  C
  H38      1.0000 0.47550  0.08260  0.59390  Biso   1.000  H
  C102     1.0000 0.39250  0.02140  0.60974  Biso   1.000  C
  H39      1.0000 0.41890  0.99700  0.62500  Biso   1.000  H
  C103     1.0000 0.28720  0.96290  0.65635  Biso   1.000  C
  C104     1.0000 0.29370  0.90300  0.67537  Biso   1.000  C
  H40      1.0000 0.30560  0.85870  0.66660  Biso   1.000  H
  C105     1.0000 0.28260  0.90890  0.70704  Biso   1.000  C
  C106     1.0000 0.26480  0.97410  0.72033  Biso   1.000  C
  H41      1.0000 0.25440  0.97710  0.74180  Biso   1.000  H
  C107     1.0000 0.26230  0.03580  0.70140  Biso   1.000  C
  C108     1.0000 0.27330  0.03000  0.66896  Biso   1.000  C
  H42      1.0000 0.27130  0.07040  0.65600  Biso   1.000  H
  C109     1.0000 0.20110  0.02060  0.58382  Biso   1.000  C
  C110     1.0000 0.26930  0.13450  0.54131  Biso   1.000  C
  C111     1.0000 0.24560  0.10740  0.71614  Biso   1.000  C
  C112     1.0000 0.28470  0.84230  0.72699  Biso   1.000  C
  O55      1.0000 0.16140  0.05930  0.60022  Biso   1.000  O
  O56      1.0000 0.18240  0.96570  0.56761  Biso   1.000  O
  O57      1.0000 0.21340  0.10820  0.53174  Biso   1.000  O
  O58      1.0000 0.29860  0.19380  0.53209  Biso   1.000  O
  O59      1.0000 0.26670  0.16240  0.70202  Biso   1.000  O
  O60      1.0000 0.21210  0.10580  0.74205  Biso   1.000  O
  O61      1.0000 0.25770  0.84510  0.75430  Biso   1.000  O
  O62      1.0000 0.31490  0.78800  0.71454  Biso   1.000  O
  O63      1.0000 0.29090  0.95060  0.62403  Biso   1.000  O
  C113     1.0000 0.67760  0.99480  0.60615  Biso   1.000  C
  C114     1.0000 0.72050  0.96080  0.58392  Biso   1.000  C
  C115     1.0000 0.68700  0.90670  0.56532  Biso   1.000  C
  C116     1.0000 0.61730  0.88980  0.56910  Biso   1.000  C
  H43      1.0000 0.59730  0.85330  0.55690  Biso   1.000  H
  C117     1.0000 0.57320  0.92720  0.59160  Biso   1.000  C
  H44      1.0000 0.52450  0.91740  0.59390  Biso   1.000  H
  C118     1.0000 0.60750  0.97860  0.60974  Biso   1.000  C
  H45      1.0000 0.58110  0.00300  0.62500  Biso   1.000  H
  C119     1.0000 0.71280  0.03710  0.65635  Biso   1.000  C
  C120     1.0000 0.70630  0.09700  0.67537  Biso   1.000  C
  H46      1.0000 0.69440  0.14130  0.66660  Biso   1.000  H
  C121     1.0000 0.71740  0.09110  0.70704  Biso   1.000  C
  C122     1.0000 0.73520  0.02590  0.72033  Biso   1.000  C
  H47      1.0000 0.74560  0.02290  0.74180  Biso   1.000  H
  C123     1.0000 0.73770  0.96420  0.70140  Biso   1.000  C
  C124     1.0000 0.72670  0.97000  0.66896  Biso   1.000  C
  H48      1.0000 0.72870  0.92960  0.65600  Biso   1.000  H
  C125     1.0000 0.79890  0.97940  0.58382  Biso   1.000  C
  C126     1.0000 0.73070  0.86550  0.54131  Biso   1.000  C
  C127     1.0000 0.75440  0.89260  0.71614  Biso   1.000  C
  C128     1.0000 0.71530  0.15770  0.72699  Biso   1.000  C
  O64      1.0000 0.83860  0.94070  0.60022  Biso   1.000  O
  O65      1.0000 0.81760  0.03430  0.56761  Biso   1.000  O
  O66      1.0000 0.78660  0.89180  0.53174  Biso   1.000  O
  O67      1.0000 0.70140  0.80620  0.53209  Biso   1.000  O
  O68      1.0000 0.73330  0.83760  0.70202  Biso   1.000  O
  O69      1.0000 0.78790  0.89420  0.74205  Biso   1.000  O
  O70      1.0000 0.74230  0.15490  0.75430  Biso   1.000  O
  O71      1.0000 0.68510  0.21200  0.71454  Biso   1.000  O
  O72      1.0000 0.70910  0.04940  0.62403  Biso   1.000  O
  C129     1.0000 0.99480  0.67760  0.60615  Biso   1.000  C
  C130     1.0000 0.96080  0.72050  0.58392  Biso   1.000  C
  C131     1.0000 0.90670  0.68700  0.56532  Biso   1.000  C
  C132     1.0000 0.88980  0.61730  0.56910  Biso   1.000  C
  H49      1.0000 0.85330  0.59730  0.55690  Biso   1.000  H
  C133     1.0000 0.92720  0.57320  0.59160  Biso   1.000  C
  H50      1.0000 0.91740  0.52450  0.59390  Biso   1.000  H
  C134     1.0000 0.97860  0.60750  0.60974  Biso   1.000  C
  H51      1.0000 0.00300  0.58110  0.62500  Biso   1.000  H
  C135     1.0000 0.03710  0.71280  0.65635  Biso   1.000  C
  C136     1.0000 0.09700  0.70630  0.67537  Biso   1.000  C
  H52      1.0000 0.14130  0.69440  0.66660  Biso   1.000  H
  C137     1.0000 0.09110  0.71740  0.70704  Biso   1.000  C
  C138     1.0000 0.02590  0.73520  0.72033  Biso   1.000  C
  H53      1.0000 0.02290  0.74560  0.74180  Biso   1.000  H
  C139     1.0000 0.96420  0.73770  0.70140  Biso   1.000  C
  C140     1.0000 0.97000  0.72670  0.66896  Biso   1.000  C
  H54      1.0000 0.92960  0.72870  0.65600  Biso   1.000  H
  C141     1.0000 0.97940  0.79890  0.58382  Biso   1.000  C
  C142     1.0000 0.86550  0.73070  0.54131  Biso   1.000  C
  C143     1.0000 0.89260  0.75440  0.71614  Biso   1.000  C
  C144     1.0000 0.15770  0.71530  0.72699  Biso   1.000  C
  O73      1.0000 0.94070  0.83860  0.60022  Biso   1.000  O
  O74      1.0000 0.03430  0.81760  0.56761  Biso   1.000  O
  O75      1.0000 0.89180  0.78660  0.53174  Biso   1.000  O
  O76      1.0000 0.80620  0.70140  0.53209  Biso   1.000  O
  O77      1.0000 0.83760  0.73330  0.70202  Biso   1.000  O
  O78      1.0000 0.89420  0.78790  0.74205  Biso   1.000  O
  O79      1.0000 0.15490  0.74230  0.75430  Biso   1.000  O
  O80      1.0000 0.21200  0.68510  0.71454  Biso   1.000  O
  O81      1.0000 0.04940  0.70910  0.62403  Biso   1.000  O
  C145     1.0000 0.00520  0.32240  0.60615  Biso   1.000  C
  C146     1.0000 0.03920  0.27950  0.58392  Biso   1.000  C
  C147     1.0000 0.09330  0.31300  0.56532  Biso   1.000  C
  C148     1.0000 0.11020  0.38270  0.56910  Biso   1.000  C
  H55      1.0000 0.14670  0.40270  0.55690  Biso   1.000  H
  C149     1.0000 0.07280  0.42680  0.59160  Biso   1.000  C
  H56      1.0000 0.08260  0.47550  0.59390  Biso   1.000  H
  C150     1.0000 0.02140  0.39250  0.60974  Biso   1.000  C
  H57      1.0000 0.99700  0.41890  0.62500  Biso   1.000  H
  C151     1.0000 0.96290  0.28720  0.65635  Biso   1.000  C
  C152     1.0000 0.90300  0.29370  0.67537  Biso   1.000  C
  H58      1.0000 0.85870  0.30560  0.66660  Biso   1.000  H
  C153     1.0000 0.90890  0.28260  0.70704  Biso   1.000  C
  C154     1.0000 0.97410  0.26480  0.72033  Biso   1.000  C
  H59      1.0000 0.97710  0.25440  0.74180  Biso   1.000  H
  C155     1.0000 0.03580  0.26230  0.70140  Biso   1.000  C
  C156     1.0000 0.03000  0.27330  0.66896  Biso   1.000  C
  H60      1.0000 0.07040  0.27130  0.65600  Biso   1.000  H
  C157     1.0000 0.02060  0.20110  0.58382  Biso   1.000  C
  C158     1.0000 0.13450  0.26930  0.54131  Biso   1.000  C
  C159     1.0000 0.10740  0.24560  0.71614  Biso   1.000  C
  C160     1.0000 0.84230  0.28470  0.72699  Biso   1.000  C
  O82      1.0000 0.05930  0.16140  0.60022  Biso   1.000  O
  O83      1.0000 0.96570  0.18240  0.56761  Biso   1.000  O
  O84      1.0000 0.10820  0.21340  0.53174  Biso   1.000  O
  O85      1.0000 0.19380  0.29860  0.53209  Biso   1.000  O
  O86      1.0000 0.16240  0.26670  0.70202  Biso   1.000  O
  O87      1.0000 0.10580  0.21210  0.74205  Biso   1.000  O
  O88      1.0000 0.84510  0.25770  0.75430  Biso   1.000  O
  O89      1.0000 0.78800  0.31490  0.71454  Biso   1.000  O
  O90      1.0000 0.95060  0.29090  0.62403  Biso   1.000  O
  C161     1.0000 0.82240  0.49480  0.10615  Biso   1.000  C
  C162     1.0000 0.77950  0.46080  0.08392  Biso   1.000  C
  C163     1.0000 0.81300  0.40670  0.06532  Biso   1.000  C
  C164     1.0000 0.88270  0.38980  0.06910  Biso   1.000  C
  H61      1.0000 0.90270  0.35330  0.05690  Biso   1.000  H
  C165     1.0000 0.92680  0.42720  0.09160  Biso   1.000  C
  H62      1.0000 0.97550  0.41740  0.09390  Biso   1.000  H
  C166     1.0000 0.89250  0.47860  0.10974  Biso   1.000  C
  H63      1.0000 0.91890  0.50300  0.12500  Biso   1.000  H
  C167     1.0000 0.78720  0.53710  0.15635  Biso   1.000  C
  C168     1.0000 0.79370  0.59700  0.17537  Biso   1.000  C
  H64      1.0000 0.80560  0.64130  0.16660  Biso   1.000  H
  C169     1.0000 0.78260  0.59110  0.20704  Biso   1.000  C
  C170     1.0000 0.76480  0.52590  0.22033  Biso   1.000  C
  H65      1.0000 0.75440  0.52290  0.24180  Biso   1.000  H
  C171     1.0000 0.76230  0.46420  0.20140  Biso   1.000  C
  C172     1.0000 0.77330  0.47000  0.16896  Biso   1.000  C
  H66      1.0000 0.77130  0.42960  0.15600  Biso   1.000  H
  C173     1.0000 0.70110  0.47940  0.08382  Biso   1.000  C
  C174     1.0000 0.76930  0.36550  0.04131  Biso   1.000  C
  C175     1.0000 0.74560  0.39260  0.21614  Biso   1.000  C
  C176     1.0000 0.78470  0.65770  0.22699  Biso   1.000  C
  O91      1.0000 0.66140  0.44070  0.10022  Biso   1.000  O
  O92      1.0000 0.68240  0.53430  0.06761  Biso   1.000  O
  O93      1.0000 0.71340  0.39180  0.03174  Biso   1.000  O
  O94      1.0000 0.79860  0.30620  0.03209  Biso   1.000  O
  O95      1.0000 0.76670  0.33760  0.20202  Biso   1.000  O
  O96      1.0000 0.71210  0.39420  0.24205  Biso   1.000  O
  O97      1.0000 0.75770  0.65490  0.25430  Biso   1.000  O
  O98      1.0000 0.81490  0.71200  0.21454  Biso   1.000  O
  O99      1.0000 0.79090  0.54940  0.12403  Biso   1.000  O
  C177     1.0000 0.17760  0.50520  0.10615  Biso   1.000  C
  C178     1.0000 0.22050  0.53920  0.08392  Biso   1.000  C
  C179     1.0000 0.18700  0.59330  0.06532  Biso   1.000  C
  C180     1.0000 0.11730  0.61020  0.06910  Biso   1.000  C
  H67      1.0000 0.09730  0.64670  0.05690  Biso   1.000  H
  C181     1.0000 0.07320  0.57280  0.09160  Biso   1.000  C
  H68      1.0000 0.02450  0.58260  0.09390  Biso   1.000  H
  C182     1.0000 0.10750  0.52140  0.10974  Biso   1.000  C
  H69      1.0000 0.08110  0.49700  0.12500  Biso   1.000  H
  C183     1.0000 0.21280  0.46290  0.15635  Biso   1.000  C
  C184     1.0000 0.20630  0.40300  0.17537  Biso   1.000  C
  H70      1.0000 0.19440  0.35870  0.16660  Biso   1.000  H
  C185     1.0000 0.21740  0.40890  0.20704  Biso   1.000  C
  C186     1.0000 0.23520  0.47410  0.22033  Biso   1.000  C
  H71      1.0000 0.24560  0.47710  0.24180  Biso   1.000  H
  C187     1.0000 0.23770  0.53580  0.20140  Biso   1.000  C
  C188     1.0000 0.22670  0.53000  0.16896  Biso   1.000  C
  H72      1.0000 0.22870  0.57040  0.15600  Biso   1.000  H
  C189     1.0000 0.29890  0.52060  0.08382  Biso   1.000  C
  C190     1.0000 0.23070  0.63450  0.04131  Biso   1.000  C
  C191     1.0000 0.25440  0.60740  0.21614  Biso   1.000  C
  C192     1.0000 0.21530  0.34230  0.22699  Biso   1.000  C
  O100     1.0000 0.33860  0.55930  0.10022  Biso   1.000  O
  O101     1.0000 0.31760  0.46570  0.06761  Biso   1.000  O
  O102     1.0000 0.28660  0.60820  0.03174  Biso   1.000  O
  O103     1.0000 0.20140  0.69380  0.03209  Biso   1.000  O
  O104     1.0000 0.23330  0.66240  0.20202  Biso   1.000  O
  O105     1.0000 0.28790  0.60580  0.24205  Biso   1.000  O
  O106     1.0000 0.24230  0.34510  0.25430  Biso   1.000  O
  O107     1.0000 0.18510  0.28800  0.21454  Biso   1.000  O
  O108     1.0000 0.20910  0.45060  0.12403  Biso   1.000  O
  C193     1.0000 0.50520  0.17760  0.89385  Biso   1.000  C
  C194     1.0000 0.53920  0.22050  0.91608  Biso   1.000  C
  C195     1.0000 0.59330  0.18700  0.93468  Biso   1.000  C
  C196     1.0000 0.61020  0.11730  0.93090  Biso   1.000  C
  H73      1.0000 0.64670  0.09730  0.94310  Biso   1.000  H
  C197     1.0000 0.57280  0.07320  0.90840  Biso   1.000  C
  H74      1.0000 0.58260  0.02450  0.90610  Biso   1.000  H
  C198     1.0000 0.52140  0.10750  0.89026  Biso   1.000  C
  H75      1.0000 0.49700  0.08110  0.87500  Biso   1.000  H
  C199     1.0000 0.46290  0.21280  0.84365  Biso   1.000  C
  C200     1.0000 0.40300  0.20630  0.82463  Biso   1.000  C
  H76      1.0000 0.35870  0.19440  0.83340  Biso   1.000  H
  C201     1.0000 0.40890  0.21740  0.79296  Biso   1.000  C
  C202     1.0000 0.47410  0.23520  0.77967  Biso   1.000  C
  H77      1.0000 0.47710  0.24560  0.75820  Biso   1.000  H
  C203     1.0000 0.53580  0.23770  0.79860  Biso   1.000  C
  C204     1.0000 0.53000  0.22670  0.83104  Biso   1.000  C
  H78      1.0000 0.57040  0.22870  0.84400  Biso   1.000  H
  C205     1.0000 0.52060  0.29890  0.91618  Biso   1.000  C
  C206     1.0000 0.63450  0.23070  0.95869  Biso   1.000  C
  C207     1.0000 0.60740  0.25440  0.78386  Biso   1.000  C
  C208     1.0000 0.34230  0.21530  0.77301  Biso   1.000  C
  O109     1.0000 0.55930  0.33860  0.89978  Biso   1.000  O
  O110     1.0000 0.46570  0.31760  0.93239  Biso   1.000  O
  O111     1.0000 0.60820  0.28660  0.96826  Biso   1.000  O
  O112     1.0000 0.69380  0.20140  0.96791  Biso   1.000  O
  O113     1.0000 0.66240  0.23330  0.79798  Biso   1.000  O
  O114     1.0000 0.60580  0.28790  0.75795  Biso   1.000  O
  O115     1.0000 0.34510  0.24230  0.74570  Biso   1.000  O
  O116     1.0000 0.28800  0.18510  0.78546  Biso   1.000  O
  O117     1.0000 0.45060  0.20910  0.87597  Biso   1.000  O
  C209     1.0000 0.49480  0.82240  0.89385  Biso   1.000  C
  C210     1.0000 0.46080  0.77950  0.91608  Biso   1.000  C
  C211     1.0000 0.40670  0.81300  0.93468  Biso   1.000  C
  C212     1.0000 0.38980  0.88270  0.93090  Biso   1.000  C
  H79      1.0000 0.35330  0.90270  0.94310  Biso   1.000  H
  C213     1.0000 0.42720  0.92680  0.90840  Biso   1.000  C
  H80      1.0000 0.41740  0.97550  0.90610  Biso   1.000  H
  C214     1.0000 0.47860  0.89250  0.89026  Biso   1.000  C
  H81      1.0000 0.50300  0.91890  0.87500  Biso   1.000  H
  C215     1.0000 0.53710  0.78720  0.84365  Biso   1.000  C
  C216     1.0000 0.59700  0.79370  0.82463  Biso   1.000  C
  H82      1.0000 0.64130  0.80560  0.83340  Biso   1.000  H
  C217     1.0000 0.59110  0.78260  0.79296  Biso   1.000  C
  C218     1.0000 0.52590  0.76480  0.77967  Biso   1.000  C
  H83      1.0000 0.52290  0.75440  0.75820  Biso   1.000  H
  C219     1.0000 0.46420  0.76230  0.79860  Biso   1.000  C
  C220     1.0000 0.47000  0.77330  0.83104  Biso   1.000  C
  H84      1.0000 0.42960  0.77130  0.84400  Biso   1.000  H
  C221     1.0000 0.47940  0.70110  0.91618  Biso   1.000  C
  C222     1.0000 0.36550  0.76930  0.95869  Biso   1.000  C
  C223     1.0000 0.39260  0.74560  0.78386  Biso   1.000  C
  C224     1.0000 0.65770  0.78470  0.77301  Biso   1.000  C
  O118     1.0000 0.44070  0.66140  0.89978  Biso   1.000  O
  O119     1.0000 0.53430  0.68240  0.93239  Biso   1.000  O
  O120     1.0000 0.39180  0.71340  0.96826  Biso   1.000  O
  O121     1.0000 0.30620  0.79860  0.96791  Biso   1.000  O
  O122     1.0000 0.33760  0.76670  0.79798  Biso   1.000  O
  O123     1.0000 0.39420  0.71210  0.75795  Biso   1.000  O
  O124     1.0000 0.65490  0.75770  0.74570  Biso   1.000  O
  O125     1.0000 0.71200  0.81490  0.78546  Biso   1.000  O
  O126     1.0000 0.54940  0.79090  0.87597  Biso   1.000  O
  C225     1.0000 0.67760  0.99480  0.39385  Biso   1.000  C
  C226     1.0000 0.72050  0.96080  0.41608  Biso   1.000  C
  C227     1.0000 0.68700  0.90670  0.43468  Biso   1.000  C
  C228     1.0000 0.61730  0.88980  0.43090  Biso   1.000  C
  H85      1.0000 0.59730  0.85330  0.44310  Biso   1.000  H
  C229     1.0000 0.57320  0.92720  0.40840  Biso   1.000  C
  H86      1.0000 0.52450  0.91740  0.40610  Biso   1.000  H
  C230     1.0000 0.60750  0.97860  0.39026  Biso   1.000  C
  H87      1.0000 0.58110  0.00300  0.37500  Biso   1.000  H
  C231     1.0000 0.71280  0.03710  0.34365  Biso   1.000  C
  C232     1.0000 0.70630  0.09700  0.32463  Biso   1.000  C
  H88      1.0000 0.69440  0.14130  0.33340  Biso   1.000  H
  C233     1.0000 0.71740  0.09110  0.29296  Biso   1.000  C
  C234     1.0000 0.73520  0.02590  0.27967  Biso   1.000  C
  H89      1.0000 0.74560  0.02290  0.25820  Biso   1.000  H
  C235     1.0000 0.73770  0.96420  0.29860  Biso   1.000  C
  C236     1.0000 0.72670  0.97000  0.33104  Biso   1.000  C
  H90      1.0000 0.72870  0.92960  0.34400  Biso   1.000  H
  C237     1.0000 0.79890  0.97940  0.41618  Biso   1.000  C
  C238     1.0000 0.73070  0.86550  0.45869  Biso   1.000  C
  C239     1.0000 0.75440  0.89260  0.28386  Biso   1.000  C
  C240     1.0000 0.71530  0.15770  0.27301  Biso   1.000  C
  O127     1.0000 0.83860  0.94070  0.39978  Biso   1.000  O
  O128     1.0000 0.81760  0.03430  0.43239  Biso   1.000  O
  O129     1.0000 0.78660  0.89180  0.46826  Biso   1.000  O
  O130     1.0000 0.70140  0.80620  0.46791  Biso   1.000  O
  O131     1.0000 0.73330  0.83760  0.29798  Biso   1.000  O
  O132     1.0000 0.78790  0.89420  0.25795  Biso   1.000  O
  O133     1.0000 0.74230  0.15490  0.24570  Biso   1.000  O
  O134     1.0000 0.68510  0.21200  0.28546  Biso   1.000  O
  O135     1.0000 0.70910  0.04940  0.37597  Biso   1.000  O
  C241     1.0000 0.32240  0.00520  0.39385  Biso   1.000  C
  C242     1.0000 0.27950  0.03920  0.41608  Biso   1.000  C
  C243     1.0000 0.31300  0.09330  0.43468  Biso   1.000  C
  C244     1.0000 0.38270  0.11020  0.43090  Biso   1.000  C
  H91      1.0000 0.40270  0.14670  0.44310  Biso   1.000  H
  C245     1.0000 0.42680  0.07280  0.40840  Biso   1.000  C
  H92      1.0000 0.47550  0.08260  0.40610  Biso   1.000  H
  C246     1.0000 0.39250  0.02140  0.39026  Biso   1.000  C
  H93      1.0000 0.41890  0.99700  0.37500  Biso   1.000  H
  C247     1.0000 0.28720  0.96290  0.34365  Biso   1.000  C
  C248     1.0000 0.29370  0.90300  0.32463  Biso   1.000  C
  H94      1.0000 0.30560  0.85870  0.33340  Biso   1.000  H
  C249     1.0000 0.28260  0.90890  0.29296  Biso   1.000  C
  C250     1.0000 0.26480  0.97410  0.27967  Biso   1.000  C
  H95      1.0000 0.25440  0.97710  0.25820  Biso   1.000  H
  C251     1.0000 0.26230  0.03580  0.29860  Biso   1.000  C
  C252     1.0000 0.27330  0.03000  0.33104  Biso   1.000  C
  H96      1.0000 0.27130  0.07040  0.34400  Biso   1.000  H
  C253     1.0000 0.20110  0.02060  0.41618  Biso   1.000  C
  C254     1.0000 0.26930  0.13450  0.45869  Biso   1.000  C
  C255     1.0000 0.24560  0.10740  0.28386  Biso   1.000  C
  C256     1.0000 0.28470  0.84230  0.27301  Biso   1.000  C
  O136     1.0000 0.16140  0.05930  0.39978  Biso   1.000  O
  O137     1.0000 0.18240  0.96570  0.43239  Biso   1.000  O
  O138     1.0000 0.21340  0.10820  0.46826  Biso   1.000  O
  O139     1.0000 0.29860  0.19380  0.46791  Biso   1.000  O
  O140     1.0000 0.26670  0.16240  0.29798  Biso   1.000  O
  O141     1.0000 0.21210  0.10580  0.25795  Biso   1.000  O
  O142     1.0000 0.25770  0.84510  0.24570  Biso   1.000  O
  O143     1.0000 0.31490  0.78800  0.28546  Biso   1.000  O
  O144     1.0000 0.29090  0.95060  0.37597  Biso   1.000  O
  Cu1      1.0000 0.05655  0.05655  0.39513  Biso   1.000  Cu
  Cu2      1.0000 0.25859  0.25859  0.28004  Biso   1.000  Cu
  Cu3      1.0000 0.19182  0.19182  0.23290  Biso   1.000  Cu
  Cu4      1.0000 0.94345  0.94345  0.39513  Biso   1.000  Cu
  Cu5      1.0000 0.74141  0.74141  0.28004  Biso   1.000  Cu
  Cu6      1.0000 0.80818  0.80818  0.23290  Biso   1.000  Cu
  Cu7      1.0000 0.44345  0.55655  0.89513  Biso   1.000  Cu
  Cu8      1.0000 0.24141  0.75859  0.78004  Biso   1.000  Cu
  Cu9      1.0000 0.30818  0.69182  0.73290  Biso   1.000  Cu
  Cu10     1.0000 0.55655  0.44345  0.89513  Biso   1.000  Cu
  Cu11     1.0000 0.75859  0.24141  0.78004  Biso   1.000  Cu
  Cu12     1.0000 0.69182  0.30818  0.73290  Biso   1.000  Cu
  Cu13     1.0000 0.44345  0.55655  0.10487  Biso   1.000  Cu
  Cu14     1.0000 0.24141  0.75859  0.21996  Biso   1.000  Cu
  Cu15     1.0000 0.30818  0.69182  0.26710  Biso   1.000  Cu
  Cu16     1.0000 0.55655  0.44345  0.10487  Biso   1.000  Cu
  Cu17     1.0000 0.75859  0.24141  0.21996  Biso   1.000  Cu
  Cu18     1.0000 0.69182  0.30818  0.26710  Biso   1.000  Cu
  Cu19     1.0000 0.05655  0.05655  0.60487  Biso   1.000  Cu
  Cu20     1.0000 0.25859  0.25859  0.71996  Biso   1.000  Cu
  Cu21     1.0000 0.19182  0.19182  0.76710  Biso   1.000  Cu
  Cu22     1.0000 0.94345  0.94345  0.60487  Biso   1.000  Cu
  Cu23     1.0000 0.74141  0.74141  0.71996  Biso   1.000  Cu
  Cu24     1.0000 0.80818  0.80818  0.76710  Biso   1.000  Cu
  Cu25     1.0000 0.90633  0.09367  0.43252  Biso   1.000  Cu
  O145     1.0000 0.95040  0.04960  0.39543  Biso   1.000  O
  Cu26     1.0000 0.09367  0.90633  0.43252  Biso   1.000  Cu
  O146     1.0000 0.04960  0.95040  0.39543  Biso   1.000  O
  Cu27     1.0000 0.40633  0.40633  0.93252  Biso   1.000  Cu
  O147     1.0000 0.45040  0.45040  0.89543  Biso   1.000  O
  Cu28     1.0000 0.59367  0.59367  0.93252  Biso   1.000  Cu
  O148     1.0000 0.54960  0.54960  0.89543  Biso   1.000  O
  Cu29     1.0000 0.59367  0.59367  0.06748  Biso   1.000  Cu
  O149     1.0000 0.54960  0.54960  0.10457  Biso   1.000  O
  Cu30     1.0000 0.40633  0.40633  0.06748  Biso   1.000  Cu
  O150     1.0000 0.45040  0.45040  0.10457  Biso   1.000  O
  Cu31     1.0000 0.09367  0.90633  0.56748  Biso   1.000  Cu
  O151     1.0000 0.04960  0.95040  0.60457  Biso   1.000  O
  Cu32     1.0000 0.90633  0.09367  0.56748  Biso   1.000  Cu
  O152     1.0000 0.95040  0.04960  0.60457  Biso   1.000  O
  Cu33     1.0000 0.15412  0.15412  0.50000  Biso   1.000  Cu
  Cu34     1.0000 0.25497  0.25497  0.50000  Biso   1.000  Cu
  Cu35     1.0000 0.84588  0.84588  0.50000  Biso   1.000  Cu
  Cu36     1.0000 0.74503  0.74503  0.50000  Biso   1.000  Cu
  Cu37     1.0000 0.34588  0.65412  0.00000  Biso   1.000  Cu
  Cu38     1.0000 0.24503  0.75497  0.00000  Biso   1.000  Cu
  Cu39     1.0000 0.65412  0.34588  0.00000  Biso   1.000  Cu
  Cu40     1.0000 0.75497  0.24503  0.00000  Biso   1.000  Cu
