data_image0
_cell_length_a       27.534
_cell_length_b       21.63
_cell_length_c       19.2968
_cell_angle_alpha    90
_cell_angle_beta     120.527
_cell_angle_gamma    90

_symmetry_space_group_name_H-M    "P 1"
_symmetry_int_tables_number       1

loop_
  _symmetry_equiv_pos_as_xyz
  'x, y, z'

loop_
  _atom_site_label
  _atom_site_occupancy
  _atom_site_fract_x
  _atom_site_fract_y
  _atom_site_fract_z
  _atom_site_thermal_displace_type
  _atom_site_B_iso_or_equiv
  _atom_site_type_symbol
  Cu1      1.0000 0.12088  0.17335  0.13109  Biso   1.000  Cu
  Cu2      1.0000 0.21369  0.11178  0.16528  Biso   1.000  Cu
  Cu3      1.0000 0.18976  0.18203  0.41258  Biso   1.000  Cu
  K1       1.0000 0.08638  0.24318  0.31557  Biso   1.000  K
  C1       1.0000 0.10523  0.99340  0.25180  Biso   1.000  C
  C2       1.0000 0.15084  0.03010  0.29790  Biso   1.000  C
  C3       1.0000 0.18410  0.01720  0.38000  Biso   1.000  C
  C4       1.0000 0.16940  0.96690  0.41280  Biso   1.000  C
  H1       1.0000 0.19190  0.95690  0.46690  Biso   1.000  H
  C5       1.0000 0.12200  0.93310  0.36440  Biso   1.000  C
  H2       1.0000 0.11190  0.90080  0.38630  Biso   1.000  H
  C6       1.0000 0.08840  0.94650  0.28250  Biso   1.000  C
  H3       1.0000 0.05560  0.92430  0.24990  Biso   1.000  H
  C7       1.0000 0.02127  0.01080  0.12680  Biso   1.000  C
  C8       1.0000 0.99810  0.06210  0.14230  Biso   1.000  C
  H4       1.0000 0.02080  0.08860  0.18450  Biso   1.000  H
  C9       1.0000 0.94030  0.07380  0.09400  Biso   1.000  C
  C10      1.0000 0.90720  0.03300  0.03160  Biso   1.000  C
  H5       1.0000 0.86860  0.03980  0.99960  Biso   1.000  H
  C11      1.0000 0.93170  0.98216  0.01720  Biso   1.000  C
  C12      1.0000 0.98825  0.97120  0.06490  Biso   1.000  C
  H6       1.0000 0.00430  0.93690  0.05530  Biso   1.000  H
  C13      1.0000 0.16488  0.07860  0.25540  Biso   1.000  C
  C14      1.0000 0.23330  0.05630  0.43510  Biso   1.000  C
  C15      1.0000 0.89484  0.93760  0.95200  Biso   1.000  C
  C16      1.0000 0.91400  0.12820  0.10880  Biso   1.000  C
  C17      1.0000 0.23040  0.17480  0.77760  Biso   1.000  C
  C18      1.0000 0.24670  0.20800  0.73130  Biso   1.000  C
  C19      1.0000 0.23410  0.18370  0.65590  Biso   1.000  C
  C20      1.0000 0.20500  0.12830  0.63100  Biso   1.000  C
  H7       1.0000 0.19620  0.11210  0.58120  Biso   1.000  H
  C21      1.0000 0.18880  0.09600  0.67810  Biso   1.000  C
  H8       1.0000 0.16920  0.05900  0.65980  Biso   1.000  H
  C22      1.0000 0.20170  0.11920  0.75230  Biso   1.000  C
  H9       1.0000 0.19140  0.09790  0.78460  Biso   1.000  H
  C23      1.0000 0.20800  0.21570  0.87110  Biso   1.000  C
  C24      1.0000 0.16780  0.25900  0.82240  Biso   1.000  C
  H10      1.0000 0.16620  0.27260  0.77550  Biso   1.000  H
  C25      1.0000 0.13120  0.28140  0.84290  Biso   1.000  C
  C26      1.0000 0.13230  0.26030  0.91300  Biso   1.000  C
  H11      1.0000 0.10670  0.27560  0.92670  Biso   1.000  H
  C27      1.0000 0.17100  0.21740  0.95990  Biso   1.000  C
  C28      1.0000 0.20960  0.19470  0.93980  Biso   1.000  C
  H12      1.0000 0.23630  0.16550  0.97240  Biso   1.000  H
  C29      1.0000 0.28030  0.26470  0.76700  Biso   1.000  C
  C30      1.0000 0.25200  0.21570  0.60500  Biso   1.000  C
  C31      1.0000 0.17240  0.19160  0.03290  Biso   1.000  C
  C32      1.0000 0.09100  0.32960  0.79280  Biso   1.000  C
  O1       1.0000 0.13122  0.12351  0.22513  Biso   1.000  O
  O2       1.0000 0.20637  0.06743  0.24732  Biso   1.000  O
  O3       1.0000 0.23407  0.11130  0.41462  Biso   1.000  O
  O4       1.0000 0.27040  0.03370  0.49850  Biso   1.000  O
  O5       1.0000 0.91978  0.89396  0.94036  Biso   1.000  O
  O6       1.0000 0.84293  0.94637  0.91495  Biso   1.000  O
  O7       1.0000 0.86144  0.12749  0.07580  Biso   1.000  O
  O8       1.0000 0.94430  0.16940  0.14960  Biso   1.000  O
  O9       1.0000 0.07854  0.00081  0.16801  Biso   1.000  O
  O10      1.0000 0.25334  0.31297  0.76509  Biso   1.000  O
  O11      1.0000 0.33287  0.25982  0.80109  Biso   1.000  O
  O12      1.0000 0.26890  0.27054  0.62400  Biso   1.000  O
  O13      1.0000 0.25140  0.18640  0.54880  Biso   1.000  O
  O14      1.0000 0.21158  0.15571  0.07659  Biso   1.000  O
  O15      1.0000 0.13196  0.20676  0.04355  Biso   1.000  O
  O16      1.0000 0.05470  0.34850  0.81180  Biso   1.000  O
  O17      1.0000 0.09360  0.35240  0.73630  Biso   1.000  O
  O18      1.0000 0.24905  0.19544  0.85561  Biso   1.000  O
  O19      1.0000 0.14400  0.25240  0.40330  Biso   1.000  O
  Cu4      1.0000 0.62088  0.67335  0.13109  Biso   1.000  Cu
  Cu5      1.0000 0.71369  0.61178  0.16528  Biso   1.000  Cu
  Cu6      1.0000 0.68976  0.68203  0.41258  Biso   1.000  Cu
  K2       1.0000 0.58638  0.74318  0.31557  Biso   1.000  K
  C33      1.0000 0.60523  0.49340  0.25180  Biso   1.000  C
  C34      1.0000 0.65084  0.53010  0.29790  Biso   1.000  C
  C35      1.0000 0.68410  0.51720  0.38000  Biso   1.000  C
  C36      1.0000 0.66940  0.46690  0.41280  Biso   1.000  C
  H13      1.0000 0.69190  0.45690  0.46690  Biso   1.000  H
  C37      1.0000 0.62200  0.43310  0.36440  Biso   1.000  C
  H14      1.0000 0.61190  0.40080  0.38630  Biso   1.000  H
  C38      1.0000 0.58840  0.44650  0.28250  Biso   1.000  C
  H15      1.0000 0.55560  0.42430  0.24990  Biso   1.000  H
  C39      1.0000 0.52127  0.51080  0.12680  Biso   1.000  C
  C40      1.0000 0.49810  0.56210  0.14230  Biso   1.000  C
  H16      1.0000 0.52080  0.58860  0.18450  Biso   1.000  H
  C41      1.0000 0.44030  0.57380  0.09400  Biso   1.000  C
  C42      1.0000 0.40720  0.53300  0.03160  Biso   1.000  C
  H17      1.0000 0.36860  0.53980  0.99960  Biso   1.000  H
  C43      1.0000 0.43170  0.48216  0.01720  Biso   1.000  C
  C44      1.0000 0.48825  0.47120  0.06490  Biso   1.000  C
  H18      1.0000 0.50430  0.43690  0.05530  Biso   1.000  H
  C45      1.0000 0.66488  0.57860  0.25540  Biso   1.000  C
  C46      1.0000 0.73330  0.55630  0.43510  Biso   1.000  C
  C47      1.0000 0.39484  0.43760  0.95200  Biso   1.000  C
  C48      1.0000 0.41400  0.62820  0.10880  Biso   1.000  C
  C49      1.0000 0.73040  0.67480  0.77760  Biso   1.000  C
  C50      1.0000 0.74670  0.70800  0.73130  Biso   1.000  C
  C51      1.0000 0.73410  0.68370  0.65590  Biso   1.000  C
  C52      1.0000 0.70500  0.62830  0.63100  Biso   1.000  C
  H19      1.0000 0.69620  0.61210  0.58120  Biso   1.000  H
  C53      1.0000 0.68880  0.59600  0.67810  Biso   1.000  C
  H20      1.0000 0.66920  0.55900  0.65980  Biso   1.000  H
  C54      1.0000 0.70170  0.61920  0.75230  Biso   1.000  C
  H21      1.0000 0.69140  0.59790  0.78460  Biso   1.000  H
  C55      1.0000 0.70800  0.71570  0.87110  Biso   1.000  C
  C56      1.0000 0.66780  0.75900  0.82240  Biso   1.000  C
  H22      1.0000 0.66620  0.77260  0.77550  Biso   1.000  H
  C57      1.0000 0.63120  0.78140  0.84290  Biso   1.000  C
  C58      1.0000 0.63230  0.76030  0.91300  Biso   1.000  C
  H23      1.0000 0.60670  0.77560  0.92670  Biso   1.000  H
  C59      1.0000 0.67100  0.71740  0.95990  Biso   1.000  C
  C60      1.0000 0.70960  0.69470  0.93980  Biso   1.000  C
  H24      1.0000 0.73630  0.66550  0.97240  Biso   1.000  H
  C61      1.0000 0.78030  0.76470  0.76700  Biso   1.000  C
  C62      1.0000 0.75200  0.71570  0.60500  Biso   1.000  C
  C63      1.0000 0.67240  0.69160  0.03290  Biso   1.000  C
  C64      1.0000 0.59100  0.82960  0.79280  Biso   1.000  C
  O20      1.0000 0.63122  0.62351  0.22513  Biso   1.000  O
  O21      1.0000 0.70637  0.56743  0.24732  Biso   1.000  O
  O22      1.0000 0.73407  0.61130  0.41462  Biso   1.000  O
  O23      1.0000 0.77040  0.53370  0.49850  Biso   1.000  O
  O24      1.0000 0.41978  0.39396  0.94036  Biso   1.000  O
  O25      1.0000 0.34293  0.44637  0.91495  Biso   1.000  O
  O26      1.0000 0.36144  0.62749  0.07580  Biso   1.000  O
  O27      1.0000 0.44430  0.66940  0.14960  Biso   1.000  O
  O28      1.0000 0.57854  0.50081  0.16801  Biso   1.000  O
  O29      1.0000 0.75334  0.81297  0.76509  Biso   1.000  O
  O30      1.0000 0.83287  0.75982  0.80109  Biso   1.000  O
  O31      1.0000 0.76890  0.77054  0.62400  Biso   1.000  O
  O32      1.0000 0.75140  0.68640  0.54880  Biso   1.000  O
  O33      1.0000 0.71158  0.65571  0.07659  Biso   1.000  O
  O34      1.0000 0.63196  0.70676  0.04355  Biso   1.000  O
  O35      1.0000 0.55470  0.84850  0.81180  Biso   1.000  O
  O36      1.0000 0.59360  0.85240  0.73630  Biso   1.000  O
  O37      1.0000 0.74905  0.69544  0.85561  Biso   1.000  O
  O38      1.0000 0.64400  0.75240  0.40330  Biso   1.000  O
  Cu7      1.0000 0.87912  0.17335  0.36891  Biso   1.000  Cu
  Cu8      1.0000 0.78631  0.11178  0.33472  Biso   1.000  Cu
  Cu9      1.0000 0.81024  0.18203  0.08742  Biso   1.000  Cu
  K3       1.0000 0.91362  0.24318  0.18443  Biso   1.000  K
  C65      1.0000 0.89477  0.99340  0.24820  Biso   1.000  C
  C66      1.0000 0.84916  0.03010  0.20210  Biso   1.000  C
  C67      1.0000 0.81590  0.01720  0.12000  Biso   1.000  C
  C68      1.0000 0.83060  0.96690  0.08720  Biso   1.000  C
  H25      1.0000 0.80810  0.95690  0.03310  Biso   1.000  H
  C69      1.0000 0.87800  0.93310  0.13560  Biso   1.000  C
  H26      1.0000 0.88810  0.90080  0.11370  Biso   1.000  H
  C70      1.0000 0.91160  0.94650  0.21750  Biso   1.000  C
  H27      1.0000 0.94440  0.92430  0.25010  Biso   1.000  H
  C71      1.0000 0.97873  0.01080  0.37320  Biso   1.000  C
  C72      1.0000 0.00190  0.06210  0.35770  Biso   1.000  C
  H28      1.0000 0.97920  0.08860  0.31550  Biso   1.000  H
  C73      1.0000 0.05970  0.07380  0.40600  Biso   1.000  C
  C74      1.0000 0.09280  0.03300  0.46840  Biso   1.000  C
  H29      1.0000 0.13140  0.03980  0.50040  Biso   1.000  H
  C75      1.0000 0.06830  0.98216  0.48280  Biso   1.000  C
  C76      1.0000 0.01175  0.97120  0.43510  Biso   1.000  C
  H30      1.0000 0.99570  0.93690  0.44470  Biso   1.000  H
  C77      1.0000 0.83512  0.07860  0.24460  Biso   1.000  C
  C78      1.0000 0.76670  0.05630  0.06490  Biso   1.000  C
  C79      1.0000 0.10516  0.93760  0.54800  Biso   1.000  C
  C80      1.0000 0.08600  0.12820  0.39120  Biso   1.000  C
  C81      1.0000 0.76960  0.17480  0.72240  Biso   1.000  C
  C82      1.0000 0.75330  0.20800  0.76870  Biso   1.000  C
  C83      1.0000 0.76590  0.18370  0.84410  Biso   1.000  C
  C84      1.0000 0.79500  0.12830  0.86900  Biso   1.000  C
  H31      1.0000 0.80380  0.11210  0.91880  Biso   1.000  H
  C85      1.0000 0.81120  0.09600  0.82190  Biso   1.000  C
  H32      1.0000 0.83080  0.05900  0.84020  Biso   1.000  H
  C86      1.0000 0.79830  0.11920  0.74770  Biso   1.000  C
  H33      1.0000 0.80860  0.09790  0.71540  Biso   1.000  H
  C87      1.0000 0.79200  0.21570  0.62890  Biso   1.000  C
  C88      1.0000 0.83220  0.25900  0.67760  Biso   1.000  C
  H34      1.0000 0.83380  0.27260  0.72450  Biso   1.000  H
  C89      1.0000 0.86880  0.28140  0.65710  Biso   1.000  C
  C90      1.0000 0.86770  0.26030  0.58700  Biso   1.000  C
  H35      1.0000 0.89330  0.27560  0.57330  Biso   1.000  H
  C91      1.0000 0.82900  0.21740  0.54010  Biso   1.000  C
  C92      1.0000 0.79040  0.19470  0.56020  Biso   1.000  C
  H36      1.0000 0.76370  0.16550  0.52760  Biso   1.000  H
  C93      1.0000 0.71970  0.26470  0.73300  Biso   1.000  C
  C94      1.0000 0.74800  0.21570  0.89500  Biso   1.000  C
  C95      1.0000 0.82760  0.19160  0.46710  Biso   1.000  C
  C96      1.0000 0.90900  0.32960  0.70720  Biso   1.000  C
  O39      1.0000 0.86878  0.12351  0.27487  Biso   1.000  O
  O40      1.0000 0.79363  0.06743  0.25268  Biso   1.000  O
  O41      1.0000 0.76593  0.11130  0.08538  Biso   1.000  O
  O42      1.0000 0.72960  0.03370  0.00150  Biso   1.000  O
  O43      1.0000 0.08022  0.89396  0.55964  Biso   1.000  O
  O44      1.0000 0.15707  0.94637  0.58505  Biso   1.000  O
  O45      1.0000 0.13856  0.12749  0.42420  Biso   1.000  O
  O46      1.0000 0.05570  0.16940  0.35040  Biso   1.000  O
  O47      1.0000 0.92146  0.00081  0.33199  Biso   1.000  O
  O48      1.0000 0.74666  0.31297  0.73491  Biso   1.000  O
  O49      1.0000 0.66713  0.25982  0.69891  Biso   1.000  O
  O50      1.0000 0.73110  0.27054  0.87600  Biso   1.000  O
  O51      1.0000 0.74860  0.18640  0.95120  Biso   1.000  O
  O52      1.0000 0.78842  0.15571  0.42341  Biso   1.000  O
  O53      1.0000 0.86804  0.20676  0.45645  Biso   1.000  O
  O54      1.0000 0.94530  0.34850  0.68820  Biso   1.000  O
  O55      1.0000 0.90640  0.35240  0.76370  Biso   1.000  O
  O56      1.0000 0.75095  0.19544  0.64439  Biso   1.000  O
  O57      1.0000 0.85600  0.25240  0.09670  Biso   1.000  O
  Cu10     1.0000 0.37912  0.67335  0.36891  Biso   1.000  Cu
  Cu11     1.0000 0.28631  0.61178  0.33472  Biso   1.000  Cu
  Cu12     1.0000 0.31024  0.68203  0.08742  Biso   1.000  Cu
  K4       1.0000 0.41362  0.74318  0.18443  Biso   1.000  K
  C97      1.0000 0.39477  0.49340  0.24820  Biso   1.000  C
  C98      1.0000 0.34916  0.53010  0.20210  Biso   1.000  C
  C99      1.0000 0.31590  0.51720  0.12000  Biso   1.000  C
  C100     1.0000 0.33060  0.46690  0.08720  Biso   1.000  C
  H37      1.0000 0.30810  0.45690  0.03310  Biso   1.000  H
  C101     1.0000 0.37800  0.43310  0.13560  Biso   1.000  C
  H38      1.0000 0.38810  0.40080  0.11370  Biso   1.000  H
  C102     1.0000 0.41160  0.44650  0.21750  Biso   1.000  C
  H39      1.0000 0.44440  0.42430  0.25010  Biso   1.000  H
  C103     1.0000 0.47873  0.51080  0.37320  Biso   1.000  C
  C104     1.0000 0.50190  0.56210  0.35770  Biso   1.000  C
  H40      1.0000 0.47920  0.58860  0.31550  Biso   1.000  H
  C105     1.0000 0.55970  0.57380  0.40600  Biso   1.000  C
  C106     1.0000 0.59280  0.53300  0.46840  Biso   1.000  C
  H41      1.0000 0.63140  0.53980  0.50040  Biso   1.000  H
  C107     1.0000 0.56830  0.48216  0.48280  Biso   1.000  C
  C108     1.0000 0.51175  0.47120  0.43510  Biso   1.000  C
  H42      1.0000 0.49570  0.43690  0.44470  Biso   1.000  H
  C109     1.0000 0.33512  0.57860  0.24460  Biso   1.000  C
  C110     1.0000 0.26670  0.55630  0.06490  Biso   1.000  C
  C111     1.0000 0.60516  0.43760  0.54800  Biso   1.000  C
  C112     1.0000 0.58600  0.62820  0.39120  Biso   1.000  C
  C113     1.0000 0.26960  0.67480  0.72240  Biso   1.000  C
  C114     1.0000 0.25330  0.70800  0.76870  Biso   1.000  C
  C115     1.0000 0.26590  0.68370  0.84410  Biso   1.000  C
  C116     1.0000 0.29500  0.62830  0.86900  Biso   1.000  C
  H43      1.0000 0.30380  0.61210  0.91880  Biso   1.000  H
  C117     1.0000 0.31120  0.59600  0.82190  Biso   1.000  C
  H44      1.0000 0.33080  0.55900  0.84020  Biso   1.000  H
  C118     1.0000 0.29830  0.61920  0.74770  Biso   1.000  C
  H45      1.0000 0.30860  0.59790  0.71540  Biso   1.000  H
  C119     1.0000 0.29200  0.71570  0.62890  Biso   1.000  C
  C120     1.0000 0.33220  0.75900  0.67760  Biso   1.000  C
  H46      1.0000 0.33380  0.77260  0.72450  Biso   1.000  H
  C121     1.0000 0.36880  0.78140  0.65710  Biso   1.000  C
  C122     1.0000 0.36770  0.76030  0.58700  Biso   1.000  C
  H47      1.0000 0.39330  0.77560  0.57330  Biso   1.000  H
  C123     1.0000 0.32900  0.71740  0.54010  Biso   1.000  C
  C124     1.0000 0.29040  0.69470  0.56020  Biso   1.000  C
  H48      1.0000 0.26370  0.66550  0.52760  Biso   1.000  H
  C125     1.0000 0.21970  0.76470  0.73300  Biso   1.000  C
  C126     1.0000 0.24800  0.71570  0.89500  Biso   1.000  C
  C127     1.0000 0.32760  0.69160  0.46710  Biso   1.000  C
  C128     1.0000 0.40900  0.82960  0.70720  Biso   1.000  C
  O58      1.0000 0.36878  0.62351  0.27487  Biso   1.000  O
  O59      1.0000 0.29363  0.56743  0.25268  Biso   1.000  O
  O60      1.0000 0.26593  0.61130  0.08538  Biso   1.000  O
  O61      1.0000 0.22960  0.53370  0.00150  Biso   1.000  O
  O62      1.0000 0.58022  0.39396  0.55964  Biso   1.000  O
  O63      1.0000 0.65707  0.44637  0.58505  Biso   1.000  O
  O64      1.0000 0.63856  0.62749  0.42420  Biso   1.000  O
  O65      1.0000 0.55570  0.66940  0.35040  Biso   1.000  O
  O66      1.0000 0.42146  0.50081  0.33199  Biso   1.000  O
  O67      1.0000 0.24666  0.81297  0.73491  Biso   1.000  O
  O68      1.0000 0.16713  0.75982  0.69891  Biso   1.000  O
  O69      1.0000 0.23110  0.77054  0.87600  Biso   1.000  O
  O70      1.0000 0.24860  0.68640  0.95120  Biso   1.000  O
  O71      1.0000 0.28842  0.65571  0.42341  Biso   1.000  O
  O72      1.0000 0.36804  0.70676  0.45645  Biso   1.000  O
  O73      1.0000 0.44530  0.84850  0.68820  Biso   1.000  O
  O74      1.0000 0.40640  0.85240  0.76370  Biso   1.000  O
  O75      1.0000 0.25095  0.69544  0.64439  Biso   1.000  O
  O76      1.0000 0.35600  0.75240  0.09670  Biso   1.000  O
  Cu13     1.0000 0.87912  0.82665  0.86891  Biso   1.000  Cu
  Cu14     1.0000 0.78631  0.88822  0.83472  Biso   1.000  Cu
  Cu15     1.0000 0.81024  0.81797  0.58742  Biso   1.000  Cu
  K5       1.0000 0.91362  0.75682  0.68443  Biso   1.000  K
  C129     1.0000 0.89477  0.00660  0.74820  Biso   1.000  C
  C130     1.0000 0.84916  0.96990  0.70210  Biso   1.000  C
  C131     1.0000 0.81590  0.98280  0.62000  Biso   1.000  C
  C132     1.0000 0.83060  0.03310  0.58720  Biso   1.000  C
  H49      1.0000 0.80810  0.04310  0.53310  Biso   1.000  H
  C133     1.0000 0.87800  0.06690  0.63560  Biso   1.000  C
  H50      1.0000 0.88810  0.09920  0.61370  Biso   1.000  H
  C134     1.0000 0.91160  0.05350  0.71750  Biso   1.000  C
  H51      1.0000 0.94440  0.07570  0.75010  Biso   1.000  H
  C135     1.0000 0.97873  0.98920  0.87320  Biso   1.000  C
  C136     1.0000 0.00190  0.93790  0.85770  Biso   1.000  C
  H52      1.0000 0.97920  0.91140  0.81550  Biso   1.000  H
  C137     1.0000 0.05970  0.92620  0.90600  Biso   1.000  C
  C138     1.0000 0.09280  0.96700  0.96840  Biso   1.000  C
  H53      1.0000 0.13140  0.96020  0.00040  Biso   1.000  H
  C139     1.0000 0.06830  0.01784  0.98280  Biso   1.000  C
  C140     1.0000 0.01175  0.02880  0.93510  Biso   1.000  C
  H54      1.0000 0.99570  0.06310  0.94470  Biso   1.000  H
  C141     1.0000 0.83512  0.92140  0.74460  Biso   1.000  C
  C142     1.0000 0.76670  0.94370  0.56490  Biso   1.000  C
  C143     1.0000 0.10516  0.06240  0.04800  Biso   1.000  C
  C144     1.0000 0.08600  0.87180  0.89120  Biso   1.000  C
  C145     1.0000 0.76960  0.82520  0.22240  Biso   1.000  C
  C146     1.0000 0.75330  0.79200  0.26870  Biso   1.000  C
  C147     1.0000 0.76590  0.81630  0.34410  Biso   1.000  C
  C148     1.0000 0.79500  0.87170  0.36900  Biso   1.000  C
  H55      1.0000 0.80380  0.88790  0.41880  Biso   1.000  H
  C149     1.0000 0.81120  0.90400  0.32190  Biso   1.000  C
  H56      1.0000 0.83080  0.94100  0.34020  Biso   1.000  H
  C150     1.0000 0.79830  0.88080  0.24770  Biso   1.000  C
  H57      1.0000 0.80860  0.90210  0.21540  Biso   1.000  H
  C151     1.0000 0.79200  0.78430  0.12890  Biso   1.000  C
  C152     1.0000 0.83220  0.74100  0.17760  Biso   1.000  C
  H58      1.0000 0.83380  0.72740  0.22450  Biso   1.000  H
  C153     1.0000 0.86880  0.71860  0.15710  Biso   1.000  C
  C154     1.0000 0.86770  0.73970  0.08700  Biso   1.000  C
  H59      1.0000 0.89330  0.72440  0.07330  Biso   1.000  H
  C155     1.0000 0.82900  0.78260  0.04010  Biso   1.000  C
  C156     1.0000 0.79040  0.80530  0.06020  Biso   1.000  C
  H60      1.0000 0.76370  0.83450  0.02760  Biso   1.000  H
  C157     1.0000 0.71970  0.73530  0.23300  Biso   1.000  C
  C158     1.0000 0.74800  0.78430  0.39500  Biso   1.000  C
  C159     1.0000 0.82760  0.80840  0.96710  Biso   1.000  C
  C160     1.0000 0.90900  0.67040  0.20720  Biso   1.000  C
  O77      1.0000 0.86878  0.87649  0.77487  Biso   1.000  O
  O78      1.0000 0.79363  0.93257  0.75268  Biso   1.000  O
  O79      1.0000 0.76593  0.88870  0.58538  Biso   1.000  O
  O80      1.0000 0.72960  0.96630  0.50150  Biso   1.000  O
  O81      1.0000 0.08022  0.10604  0.05964  Biso   1.000  O
  O82      1.0000 0.15707  0.05363  0.08505  Biso   1.000  O
  O83      1.0000 0.13856  0.87251  0.92420  Biso   1.000  O
  O84      1.0000 0.05570  0.83060  0.85040  Biso   1.000  O
  O85      1.0000 0.92146  0.99919  0.83199  Biso   1.000  O
  O86      1.0000 0.74666  0.68703  0.23491  Biso   1.000  O
  O87      1.0000 0.66713  0.74018  0.19891  Biso   1.000  O
  O88      1.0000 0.73110  0.72946  0.37600  Biso   1.000  O
  O89      1.0000 0.74860  0.81360  0.45120  Biso   1.000  O
  O90      1.0000 0.78842  0.84429  0.92341  Biso   1.000  O
  O91      1.0000 0.86804  0.79324  0.95645  Biso   1.000  O
  O92      1.0000 0.94530  0.65150  0.18820  Biso   1.000  O
  O93      1.0000 0.90640  0.64760  0.26370  Biso   1.000  O
  O94      1.0000 0.75095  0.80456  0.14439  Biso   1.000  O
  O95      1.0000 0.85600  0.74760  0.59670  Biso   1.000  O
  Cu16     1.0000 0.37912  0.32665  0.86891  Biso   1.000  Cu
  Cu17     1.0000 0.28631  0.38822  0.83472  Biso   1.000  Cu
  Cu18     1.0000 0.31024  0.31797  0.58742  Biso   1.000  Cu
  K6       1.0000 0.41362  0.25682  0.68443  Biso   1.000  K
  C161     1.0000 0.39477  0.50660  0.74820  Biso   1.000  C
  C162     1.0000 0.34916  0.46990  0.70210  Biso   1.000  C
  C163     1.0000 0.31590  0.48280  0.62000  Biso   1.000  C
  C164     1.0000 0.33060  0.53310  0.58720  Biso   1.000  C
  H61      1.0000 0.30810  0.54310  0.53310  Biso   1.000  H
  C165     1.0000 0.37800  0.56690  0.63560  Biso   1.000  C
  H62      1.0000 0.38810  0.59920  0.61370  Biso   1.000  H
  C166     1.0000 0.41160  0.55350  0.71750  Biso   1.000  C
  H63      1.0000 0.44440  0.57570  0.75010  Biso   1.000  H
  C167     1.0000 0.47873  0.48920  0.87320  Biso   1.000  C
  C168     1.0000 0.50190  0.43790  0.85770  Biso   1.000  C
  H64      1.0000 0.47920  0.41140  0.81550  Biso   1.000  H
  C169     1.0000 0.55970  0.42620  0.90600  Biso   1.000  C
  C170     1.0000 0.59280  0.46700  0.96840  Biso   1.000  C
  H65      1.0000 0.63140  0.46020  0.00040  Biso   1.000  H
  C171     1.0000 0.56830  0.51784  0.98280  Biso   1.000  C
  C172     1.0000 0.51175  0.52880  0.93510  Biso   1.000  C
  H66      1.0000 0.49570  0.56310  0.94470  Biso   1.000  H
  C173     1.0000 0.33512  0.42140  0.74460  Biso   1.000  C
  C174     1.0000 0.26670  0.44370  0.56490  Biso   1.000  C
  C175     1.0000 0.60516  0.56240  0.04800  Biso   1.000  C
  C176     1.0000 0.58600  0.37180  0.89120  Biso   1.000  C
  C177     1.0000 0.26960  0.32520  0.22240  Biso   1.000  C
  C178     1.0000 0.25330  0.29200  0.26870  Biso   1.000  C
  C179     1.0000 0.26590  0.31630  0.34410  Biso   1.000  C
  C180     1.0000 0.29500  0.37170  0.36900  Biso   1.000  C
  H67      1.0000 0.30380  0.38790  0.41880  Biso   1.000  H
  C181     1.0000 0.31120  0.40400  0.32190  Biso   1.000  C
  H68      1.0000 0.33080  0.44100  0.34020  Biso   1.000  H
  C182     1.0000 0.29830  0.38080  0.24770  Biso   1.000  C
  H69      1.0000 0.30860  0.40210  0.21540  Biso   1.000  H
  C183     1.0000 0.29200  0.28430  0.12890  Biso   1.000  C
  C184     1.0000 0.33220  0.24100  0.17760  Biso   1.000  C
  H70      1.0000 0.33380  0.22740  0.22450  Biso   1.000  H
  C185     1.0000 0.36880  0.21860  0.15710  Biso   1.000  C
  C186     1.0000 0.36770  0.23970  0.08700  Biso   1.000  C
  H71      1.0000 0.39330  0.22440  0.07330  Biso   1.000  H
  C187     1.0000 0.32900  0.28260  0.04010  Biso   1.000  C
  C188     1.0000 0.29040  0.30530  0.06020  Biso   1.000  C
  H72      1.0000 0.26370  0.33450  0.02760  Biso   1.000  H
  C189     1.0000 0.21970  0.23530  0.23300  Biso   1.000  C
  C190     1.0000 0.24800  0.28430  0.39500  Biso   1.000  C
  C191     1.0000 0.32760  0.30840  0.96710  Biso   1.000  C
  C192     1.0000 0.40900  0.17040  0.20720  Biso   1.000  C
  O96      1.0000 0.36878  0.37649  0.77487  Biso   1.000  O
  O97      1.0000 0.29363  0.43257  0.75268  Biso   1.000  O
  O98      1.0000 0.26593  0.38870  0.58538  Biso   1.000  O
  O99      1.0000 0.22960  0.46630  0.50150  Biso   1.000  O
  O100     1.0000 0.58022  0.60604  0.05964  Biso   1.000  O
  O101     1.0000 0.65707  0.55363  0.08505  Biso   1.000  O
  O102     1.0000 0.63856  0.37251  0.92420  Biso   1.000  O
  O103     1.0000 0.55570  0.33060  0.85040  Biso   1.000  O
  O104     1.0000 0.42146  0.49919  0.83199  Biso   1.000  O
  O105     1.0000 0.24666  0.18703  0.23491  Biso   1.000  O
  O106     1.0000 0.16713  0.24018  0.19891  Biso   1.000  O
  O107     1.0000 0.23110  0.22946  0.37600  Biso   1.000  O
  O108     1.0000 0.24860  0.31360  0.45120  Biso   1.000  O
  O109     1.0000 0.28842  0.34429  0.92341  Biso   1.000  O
  O110     1.0000 0.36804  0.29324  0.95645  Biso   1.000  O
  O111     1.0000 0.44530  0.15150  0.18820  Biso   1.000  O
  O112     1.0000 0.40640  0.14760  0.26370  Biso   1.000  O
  O113     1.0000 0.25095  0.30456  0.14439  Biso   1.000  O
  O114     1.0000 0.35600  0.24760  0.59670  Biso   1.000  O
  Cu19     1.0000 0.12088  0.82665  0.63109  Biso   1.000  Cu
  Cu20     1.0000 0.21369  0.88822  0.66528  Biso   1.000  Cu
  Cu21     1.0000 0.18976  0.81797  0.91258  Biso   1.000  Cu
  K7       1.0000 0.08638  0.75682  0.81557  Biso   1.000  K
  C193     1.0000 0.10523  0.00660  0.75180  Biso   1.000  C
  C194     1.0000 0.15084  0.96990  0.79790  Biso   1.000  C
  C195     1.0000 0.18410  0.98280  0.88000  Biso   1.000  C
  C196     1.0000 0.16940  0.03310  0.91280  Biso   1.000  C
  H73      1.0000 0.19190  0.04310  0.96690  Biso   1.000  H
  C197     1.0000 0.12200  0.06690  0.86440  Biso   1.000  C
  H74      1.0000 0.11190  0.09920  0.88630  Biso   1.000  H
  C198     1.0000 0.08840  0.05350  0.78250  Biso   1.000  C
  H75      1.0000 0.05560  0.07570  0.74990  Biso   1.000  H
  C199     1.0000 0.02127  0.98920  0.62680  Biso   1.000  C
  C200     1.0000 0.99810  0.93790  0.64230  Biso   1.000  C
  H76      1.0000 0.02080  0.91140  0.68450  Biso   1.000  H
  C201     1.0000 0.94030  0.92620  0.59400  Biso   1.000  C
  C202     1.0000 0.90720  0.96700  0.53160  Biso   1.000  C
  H77      1.0000 0.86860  0.96020  0.49960  Biso   1.000  H
  C203     1.0000 0.93170  0.01784  0.51720  Biso   1.000  C
  C204     1.0000 0.98825  0.02880  0.56490  Biso   1.000  C
  H78      1.0000 0.00430  0.06310  0.55530  Biso   1.000  H
  C205     1.0000 0.16488  0.92140  0.75540  Biso   1.000  C
  C206     1.0000 0.23330  0.94370  0.93510  Biso   1.000  C
  C207     1.0000 0.89484  0.06240  0.45200  Biso   1.000  C
  C208     1.0000 0.91400  0.87180  0.60880  Biso   1.000  C
  C209     1.0000 0.23040  0.82520  0.27760  Biso   1.000  C
  C210     1.0000 0.24670  0.79200  0.23130  Biso   1.000  C
  C211     1.0000 0.23410  0.81630  0.15590  Biso   1.000  C
  C212     1.0000 0.20500  0.87170  0.13100  Biso   1.000  C
  H79      1.0000 0.19620  0.88790  0.08120  Biso   1.000  H
  C213     1.0000 0.18880  0.90400  0.17810  Biso   1.000  C
  H80      1.0000 0.16920  0.94100  0.15980  Biso   1.000  H
  C214     1.0000 0.20170  0.88080  0.25230  Biso   1.000  C
  H81      1.0000 0.19140  0.90210  0.28460  Biso   1.000  H
  C215     1.0000 0.20800  0.78430  0.37110  Biso   1.000  C
  C216     1.0000 0.16780  0.74100  0.32240  Biso   1.000  C
  H82      1.0000 0.16620  0.72740  0.27550  Biso   1.000  H
  C217     1.0000 0.13120  0.71860  0.34290  Biso   1.000  C
  C218     1.0000 0.13230  0.73970  0.41300  Biso   1.000  C
  H83      1.0000 0.10670  0.72440  0.42670  Biso   1.000  H
  C219     1.0000 0.17100  0.78260  0.45990  Biso   1.000  C
  C220     1.0000 0.20960  0.80530  0.43980  Biso   1.000  C
  H84      1.0000 0.23630  0.83450  0.47240  Biso   1.000  H
  C221     1.0000 0.28030  0.73530  0.26700  Biso   1.000  C
  C222     1.0000 0.25200  0.78430  0.10500  Biso   1.000  C
  C223     1.0000 0.17240  0.80840  0.53290  Biso   1.000  C
  C224     1.0000 0.09100  0.67040  0.29280  Biso   1.000  C
  O115     1.0000 0.13122  0.87649  0.72513  Biso   1.000  O
  O116     1.0000 0.20637  0.93257  0.74732  Biso   1.000  O
  O117     1.0000 0.23407  0.88870  0.91462  Biso   1.000  O
  O118     1.0000 0.27040  0.96630  0.99850  Biso   1.000  O
  O119     1.0000 0.91978  0.10604  0.44036  Biso   1.000  O
  O120     1.0000 0.84293  0.05363  0.41495  Biso   1.000  O
  O121     1.0000 0.86144  0.87251  0.57580  Biso   1.000  O
  O122     1.0000 0.94430  0.83060  0.64960  Biso   1.000  O
  O123     1.0000 0.07854  0.99919  0.66801  Biso   1.000  O
  O124     1.0000 0.25334  0.68703  0.26509  Biso   1.000  O
  O125     1.0000 0.33287  0.74018  0.30109  Biso   1.000  O
  O126     1.0000 0.26890  0.72946  0.12400  Biso   1.000  O
  O127     1.0000 0.25140  0.81360  0.04880  Biso   1.000  O
  O128     1.0000 0.21158  0.84429  0.57659  Biso   1.000  O
  O129     1.0000 0.13196  0.79324  0.54355  Biso   1.000  O
  O130     1.0000 0.05470  0.65150  0.31180  Biso   1.000  O
  O131     1.0000 0.09360  0.64760  0.23630  Biso   1.000  O
  O132     1.0000 0.24905  0.80456  0.35561  Biso   1.000  O
  O133     1.0000 0.14400  0.74760  0.90330  Biso   1.000  O
  Cu22     1.0000 0.62088  0.32665  0.63109  Biso   1.000  Cu
  Cu23     1.0000 0.71369  0.38822  0.66528  Biso   1.000  Cu
  Cu24     1.0000 0.68976  0.31797  0.91258  Biso   1.000  Cu
  K8       1.0000 0.58638  0.25682  0.81557  Biso   1.000  K
  C225     1.0000 0.60523  0.50660  0.75180  Biso   1.000  C
  C226     1.0000 0.65084  0.46990  0.79790  Biso   1.000  C
  C227     1.0000 0.68410  0.48280  0.88000  Biso   1.000  C
  C228     1.0000 0.66940  0.53310  0.91280  Biso   1.000  C
  H85      1.0000 0.69190  0.54310  0.96690  Biso   1.000  H
  C229     1.0000 0.62200  0.56690  0.86440  Biso   1.000  C
  H86      1.0000 0.61190  0.59920  0.88630  Biso   1.000  H
  C230     1.0000 0.58840  0.55350  0.78250  Biso   1.000  C
  H87      1.0000 0.55560  0.57570  0.74990  Biso   1.000  H
  C231     1.0000 0.52127  0.48920  0.62680  Biso   1.000  C
  C232     1.0000 0.49810  0.43790  0.64230  Biso   1.000  C
  H88      1.0000 0.52080  0.41140  0.68450  Biso   1.000  H
  C233     1.0000 0.44030  0.42620  0.59400  Biso   1.000  C
  C234     1.0000 0.40720  0.46700  0.53160  Biso   1.000  C
  H89      1.0000 0.36860  0.46020  0.49960  Biso   1.000  H
  C235     1.0000 0.43170  0.51784  0.51720  Biso   1.000  C
  C236     1.0000 0.48825  0.52880  0.56490  Biso   1.000  C
  H90      1.0000 0.50430  0.56310  0.55530  Biso   1.000  H
  C237     1.0000 0.66488  0.42140  0.75540  Biso   1.000  C
  C238     1.0000 0.73330  0.44370  0.93510  Biso   1.000  C
  C239     1.0000 0.39484  0.56240  0.45200  Biso   1.000  C
  C240     1.0000 0.41400  0.37180  0.60880  Biso   1.000  C
  C241     1.0000 0.73040  0.32520  0.27760  Biso   1.000  C
  C242     1.0000 0.74670  0.29200  0.23130  Biso   1.000  C
  C243     1.0000 0.73410  0.31630  0.15590  Biso   1.000  C
  C244     1.0000 0.70500  0.37170  0.13100  Biso   1.000  C
  H91      1.0000 0.69620  0.38790  0.08120  Biso   1.000  H
  C245     1.0000 0.68880  0.40400  0.17810  Biso   1.000  C
  H92      1.0000 0.66920  0.44100  0.15980  Biso   1.000  H
  C246     1.0000 0.70170  0.38080  0.25230  Biso   1.000  C
  H93      1.0000 0.69140  0.40210  0.28460  Biso   1.000  H
  C247     1.0000 0.70800  0.28430  0.37110  Biso   1.000  C
  C248     1.0000 0.66780  0.24100  0.32240  Biso   1.000  C
  H94      1.0000 0.66620  0.22740  0.27550  Biso   1.000  H
  C249     1.0000 0.63120  0.21860  0.34290  Biso   1.000  C
  C250     1.0000 0.63230  0.23970  0.41300  Biso   1.000  C
  H95      1.0000 0.60670  0.22440  0.42670  Biso   1.000  H
  C251     1.0000 0.67100  0.28260  0.45990  Biso   1.000  C
  C252     1.0000 0.70960  0.30530  0.43980  Biso   1.000  C
  H96      1.0000 0.73630  0.33450  0.47240  Biso   1.000  H
  C253     1.0000 0.78030  0.23530  0.26700  Biso   1.000  C
  C254     1.0000 0.75200  0.28430  0.10500  Biso   1.000  C
  C255     1.0000 0.67240  0.30840  0.53290  Biso   1.000  C
  C256     1.0000 0.59100  0.17040  0.29280  Biso   1.000  C
  O134     1.0000 0.63122  0.37649  0.72513  Biso   1.000  O
  O135     1.0000 0.70637  0.43257  0.74732  Biso   1.000  O
  O136     1.0000 0.73407  0.38870  0.91462  Biso   1.000  O
  O137     1.0000 0.77040  0.46630  0.99850  Biso   1.000  O
  O138     1.0000 0.41978  0.60604  0.44036  Biso   1.000  O
  O139     1.0000 0.34293  0.55363  0.41495  Biso   1.000  O
  O140     1.0000 0.36144  0.37251  0.57580  Biso   1.000  O
  O141     1.0000 0.44430  0.33060  0.64960  Biso   1.000  O
  O142     1.0000 0.57854  0.49919  0.66801  Biso   1.000  O
  O143     1.0000 0.75334  0.18703  0.26509  Biso   1.000  O
  O144     1.0000 0.83287  0.24018  0.30109  Biso   1.000  O
  O145     1.0000 0.76890  0.22946  0.12400  Biso   1.000  O
  O146     1.0000 0.75140  0.31360  0.04880  Biso   1.000  O
  O147     1.0000 0.71158  0.34429  0.57659  Biso   1.000  O
  O148     1.0000 0.63196  0.29324  0.54355  Biso   1.000  O
  O149     1.0000 0.55470  0.15150  0.31180  Biso   1.000  O
  O150     1.0000 0.59360  0.14760  0.23630  Biso   1.000  O
  O151     1.0000 0.74905  0.30456  0.35561  Biso   1.000  O
  O152     1.0000 0.64400  0.24760  0.90330  Biso   1.000  O
  Cu25     1.0000 0.00000  0.41027  0.75000  Biso   1.000  Cu
  Cu26     1.0000 0.50000  0.91027  0.75000  Biso   1.000  Cu
  Cu27     1.0000 0.00000  0.58973  0.25000  Biso   1.000  Cu
  Cu28     1.0000 0.50000  0.08973  0.25000  Biso   1.000  Cu
