data_image0
_cell_length_a       10.788
_cell_length_b       11.252
_cell_length_c       11.84
_cell_angle_alpha    100.854
_cell_angle_beta     110.289
_cell_angle_gamma    99.777

_symmetry_space_group_name_H-M    "P 1"
_symmetry_int_tables_number       1

loop_
  _symmetry_equiv_pos_as_xyz
  'x, y, z'

loop_
  _atom_site_label
  _atom_site_occupancy
  _atom_site_fract_x
  _atom_site_fract_y
  _atom_site_fract_z
  _atom_site_thermal_displace_type
  _atom_site_B_iso_or_equiv
  _atom_site_type_symbol
  Cu1      1.0000 0.64293  0.50999  0.01128  Biso   1.000  Cu
  Cu2      1.0000 0.56086  0.38500  0.21096  Biso   1.000  Cu
  C1       1.0000 0.12480  0.07370  0.43170  Biso   1.000  C
  C2       1.0000 0.18220  0.18820  0.51830  Biso   1.000  C
  H1       1.0000 0.16500  0.26030  0.49550  Biso   1.000  H
  C3       1.0000 0.26680  0.19590  0.64090  Biso   1.000  C
  C4       1.0000 0.29420  0.08640  0.67400  Biso   1.000  C
  C5       1.0000 0.23440  0.97260  0.58420  Biso   1.000  C
  H2       1.0000 0.25230  0.90000  0.60570  Biso   1.000  H
  C6       1.0000 0.14800  0.96400  0.46210  Biso   1.000  C
  C7       1.0000 0.03880  0.16360  0.26160  Biso   1.000  C
  C8       1.0000 0.15080  0.21270  0.23840  Biso   1.000  C
  H3       1.0000 0.22870  0.18300  0.26270  Biso   1.000  H
  C9       1.0000 0.14500  0.30710  0.17800  Biso   1.000  C
  C10      1.0000 0.02910  0.35190  0.14260  Biso   1.000  C
  H4       1.0000 0.02470  0.41350  0.09990  Biso   1.000  H
  C11      1.0000 0.91880  0.30390  0.17130  Biso   1.000  C
  C12      1.0000 0.92320  0.20790  0.23100  Biso   1.000  C
  H5       1.0000 0.85000  0.17460  0.24970  Biso   1.000  H
  C13      1.0000 0.31570  0.32440  0.73270  Biso   1.000  C
  C14      1.0000 0.38980  0.09130  0.80320  Biso   1.000  C
  C15      1.0000 0.79670  0.35790  0.14220  Biso   1.000  C
  C16      1.0000 0.26610  0.36020  0.15080  Biso   1.000  C
  O1       1.0000 0.39750  0.40700  0.71830  Biso   1.000  O
  O2       1.0000 0.26263  0.34026  0.81155  Biso   1.000  O
  O3       1.0000 0.47120  0.19050  0.87551  Biso   1.000  O
  O4       1.0000 0.38440  0.98636  0.83034  Biso   1.000  O
  O5       1.0000 0.72980  0.34640  0.20894  Biso   1.000  O
  O6       1.0000 0.77411  0.41116  0.05582  Biso   1.000  O
  O7       1.0000 0.24508  0.42200  0.07079  Biso   1.000  O
  O8       1.0000 0.37760  0.33920  0.21032  Biso   1.000  O
  O9       1.0000 0.03590  0.05865  0.31010  Biso   1.000  O
  O10      1.0000 0.49959  0.39988  0.04148  Biso   1.000  O
  Cu3      1.0000 0.35707  0.49001  0.98872  Biso   1.000  Cu
  Cu4      1.0000 0.43914  0.61500  0.78904  Biso   1.000  Cu
  C17      1.0000 0.87520  0.92630  0.56830  Biso   1.000  C
  C18      1.0000 0.81780  0.81180  0.48170  Biso   1.000  C
  H6       1.0000 0.83500  0.73970  0.50450  Biso   1.000  H
  C19      1.0000 0.73320  0.80410  0.35910  Biso   1.000  C
  C20      1.0000 0.70580  0.91360  0.32600  Biso   1.000  C
  C21      1.0000 0.76560  0.02740  0.41580  Biso   1.000  C
  H7       1.0000 0.74770  0.10000  0.39430  Biso   1.000  H
  C22      1.0000 0.85200  0.03600  0.53790  Biso   1.000  C
  C23      1.0000 0.96120  0.83640  0.73840  Biso   1.000  C
  C24      1.0000 0.84920  0.78730  0.76160  Biso   1.000  C
  H8       1.0000 0.77130  0.81700  0.73730  Biso   1.000  H
  C25      1.0000 0.85500  0.69290  0.82200  Biso   1.000  C
  C26      1.0000 0.97090  0.64810  0.85740  Biso   1.000  C
  H9       1.0000 0.97530  0.58650  0.90010  Biso   1.000  H
  C27      1.0000 0.08120  0.69610  0.82870  Biso   1.000  C
  C28      1.0000 0.07680  0.79210  0.76900  Biso   1.000  C
  H10      1.0000 0.15000  0.82540  0.75030  Biso   1.000  H
  C29      1.0000 0.68430  0.67560  0.26730  Biso   1.000  C
  C30      1.0000 0.61020  0.90870  0.19680  Biso   1.000  C
  C31      1.0000 0.20330  0.64210  0.85780  Biso   1.000  C
  C32      1.0000 0.73390  0.63980  0.84920  Biso   1.000  C
  O11      1.0000 0.60250  0.59300  0.28170  Biso   1.000  O
  O12      1.0000 0.73737  0.65974  0.18845  Biso   1.000  O
  O13      1.0000 0.52880  0.80950  0.12449  Biso   1.000  O
  O14      1.0000 0.61560  0.01364  0.16966  Biso   1.000  O
  O15      1.0000 0.27020  0.65360  0.79106  Biso   1.000  O
  O16      1.0000 0.22589  0.58884  0.94418  Biso   1.000  O
  O17      1.0000 0.75492  0.57800  0.92921  Biso   1.000  O
  O18      1.0000 0.62240  0.66080  0.78968  Biso   1.000  O
  O19      1.0000 0.96410  0.94135  0.68990  Biso   1.000  O
  O20      1.0000 0.50041  0.60012  0.95852  Biso   1.000  O
  Cu5      1.0000 0.50000  0.00000  0.00000  Biso   1.000  Cu
