data_image0
_cell_length_a       12.3214
_cell_length_b       12.3214
_cell_length_c       26.0026
_cell_angle_alpha    90
_cell_angle_beta     90
_cell_angle_gamma    90

_symmetry_space_group_name_H-M    "P 1"
_symmetry_int_tables_number       1

loop_
  _symmetry_equiv_pos_as_xyz
  'x, y, z'

loop_
  _atom_site_label
  _atom_site_occupancy
  _atom_site_fract_x
  _atom_site_fract_y
  _atom_site_fract_z
  _atom_site_thermal_displace_type
  _atom_site_B_iso_or_equiv
  _atom_site_type_symbol
  Co1      1.0000 0.19367  0.29859  0.31598  Biso   1.000  Co
  C1       1.0000 0.17660  0.38190  0.40440  Biso   1.000  C
  C2       1.0000 0.17040  0.44200  0.45400  Biso   1.000  C
  C3       1.0000 0.16100  0.55590  0.45440  Biso   1.000  C
  H1       1.0000 0.15780  0.59490  0.42380  Biso   1.000  H
  C4       1.0000 0.29570  0.01130  0.25370  Biso   1.000  C
  H2       1.0000 0.31740  0.96950  0.22580  Biso   1.000  H
  C5       1.0000 0.24970  0.05800  0.32790  Biso   1.000  C
  N1       1.0000 0.24600  0.14770  0.29954  Biso   1.000  N
  N2       1.0000 0.28140  0.97020  0.30100  Biso   1.000  N
  N3       1.0000 0.22140  0.05490  0.37870  Biso   1.000  N
  H3       1.0000 0.19980  0.11310  0.39390  Biso   1.000  H
  H4       1.0000 0.22520  0.99490  0.39550  Biso   1.000  H
  N4       1.0000 0.27630  0.11580  0.25042  Biso   1.000  N
  O1       1.0000 0.16890  0.28120  0.40350  Biso   1.000  O
  O2       1.0000 0.18880  0.43650  0.36294  Biso   1.000  O
  Co2      1.0000 0.69367  0.79859  0.81598  Biso   1.000  Co
  C6       1.0000 0.67660  0.88190  0.90440  Biso   1.000  C
  C7       1.0000 0.67040  0.94200  0.95400  Biso   1.000  C
  C8       1.0000 0.66100  0.05590  0.95440  Biso   1.000  C
  H5       1.0000 0.65780  0.09490  0.92380  Biso   1.000  H
  C9       1.0000 0.79570  0.51130  0.75370  Biso   1.000  C
  H6       1.0000 0.81740  0.46950  0.72580  Biso   1.000  H
  C10      1.0000 0.74970  0.55800  0.82790  Biso   1.000  C
  N5       1.0000 0.74600  0.64770  0.79954  Biso   1.000  N
  N6       1.0000 0.78140  0.47020  0.80100  Biso   1.000  N
  N7       1.0000 0.72140  0.55490  0.87870  Biso   1.000  N
  H7       1.0000 0.69980  0.61310  0.89390  Biso   1.000  H
  H8       1.0000 0.72520  0.49490  0.89550  Biso   1.000  H
  N8       1.0000 0.77630  0.61580  0.75042  Biso   1.000  N
  O3       1.0000 0.66890  0.78120  0.90350  Biso   1.000  O
  O4       1.0000 0.68880  0.93650  0.86294  Biso   1.000  O
  Co3      1.0000 0.80633  0.70141  0.31598  Biso   1.000  Co
  C11      1.0000 0.82340  0.61810  0.40440  Biso   1.000  C
  C12      1.0000 0.82960  0.55800  0.45400  Biso   1.000  C
  C13      1.0000 0.83900  0.44410  0.45440  Biso   1.000  C
  H9       1.0000 0.84220  0.40510  0.42380  Biso   1.000  H
  C14      1.0000 0.70430  0.98870  0.25370  Biso   1.000  C
  H10      1.0000 0.68260  0.03050  0.22580  Biso   1.000  H
  C15      1.0000 0.75030  0.94200  0.32790  Biso   1.000  C
  N9       1.0000 0.75400  0.85230  0.29954  Biso   1.000  N
  N10      1.0000 0.71860  0.02980  0.30100  Biso   1.000  N
  N11      1.0000 0.77860  0.94510  0.37870  Biso   1.000  N
  H11      1.0000 0.80020  0.88690  0.39390  Biso   1.000  H
  H12      1.0000 0.77480  0.00510  0.39550  Biso   1.000  H
  N12      1.0000 0.72370  0.88420  0.25042  Biso   1.000  N
  O5       1.0000 0.83110  0.71880  0.40350  Biso   1.000  O
  O6       1.0000 0.81120  0.56350  0.36294  Biso   1.000  O
  Co4      1.0000 0.30633  0.20141  0.81598  Biso   1.000  Co
  C16      1.0000 0.32340  0.11810  0.90440  Biso   1.000  C
  C17      1.0000 0.32960  0.05800  0.95400  Biso   1.000  C
  C18      1.0000 0.33900  0.94410  0.95440  Biso   1.000  C
  H13      1.0000 0.34220  0.90510  0.92380  Biso   1.000  H
  C19      1.0000 0.20430  0.48870  0.75370  Biso   1.000  C
  H14      1.0000 0.18260  0.53050  0.72580  Biso   1.000  H
  C20      1.0000 0.25030  0.44200  0.82790  Biso   1.000  C
  N13      1.0000 0.25400  0.35230  0.79954  Biso   1.000  N
  N14      1.0000 0.21860  0.52980  0.80100  Biso   1.000  N
  N15      1.0000 0.27860  0.44510  0.87870  Biso   1.000  N
  H15      1.0000 0.30020  0.38690  0.89390  Biso   1.000  H
  H16      1.0000 0.27480  0.50510  0.89550  Biso   1.000  H
  N16      1.0000 0.22370  0.38420  0.75042  Biso   1.000  N
  O7       1.0000 0.33110  0.21880  0.90350  Biso   1.000  O
  O8       1.0000 0.31120  0.06350  0.86294  Biso   1.000  O
  Co5      1.0000 0.70141  0.19367  0.31598  Biso   1.000  Co
  C21      1.0000 0.61810  0.17660  0.40440  Biso   1.000  C
  C22      1.0000 0.55800  0.17040  0.45400  Biso   1.000  C
  C23      1.0000 0.44410  0.16100  0.45440  Biso   1.000  C
  H17      1.0000 0.40510  0.15780  0.42380  Biso   1.000  H
  C24      1.0000 0.98870  0.29570  0.25370  Biso   1.000  C
  H18      1.0000 0.03050  0.31740  0.22580  Biso   1.000  H
  C25      1.0000 0.94200  0.24970  0.32790  Biso   1.000  C
  N17      1.0000 0.85230  0.24600  0.29954  Biso   1.000  N
  N18      1.0000 0.02980  0.28140  0.30100  Biso   1.000  N
  N19      1.0000 0.94510  0.22140  0.37870  Biso   1.000  N
  H19      1.0000 0.88690  0.19980  0.39390  Biso   1.000  H
  H20      1.0000 0.00510  0.22520  0.39550  Biso   1.000  H
  N20      1.0000 0.88420  0.27630  0.25042  Biso   1.000  N
  O9       1.0000 0.71880  0.16890  0.40350  Biso   1.000  O
  O10      1.0000 0.56350  0.18880  0.36294  Biso   1.000  O
  Co6      1.0000 0.20141  0.69367  0.81598  Biso   1.000  Co
  C26      1.0000 0.11810  0.67660  0.90440  Biso   1.000  C
  C27      1.0000 0.05800  0.67040  0.95400  Biso   1.000  C
  C28      1.0000 0.94410  0.66100  0.95440  Biso   1.000  C
  H21      1.0000 0.90510  0.65780  0.92380  Biso   1.000  H
  C29      1.0000 0.48870  0.79570  0.75370  Biso   1.000  C
  H22      1.0000 0.53050  0.81740  0.72580  Biso   1.000  H
  C30      1.0000 0.44200  0.74970  0.82790  Biso   1.000  C
  N21      1.0000 0.35230  0.74600  0.79954  Biso   1.000  N
  N22      1.0000 0.52980  0.78140  0.80100  Biso   1.000  N
  N23      1.0000 0.44510  0.72140  0.87870  Biso   1.000  N
  H23      1.0000 0.38690  0.69980  0.89390  Biso   1.000  H
  H24      1.0000 0.50510  0.72520  0.89550  Biso   1.000  H
  N24      1.0000 0.38420  0.77630  0.75042  Biso   1.000  N
  O11      1.0000 0.21880  0.66890  0.90350  Biso   1.000  O
  O12      1.0000 0.06350  0.68880  0.86294  Biso   1.000  O
  Co7      1.0000 0.29859  0.80633  0.31598  Biso   1.000  Co
  C31      1.0000 0.38190  0.82340  0.40440  Biso   1.000  C
  C32      1.0000 0.44200  0.82960  0.45400  Biso   1.000  C
  C33      1.0000 0.55590  0.83900  0.45440  Biso   1.000  C
  H25      1.0000 0.59490  0.84220  0.42380  Biso   1.000  H
  C34      1.0000 0.01130  0.70430  0.25370  Biso   1.000  C
  H26      1.0000 0.96950  0.68260  0.22580  Biso   1.000  H
  C35      1.0000 0.05800  0.75030  0.32790  Biso   1.000  C
  N25      1.0000 0.14770  0.75400  0.29954  Biso   1.000  N
  N26      1.0000 0.97020  0.71860  0.30100  Biso   1.000  N
  N27      1.0000 0.05490  0.77860  0.37870  Biso   1.000  N
  H27      1.0000 0.11310  0.80020  0.39390  Biso   1.000  H
  H28      1.0000 0.99490  0.77480  0.39550  Biso   1.000  H
  N28      1.0000 0.11580  0.72370  0.25042  Biso   1.000  N
  O13      1.0000 0.28120  0.83110  0.40350  Biso   1.000  O
  O14      1.0000 0.43650  0.81120  0.36294  Biso   1.000  O
  Co8      1.0000 0.79859  0.30633  0.81598  Biso   1.000  Co
  C36      1.0000 0.88190  0.32340  0.90440  Biso   1.000  C
  C37      1.0000 0.94200  0.32960  0.95400  Biso   1.000  C
  C38      1.0000 0.05590  0.33900  0.95440  Biso   1.000  C
  H29      1.0000 0.09490  0.34220  0.92380  Biso   1.000  H
  C39      1.0000 0.51130  0.20430  0.75370  Biso   1.000  C
  H30      1.0000 0.46950  0.18260  0.72580  Biso   1.000  H
  C40      1.0000 0.55800  0.25030  0.82790  Biso   1.000  C
  N29      1.0000 0.64770  0.25400  0.79954  Biso   1.000  N
  N30      1.0000 0.47020  0.21860  0.80100  Biso   1.000  N
  N31      1.0000 0.55490  0.27860  0.87870  Biso   1.000  N
  H31      1.0000 0.61310  0.30020  0.89390  Biso   1.000  H
  H32      1.0000 0.49490  0.27480  0.89550  Biso   1.000  H
  N32      1.0000 0.61580  0.22370  0.75042  Biso   1.000  N
  O15      1.0000 0.78120  0.33110  0.90350  Biso   1.000  O
  O16      1.0000 0.93650  0.31120  0.86294  Biso   1.000  O
  Co9      1.0000 0.80633  0.70141  0.68402  Biso   1.000  Co
  C41      1.0000 0.82340  0.61810  0.59560  Biso   1.000  C
  C42      1.0000 0.82960  0.55800  0.54600  Biso   1.000  C
  C43      1.0000 0.83900  0.44410  0.54560  Biso   1.000  C
  H33      1.0000 0.84220  0.40510  0.57620  Biso   1.000  H
  C44      1.0000 0.70430  0.98870  0.74630  Biso   1.000  C
  H34      1.0000 0.68260  0.03050  0.77420  Biso   1.000  H
  C45      1.0000 0.75030  0.94200  0.67210  Biso   1.000  C
  N33      1.0000 0.75400  0.85230  0.70046  Biso   1.000  N
  N34      1.0000 0.71860  0.02980  0.69900  Biso   1.000  N
  N35      1.0000 0.77860  0.94510  0.62130  Biso   1.000  N
  H35      1.0000 0.80020  0.88690  0.60610  Biso   1.000  H
  H36      1.0000 0.77480  0.00510  0.60450  Biso   1.000  H
  N36      1.0000 0.72370  0.88420  0.74958  Biso   1.000  N
  O17      1.0000 0.83110  0.71880  0.59650  Biso   1.000  O
  O18      1.0000 0.81120  0.56350  0.63706  Biso   1.000  O
  Co10     1.0000 0.30633  0.20141  0.18402  Biso   1.000  Co
  C46      1.0000 0.32340  0.11810  0.09560  Biso   1.000  C
  C47      1.0000 0.32960  0.05800  0.04600  Biso   1.000  C
  C48      1.0000 0.33900  0.94410  0.04560  Biso   1.000  C
  H37      1.0000 0.34220  0.90510  0.07620  Biso   1.000  H
  C49      1.0000 0.20430  0.48870  0.24630  Biso   1.000  C
  H38      1.0000 0.18260  0.53050  0.27420  Biso   1.000  H
  C50      1.0000 0.25030  0.44200  0.17210  Biso   1.000  C
  N37      1.0000 0.25400  0.35230  0.20046  Biso   1.000  N
  N38      1.0000 0.21860  0.52980  0.19900  Biso   1.000  N
  N39      1.0000 0.27860  0.44510  0.12130  Biso   1.000  N
  H39      1.0000 0.30020  0.38690  0.10610  Biso   1.000  H
  H40      1.0000 0.27480  0.50510  0.10450  Biso   1.000  H
  N40      1.0000 0.22370  0.38420  0.24958  Biso   1.000  N
  O19      1.0000 0.33110  0.21880  0.09650  Biso   1.000  O
  O20      1.0000 0.31120  0.06350  0.13706  Biso   1.000  O
  Co11     1.0000 0.19367  0.29859  0.68402  Biso   1.000  Co
  C51      1.0000 0.17660  0.38190  0.59560  Biso   1.000  C
  C52      1.0000 0.17040  0.44200  0.54600  Biso   1.000  C
  C53      1.0000 0.16100  0.55590  0.54560  Biso   1.000  C
  H41      1.0000 0.15780  0.59490  0.57620  Biso   1.000  H
  C54      1.0000 0.29570  0.01130  0.74630  Biso   1.000  C
  H42      1.0000 0.31740  0.96950  0.77420  Biso   1.000  H
  C55      1.0000 0.24970  0.05800  0.67210  Biso   1.000  C
  N41      1.0000 0.24600  0.14770  0.70046  Biso   1.000  N
  N42      1.0000 0.28140  0.97020  0.69900  Biso   1.000  N
  N43      1.0000 0.22140  0.05490  0.62130  Biso   1.000  N
  H43      1.0000 0.19980  0.11310  0.60610  Biso   1.000  H
  H44      1.0000 0.22520  0.99490  0.60450  Biso   1.000  H
  N44      1.0000 0.27630  0.11580  0.74958  Biso   1.000  N
  O21      1.0000 0.16890  0.28120  0.59650  Biso   1.000  O
  O22      1.0000 0.18880  0.43650  0.63706  Biso   1.000  O
  Co12     1.0000 0.69367  0.79859  0.18402  Biso   1.000  Co
  C56      1.0000 0.67660  0.88190  0.09560  Biso   1.000  C
  C57      1.0000 0.67040  0.94200  0.04600  Biso   1.000  C
  C58      1.0000 0.66100  0.05590  0.04560  Biso   1.000  C
  H45      1.0000 0.65780  0.09490  0.07620  Biso   1.000  H
  C59      1.0000 0.79570  0.51130  0.24630  Biso   1.000  C
  H46      1.0000 0.81740  0.46950  0.27420  Biso   1.000  H
  C60      1.0000 0.74970  0.55800  0.17210  Biso   1.000  C
  N45      1.0000 0.74600  0.64770  0.20046  Biso   1.000  N
  N46      1.0000 0.78140  0.47020  0.19900  Biso   1.000  N
  N47      1.0000 0.72140  0.55490  0.12130  Biso   1.000  N
  H47      1.0000 0.69980  0.61310  0.10610  Biso   1.000  H
  H48      1.0000 0.72520  0.49490  0.10450  Biso   1.000  H
  N48      1.0000 0.77630  0.61580  0.24958  Biso   1.000  N
  O23      1.0000 0.66890  0.78120  0.09650  Biso   1.000  O
  O24      1.0000 0.68880  0.93650  0.13706  Biso   1.000  O
  Co13     1.0000 0.29859  0.80633  0.68402  Biso   1.000  Co
  C61      1.0000 0.38190  0.82340  0.59560  Biso   1.000  C
  C62      1.0000 0.44200  0.82960  0.54600  Biso   1.000  C
  C63      1.0000 0.55590  0.83900  0.54560  Biso   1.000  C
  H49      1.0000 0.59490  0.84220  0.57620  Biso   1.000  H
  C64      1.0000 0.01130  0.70430  0.74630  Biso   1.000  C
  H50      1.0000 0.96950  0.68260  0.77420  Biso   1.000  H
  C65      1.0000 0.05800  0.75030  0.67210  Biso   1.000  C
  N49      1.0000 0.14770  0.75400  0.70046  Biso   1.000  N
  N50      1.0000 0.97020  0.71860  0.69900  Biso   1.000  N
  N51      1.0000 0.05490  0.77860  0.62130  Biso   1.000  N
  H51      1.0000 0.11310  0.80020  0.60610  Biso   1.000  H
  H52      1.0000 0.99490  0.77480  0.60450  Biso   1.000  H
  N52      1.0000 0.11580  0.72370  0.74958  Biso   1.000  N
  O25      1.0000 0.28120  0.83110  0.59650  Biso   1.000  O
  O26      1.0000 0.43650  0.81120  0.63706  Biso   1.000  O
  Co14     1.0000 0.79859  0.30633  0.18402  Biso   1.000  Co
  C66      1.0000 0.88190  0.32340  0.09560  Biso   1.000  C
  C67      1.0000 0.94200  0.32960  0.04600  Biso   1.000  C
  C68      1.0000 0.05590  0.33900  0.04560  Biso   1.000  C
  H53      1.0000 0.09490  0.34220  0.07620  Biso   1.000  H
  C69      1.0000 0.51130  0.20430  0.24630  Biso   1.000  C
  H54      1.0000 0.46950  0.18260  0.27420  Biso   1.000  H
  C70      1.0000 0.55800  0.25030  0.17210  Biso   1.000  C
  N53      1.0000 0.64770  0.25400  0.20046  Biso   1.000  N
  N54      1.0000 0.47020  0.21860  0.19900  Biso   1.000  N
  N55      1.0000 0.55490  0.27860  0.12130  Biso   1.000  N
  H55      1.0000 0.61310  0.30020  0.10610  Biso   1.000  H
  H56      1.0000 0.49490  0.27480  0.10450  Biso   1.000  H
  N56      1.0000 0.61580  0.22370  0.24958  Biso   1.000  N
  O27      1.0000 0.78120  0.33110  0.09650  Biso   1.000  O
  O28      1.0000 0.93650  0.31120  0.13706  Biso   1.000  O
  Co15     1.0000 0.70141  0.19367  0.68402  Biso   1.000  Co
  C71      1.0000 0.61810  0.17660  0.59560  Biso   1.000  C
  C72      1.0000 0.55800  0.17040  0.54600  Biso   1.000  C
  C73      1.0000 0.44410  0.16100  0.54560  Biso   1.000  C
  H57      1.0000 0.40510  0.15780  0.57620  Biso   1.000  H
  C74      1.0000 0.98870  0.29570  0.74630  Biso   1.000  C
  H58      1.0000 0.03050  0.31740  0.77420  Biso   1.000  H
  C75      1.0000 0.94200  0.24970  0.67210  Biso   1.000  C
  N57      1.0000 0.85230  0.24600  0.70046  Biso   1.000  N
  N58      1.0000 0.02980  0.28140  0.69900  Biso   1.000  N
  N59      1.0000 0.94510  0.22140  0.62130  Biso   1.000  N
  H59      1.0000 0.88690  0.19980  0.60610  Biso   1.000  H
  H60      1.0000 0.00510  0.22520  0.60450  Biso   1.000  H
  N60      1.0000 0.88420  0.27630  0.74958  Biso   1.000  N
  O29      1.0000 0.71880  0.16890  0.59650  Biso   1.000  O
  O30      1.0000 0.56350  0.18880  0.63706  Biso   1.000  O
  Co16     1.0000 0.20141  0.69367  0.18402  Biso   1.000  Co
  C76      1.0000 0.11810  0.67660  0.09560  Biso   1.000  C
  C77      1.0000 0.05800  0.67040  0.04600  Biso   1.000  C
  C78      1.0000 0.94410  0.66100  0.04560  Biso   1.000  C
  H61      1.0000 0.90510  0.65780  0.07620  Biso   1.000  H
  C79      1.0000 0.48870  0.79570  0.24630  Biso   1.000  C
  H62      1.0000 0.53050  0.81740  0.27420  Biso   1.000  H
  C80      1.0000 0.44200  0.74970  0.17210  Biso   1.000  C
  N61      1.0000 0.35230  0.74600  0.20046  Biso   1.000  N
  N62      1.0000 0.52980  0.78140  0.19900  Biso   1.000  N
  N63      1.0000 0.44510  0.72140  0.12130  Biso   1.000  N
  H63      1.0000 0.38690  0.69980  0.10610  Biso   1.000  H
  H64      1.0000 0.50510  0.72520  0.10450  Biso   1.000  H
  N64      1.0000 0.38420  0.77630  0.24958  Biso   1.000  N
  O31      1.0000 0.21880  0.66890  0.09650  Biso   1.000  O
  O32      1.0000 0.06350  0.68880  0.13706  Biso   1.000  O
  C81      1.0000 0.17240  0.38580  0.50000  Biso   1.000  C
  H65      1.0000 0.17520  0.31040  0.50000  Biso   1.000  H
  C82      1.0000 0.15660  0.60690  0.50000  Biso   1.000  C
  H66      1.0000 0.15020  0.68210  0.50000  Biso   1.000  H
  C83      1.0000 0.67240  0.88580  0.00000  Biso   1.000  C
  H67      1.0000 0.67520  0.81040  0.00000  Biso   1.000  H
  C84      1.0000 0.65660  0.10690  0.00000  Biso   1.000  C
  H68      1.0000 0.65020  0.18210  0.00000  Biso   1.000  H
  C85      1.0000 0.82760  0.61420  0.50000  Biso   1.000  C
  H69      1.0000 0.82480  0.68960  0.50000  Biso   1.000  H
  C86      1.0000 0.84340  0.39310  0.50000  Biso   1.000  C
  H70      1.0000 0.84980  0.31790  0.50000  Biso   1.000  H
  C87      1.0000 0.32760  0.11420  0.00000  Biso   1.000  C
  H71      1.0000 0.32480  0.18960  0.00000  Biso   1.000  H
  C88      1.0000 0.34340  0.89310  0.00000  Biso   1.000  C
  H72      1.0000 0.34980  0.81790  0.00000  Biso   1.000  H
  C89      1.0000 0.61420  0.17240  0.50000  Biso   1.000  C
  H73      1.0000 0.68960  0.17520  0.50000  Biso   1.000  H
  C90      1.0000 0.39310  0.15660  0.50000  Biso   1.000  C
  H74      1.0000 0.31790  0.15020  0.50000  Biso   1.000  H
  C91      1.0000 0.11420  0.67240  0.00000  Biso   1.000  C
  H75      1.0000 0.18960  0.67520  0.00000  Biso   1.000  H
  C92      1.0000 0.89310  0.65660  0.00000  Biso   1.000  C
  H76      1.0000 0.81790  0.65020  0.00000  Biso   1.000  H
  C93      1.0000 0.38580  0.82760  0.50000  Biso   1.000  C
  H77      1.0000 0.31040  0.82480  0.50000  Biso   1.000  H
  C94      1.0000 0.60690  0.84340  0.50000  Biso   1.000  C
  H78      1.0000 0.68210  0.84980  0.50000  Biso   1.000  H
  C95      1.0000 0.88580  0.32760  0.00000  Biso   1.000  C
  H79      1.0000 0.81040  0.32480  0.00000  Biso   1.000  H
  C96      1.0000 0.10690  0.34340  0.00000  Biso   1.000  C
  H80      1.0000 0.18210  0.34980  0.00000  Biso   1.000  H
