data_image0
_cell_length_a       7.259
_cell_length_b       13.407
_cell_length_c       18.031
_cell_angle_alpha    90
_cell_angle_beta     90
_cell_angle_gamma    90

_symmetry_space_group_name_H-M    "P 1"
_symmetry_int_tables_number       1

loop_
  _symmetry_equiv_pos_as_xyz
  'x, y, z'

loop_
  _atom_site_label
  _atom_site_occupancy
  _atom_site_fract_x
  _atom_site_fract_y
  _atom_site_fract_z
  _atom_site_thermal_displace_type
  _atom_site_B_iso_or_equiv
  _atom_site_type_symbol
  Zn1      1.0000 0.48650  0.61494  0.20659  Biso   1.000  Zn
  Zn2      1.0000 0.49920  0.37066  0.22291  Biso   1.000  Zn
  Zn3      1.0000 0.85720  0.49846  0.41877  Biso   1.000  Zn
  Zn4      1.0000 0.05360  0.85794  0.30279  Biso   1.000  Zn
  Zn5      1.0000 0.94240  0.61190  0.18609  Biso   1.000  Zn
  P1       1.0000 0.68230  0.48040  0.09340  Biso   1.000  P
  P2       1.0000 0.73960  0.69080  0.32910  Biso   1.000  P
  P3       1.0000 0.24040  0.78870  0.15260  Biso   1.000  P
  P4       1.0000 0.18950  0.49610  0.29300  Biso   1.000  P
  O1       1.0000 0.40600  0.72090  0.14230  Biso   1.000  O
  O2       1.0000 0.53130  0.48550  0.15690  Biso   1.000  O
  O3       1.0000 0.30300  0.58930  0.28140  Biso   1.000  O
  O4       1.0000 0.30460  0.40330  0.29040  Biso   1.000  O
  O5       1.0000 0.57300  0.76420  0.33910  Biso   1.000  O
  O6       1.0000 0.71180  0.61220  0.38650  Biso   1.000  O
  O7       1.0000 0.58190  0.47670  0.02120  Biso   1.000  O
  O8       1.0000 0.23840  0.86290  0.09110  Biso   1.000  O
  O9       1.0000 0.09360  0.50520  0.36660  Biso   1.000  O
  O10      1.0000 0.92900  0.74050  0.33550  Biso   1.000  O
  O11      1.0000 0.25900  0.84080  0.22870  Biso   1.000  O
  O12      1.0000 0.79850  0.38720  0.10990  Biso   1.000  O
  O13      1.0000 0.04340  0.48880  0.23060  Biso   1.000  O
  O14      1.0000 0.79900  0.57190  0.09870  Biso   1.000  O
  O15      1.0000 0.72630  0.64790  0.24950  Biso   1.000  O
  O16      1.0000 0.06000  0.73090  0.15250  Biso   1.000  O
  Zn6      1.0000 0.01350  0.38506  0.70659  Biso   1.000  Zn
  Zn7      1.0000 0.00080  0.62934  0.72291  Biso   1.000  Zn
  Zn8      1.0000 0.64280  0.50154  0.91877  Biso   1.000  Zn
  Zn9      1.0000 0.44640  0.14206  0.80279  Biso   1.000  Zn
  Zn10     1.0000 0.55760  0.38810  0.68609  Biso   1.000  Zn
  P5       1.0000 0.81770  0.51960  0.59340  Biso   1.000  P
  P6       1.0000 0.76040  0.30920  0.82910  Biso   1.000  P
  P7       1.0000 0.25960  0.21130  0.65260  Biso   1.000  P
  P8       1.0000 0.31050  0.50390  0.79300  Biso   1.000  P
  O17      1.0000 0.09400  0.27910  0.64230  Biso   1.000  O
  O18      1.0000 0.96870  0.51450  0.65690  Biso   1.000  O
  O19      1.0000 0.19700  0.41070  0.78140  Biso   1.000  O
  O20      1.0000 0.19540  0.59670  0.79040  Biso   1.000  O
  O21      1.0000 0.92700  0.23580  0.83910  Biso   1.000  O
  O22      1.0000 0.78820  0.38780  0.88650  Biso   1.000  O
  O23      1.0000 0.91810  0.52330  0.52120  Biso   1.000  O
  O24      1.0000 0.26160  0.13710  0.59110  Biso   1.000  O
  O25      1.0000 0.40640  0.49480  0.86660  Biso   1.000  O
  O26      1.0000 0.57100  0.25950  0.83550  Biso   1.000  O
  O27      1.0000 0.24100  0.15920  0.72870  Biso   1.000  O
  O28      1.0000 0.70150  0.61280  0.60990  Biso   1.000  O
  O29      1.0000 0.45660  0.51120  0.73060  Biso   1.000  O
  O30      1.0000 0.70100  0.42810  0.59870  Biso   1.000  O
  O31      1.0000 0.77370  0.35210  0.74950  Biso   1.000  O
  O32      1.0000 0.44000  0.26910  0.65250  Biso   1.000  O
  Zn11     1.0000 0.51350  0.11494  0.29341  Biso   1.000  Zn
  Zn12     1.0000 0.50080  0.87066  0.27709  Biso   1.000  Zn
  Zn13     1.0000 0.14280  0.99846  0.08123  Biso   1.000  Zn
  Zn14     1.0000 0.94640  0.35794  0.19721  Biso   1.000  Zn
  Zn15     1.0000 0.05760  0.11190  0.31391  Biso   1.000  Zn
  P9       1.0000 0.31770  0.98040  0.40660  Biso   1.000  P
  P10      1.0000 0.26040  0.19080  0.17090  Biso   1.000  P
  P11      1.0000 0.75960  0.28870  0.34740  Biso   1.000  P
  P12      1.0000 0.81050  0.99610  0.20700  Biso   1.000  P
  O33      1.0000 0.59400  0.22090  0.35770  Biso   1.000  O
  O34      1.0000 0.46870  0.98550  0.34310  Biso   1.000  O
  O35      1.0000 0.69700  0.08930  0.21860  Biso   1.000  O
  O36      1.0000 0.69540  0.90330  0.20960  Biso   1.000  O
  O37      1.0000 0.42700  0.26420  0.16090  Biso   1.000  O
  O38      1.0000 0.28820  0.11220  0.11350  Biso   1.000  O
  O39      1.0000 0.41810  0.97670  0.47880  Biso   1.000  O
  O40      1.0000 0.76160  0.36290  0.40890  Biso   1.000  O
  O41      1.0000 0.90640  0.00520  0.13340  Biso   1.000  O
  O42      1.0000 0.07100  0.24050  0.16450  Biso   1.000  O
  O43      1.0000 0.74100  0.34080  0.27130  Biso   1.000  O
  O44      1.0000 0.20150  0.88720  0.39010  Biso   1.000  O
  O45      1.0000 0.95660  0.98880  0.26940  Biso   1.000  O
  O46      1.0000 0.20100  0.07190  0.40130  Biso   1.000  O
  O47      1.0000 0.27370  0.14790  0.25050  Biso   1.000  O
  O48      1.0000 0.94000  0.23090  0.34750  Biso   1.000  O
  Zn16     1.0000 0.98650  0.88506  0.79341  Biso   1.000  Zn
  Zn17     1.0000 0.99920  0.12934  0.77709  Biso   1.000  Zn
  Zn18     1.0000 0.35720  0.00154  0.58123  Biso   1.000  Zn
  Zn19     1.0000 0.55360  0.64206  0.69721  Biso   1.000  Zn
  Zn20     1.0000 0.44240  0.88810  0.81391  Biso   1.000  Zn
  P13      1.0000 0.18230  0.01960  0.90660  Biso   1.000  P
  P14      1.0000 0.23960  0.80920  0.67090  Biso   1.000  P
  P15      1.0000 0.74040  0.71130  0.84740  Biso   1.000  P
  P16      1.0000 0.68950  0.00390  0.70700  Biso   1.000  P
  O49      1.0000 0.90600  0.77910  0.85770  Biso   1.000  O
  O50      1.0000 0.03130  0.01450  0.84310  Biso   1.000  O
  O51      1.0000 0.80300  0.91070  0.71860  Biso   1.000  O
  O52      1.0000 0.80460  0.09670  0.70960  Biso   1.000  O
  O53      1.0000 0.07300  0.73580  0.66090  Biso   1.000  O
  O54      1.0000 0.21180  0.88780  0.61350  Biso   1.000  O
  O55      1.0000 0.08190  0.02330  0.97880  Biso   1.000  O
  O56      1.0000 0.73840  0.63710  0.90890  Biso   1.000  O
  O57      1.0000 0.59360  0.99480  0.63340  Biso   1.000  O
  O58      1.0000 0.42900  0.75950  0.66450  Biso   1.000  O
  O59      1.0000 0.75900  0.65920  0.77130  Biso   1.000  O
  O60      1.0000 0.29850  0.11280  0.89010  Biso   1.000  O
  O61      1.0000 0.54340  0.01120  0.76940  Biso   1.000  O
  O62      1.0000 0.29900  0.92810  0.90130  Biso   1.000  O
  O63      1.0000 0.22630  0.85210  0.75050  Biso   1.000  O
  O64      1.0000 0.56000  0.76910  0.84750  Biso   1.000  O
