data_EKARUE_clean
_audit_creation_date              2014-07-02
_audit_creation_method            'Materials Studio'
_symmetry_space_group_name_H-M    'P1'
_symmetry_Int_Tables_number       1
_symmetry_cell_setting            triclinic
loop_
_symmetry_equiv_pos_as_xyz
  x,y,z
_cell_length_a                    11.0817
_cell_length_b                    13.2573
_cell_length_c                    21.7250
_cell_angle_alpha                 82.8400
_cell_angle_beta                  77.2630
_cell_angle_gamma                 71.6600
loop_
_atom_site_label
_atom_site_type_symbol
_atom_site_fract_x
_atom_site_fract_y
_atom_site_fract_z
_atom_site_U_iso_or_equiv
_atom_site_adp_type
_atom_site_occupancy
Cu1    Cu    0.23621   0.55266   0.74918   0.01267  Uiso   1.00
Cu2    Cu    0.25467   0.06157   0.78984   0.01267  Uiso   1.00
Cu3    Cu    0.46085   0.20682   0.02542   0.01267  Uiso   1.00
Cu4    Cu    0.06337   0.79113   0.44417   0.01267  Uiso   1.00
Cu5    Cu    0.76379   0.44734   0.25082   0.01267  Uiso   1.00
Cu6    Cu    0.74533   0.93843   0.21016   0.01267  Uiso   1.00
Cu7    Cu    0.53915   0.79318   0.97458   0.01267  Uiso   1.00
Cu8    Cu    0.93663   0.20887   0.55583   0.01267  Uiso   1.00
H1     H     0.96680   0.53760   0.79480   0.01267  Uiso   1.00
H2     H     0.72230   0.77790   0.71180   0.01267  Uiso   1.00
H3     H     0.90000   0.81890   0.64880   0.01267  Uiso   1.00
H4     H     0.10390   0.72460   0.66500   0.01267  Uiso   1.00
H5     H     0.44610   0.85260   0.80710   0.01267  Uiso   1.00
H6     H     0.08920   0.96400   0.89610   0.01267  Uiso   1.00
H7     H     0.09100   0.79780   0.94240   0.01267  Uiso   1.00
H8     H     0.27770   0.65660   0.92350   0.01267  Uiso   1.00
H9     H     0.50030   0.40410   0.95460   0.01267  Uiso   1.00
H10    H     0.74220   0.11900   0.96860   0.01267  Uiso   1.00
H11    H     0.90820   0.17350   0.90650   0.01267  Uiso   1.00
H12    H     0.87340   0.35020   0.87140   0.01267  Uiso   1.00
H13    H     0.89860   0.57800   0.91700   0.01267  Uiso   1.00
H14    H     0.58250   0.46140   0.59140   0.01267  Uiso   1.00
H15    H     0.79290   0.83520   0.43980   0.01267  Uiso   1.00
H16    H     0.61130   0.79520   0.49670   0.01267  Uiso   1.00
H17    H     0.63150   0.66320   0.57780   0.01267  Uiso   1.00
H18    H     0.01320   0.61410   0.53730   0.01267  Uiso   1.00
H19    H     0.20850   0.42300   0.60980   0.01267  Uiso   1.00
H20    H     0.41130   0.31240   0.62360   0.01267  Uiso   1.00
H21    H     0.42830   0.16720   0.69170   0.01267  Uiso   1.00
H22    H     0.05070   0.24130   0.74410   0.01267  Uiso   1.00
H23    H     0.51350   0.54350   0.70710   0.01267  Uiso   1.00
H24    H     0.35170   0.34760   0.81690   0.01267  Uiso   1.00
H25    H     0.55040   0.23270   0.82870   0.01267  Uiso   1.00
H26    H     0.73810   0.27040   0.77410   0.01267  Uiso   1.00
H27    H     0.65650   0.08960   0.70610   0.01267  Uiso   1.00
H28    H     0.92200   0.91610   0.84640   0.01267  Uiso   1.00
H29    H     0.03320   0.46240   0.20520   0.01267  Uiso   1.00
H30    H     0.27770   0.22210   0.28820   0.01267  Uiso   1.00
H31    H     0.10000   0.18110   0.35120   0.01267  Uiso   1.00
H32    H     0.89610   0.27540   0.33500   0.01267  Uiso   1.00
H33    H     0.55390   0.14740   0.19290   0.01267  Uiso   1.00
H34    H     0.91080   0.03600   0.10390   0.01267  Uiso   1.00
H35    H     0.90900   0.20220   0.05760   0.01267  Uiso   1.00
H36    H     0.72230   0.34340   0.07650   0.01267  Uiso   1.00
H37    H     0.49970   0.59590   0.04540   0.01267  Uiso   1.00
H38    H     0.25780   0.88100   0.03140   0.01267  Uiso   1.00
H39    H     0.09180   0.82650   0.09350   0.01267  Uiso   1.00
H40    H     0.12660   0.64980   0.12860   0.01267  Uiso   1.00
H41    H     0.10140   0.42200   0.08300   0.01267  Uiso   1.00
H42    H     0.41750   0.53860   0.40860   0.01267  Uiso   1.00
H43    H     0.20710   0.16480   0.56020   0.01267  Uiso   1.00
H44    H     0.38870   0.20480   0.50330   0.01267  Uiso   1.00
H45    H     0.36850   0.33680   0.42220   0.01267  Uiso   1.00
H46    H     0.98680   0.38590   0.46270   0.01267  Uiso   1.00
H47    H     0.79150   0.57700   0.39020   0.01267  Uiso   1.00
H48    H     0.58870   0.68760   0.37640   0.01267  Uiso   1.00
H49    H     0.57170   0.83280   0.30830   0.01267  Uiso   1.00
H50    H     0.94930   0.75870   0.25590   0.01267  Uiso   1.00
H51    H     0.48650   0.45650   0.29290   0.01267  Uiso   1.00
H52    H     0.64830   0.65240   0.18310   0.01267  Uiso   1.00
H53    H     0.44960   0.76730   0.17130   0.01267  Uiso   1.00
H54    H     0.26190   0.72960   0.22590   0.01267  Uiso   1.00
H55    H     0.34350   0.91040   0.29390   0.01267  Uiso   1.00
H56    H     0.07800   0.08390   0.15360   0.01267  Uiso   1.00
C1     C     0.95320   0.59590   0.76570   0.01267  Uiso   1.00
C2     C     0.82700   0.65150   0.76030   0.01267  Uiso   1.00
C3     C     0.80600   0.73810   0.71620   0.01267  Uiso   1.00
C4     C     0.91090   0.76320   0.67970   0.01267  Uiso   1.00
C5     C     0.03360   0.70500   0.68920   0.01267  Uiso   1.00
C6     C     0.72000   0.62030   0.80290   0.01267  Uiso   1.00
C7     C     0.65020   0.50280   0.87590   0.01267  Uiso   1.00
C8     C     0.51040   0.66030   0.85120   0.01267  Uiso   1.00
C9     C     0.38340   0.74040   0.86410   0.01267  Uiso   1.00
C10    C     0.37390   0.84180   0.83500   0.01267  Uiso   1.00
C11    C     0.16350   0.90700   0.88660   0.01267  Uiso   1.00
C12    C     0.16490   0.80760   0.91550   0.01267  Uiso   1.00
C13    C     0.27550   0.72370   0.90430   0.01267  Uiso   1.00
C14    C     0.68000   0.39500   0.90700   0.01267  Uiso   1.00
C15    C     0.58310   0.35690   0.94460   0.01267  Uiso   1.00
C16    C     0.72570   0.18960   0.95290   0.01267  Uiso   1.00
C17    C     0.82630   0.22210   0.91630   0.01267  Uiso   1.00
C18    C     0.80540   0.32610   0.89430   0.01267  Uiso   1.00
C19    C     0.12390   0.46260   0.86780   0.01267  Uiso   1.00
C20    C     0.06540   0.47830   0.93730   0.01267  Uiso   1.00
C21    C     0.93960   0.54650   0.95060   0.01267  Uiso   1.00
C22    C     0.12810   0.42980   0.98780   0.01267  Uiso   1.00
C23    C     0.26130   0.35040   0.97920   0.01267  Uiso   1.00
C24    C     0.36540   0.60420   0.61700   0.01267  Uiso   1.00
C25    C     0.43000   0.55280   0.55490   0.01267  Uiso   1.00
C26    C     0.54900   0.47720   0.55440   0.01267  Uiso   1.00
C27    C     0.37970   0.57610   0.49910   0.01267  Uiso   1.00
C28    C     0.25160   0.65840   0.49580   0.01267  Uiso   1.00
C29    C     0.80160   0.78170   0.47210   0.01267  Uiso   1.00
C30    C     0.69230   0.75820   0.50600   0.01267  Uiso   1.00
C31    C     0.70430   0.67940   0.55370   0.01267  Uiso   1.00
C32    C     0.82740   0.62440   0.56530   0.01267  Uiso   1.00
C33    C     0.93100   0.65170   0.52960   0.01267  Uiso   1.00
C34    C     0.84490   0.53790   0.61590   0.01267  Uiso   1.00
C35    C     0.75950   0.43990   0.69520   0.01267  Uiso   1.00
C36    C     0.97620   0.40420   0.66730   0.01267  Uiso   1.00
C37    C     0.10750   0.34090   0.67590   0.01267  Uiso   1.00
C38    C     0.21660   0.36460   0.63880   0.01267  Uiso   1.00
C39    C     0.33660   0.29810   0.64680   0.01267  Uiso   1.00
C40    C     0.34610   0.21200   0.68830   0.01267  Uiso   1.00
C41    C     0.12400   0.25450   0.71860   0.01267  Uiso   1.00
C42    C     0.64360   0.41230   0.73340   0.01267  Uiso   1.00
C43    C     0.52140   0.47920   0.73090   0.01267  Uiso   1.00
C44    C     0.42620   0.36480   0.79610   0.01267  Uiso   1.00
C45    C     0.54550   0.29470   0.80280   0.01267  Uiso   1.00
C46    C     0.65690   0.31700   0.77090   0.01267  Uiso   1.00
C47    C     0.05850   0.00320   0.75590   0.01267  Uiso   1.00
C48    C     0.91880   0.00370   0.76370   0.01267  Uiso   1.00
C49    C     0.83810   0.05420   0.72170   0.01267  Uiso   1.00
C50    C     0.70930   0.05610   0.73500   0.01267  Uiso   1.00
C51    C     0.65710   0.00830   0.79170   0.01267  Uiso   1.00
C52    C     0.73900   0.95370   0.83390   0.01267  Uiso   1.00
C53    C     0.86740   0.95260   0.81870   0.01267  Uiso   1.00
C54    C     0.88720   0.11440   0.66300   0.01267  Uiso   1.00
C55    C     0.51190   0.03350   0.81220   0.01267  Uiso   1.00
C56    C     0.69150   0.90020   0.89390   0.01267  Uiso   1.00
C57    C     0.04680   0.40410   0.23430   0.01267  Uiso   1.00
C58    C     0.17300   0.34850   0.23970   0.01267  Uiso   1.00
C59    C     0.19400   0.26190   0.28380   0.01267  Uiso   1.00
C60    C     0.08910   0.23680   0.32030   0.01267  Uiso   1.00
C61    C     0.96640   0.29500   0.31080   0.01267  Uiso   1.00
C62    C     0.28000   0.37970   0.19710   0.01267  Uiso   1.00
C63    C     0.34980   0.49720   0.12410   0.01267  Uiso   1.00
C64    C     0.48960   0.33970   0.14880   0.01267  Uiso   1.00
C65    C     0.61660   0.25960   0.13590   0.01267  Uiso   1.00
C66    C     0.62610   0.15820   0.16500   0.01267  Uiso   1.00
C67    C     0.83650   0.09300   0.11340   0.01267  Uiso   1.00
C68    C     0.83510   0.19240   0.08450   0.01267  Uiso   1.00
C69    C     0.72450   0.27630   0.09570   0.01267  Uiso   1.00
C70    C     0.32000   0.60500   0.09300   0.01267  Uiso   1.00
C71    C     0.41690   0.64310   0.05540   0.01267  Uiso   1.00
C72    C     0.27430   0.81040   0.04710   0.01267  Uiso   1.00
C73    C     0.17370   0.77790   0.08370   0.01267  Uiso   1.00
C74    C     0.19460   0.67390   0.10570   0.01267  Uiso   1.00
C75    C     0.87610   0.53740   0.13220   0.01267  Uiso   1.00
C76    C     0.93460   0.52170   0.06270   0.01267  Uiso   1.00
C77    C     0.06040   0.45350   0.04940   0.01267  Uiso   1.00
C78    C     0.87190   0.57020   0.01220   0.01267  Uiso   1.00
C79    C     0.73870   0.64960   0.02080   0.01267  Uiso   1.00
C80    C     0.63460   0.39580   0.38300   0.01267  Uiso   1.00
C81    C     0.57000   0.44720   0.44510   0.01267  Uiso   1.00
C82    C     0.45100   0.52280   0.44560   0.01267  Uiso   1.00
C83    C     0.62030   0.42390   0.50090   0.01267  Uiso   1.00
C84    C     0.74840   0.34160   0.50420   0.01267  Uiso   1.00
C85    C     0.19840   0.21830   0.52790   0.01267  Uiso   1.00
C86    C     0.30770   0.24180   0.49400   0.01267  Uiso   1.00
C87    C     0.29570   0.32060   0.44630   0.01267  Uiso   1.00
C88    C     0.17260   0.37560   0.43470   0.01267  Uiso   1.00
C89    C     0.06900   0.34830   0.47040   0.01267  Uiso   1.00
C90    C     0.15510   0.46210   0.38410   0.01267  Uiso   1.00
C91    C     0.24050   0.56010   0.30480   0.01267  Uiso   1.00
C92    C     0.02380   0.59580   0.33270   0.01267  Uiso   1.00
C93    C     0.89250   0.65910   0.32410   0.01267  Uiso   1.00
C94    C     0.78340   0.63540   0.36120   0.01267  Uiso   1.00
C95    C     0.66340   0.70190   0.35320   0.01267  Uiso   1.00
C96    C     0.65390   0.78800   0.31170   0.01267  Uiso   1.00
C97    C     0.87600   0.74550   0.28140   0.01267  Uiso   1.00
C98    C     0.35640   0.58770   0.26660   0.01267  Uiso   1.00
C99    C     0.47860   0.52080   0.26910   0.01267  Uiso   1.00
C100   C     0.57380   0.63520   0.20390   0.01267  Uiso   1.00
C101   C     0.45450   0.70530   0.19720   0.01267  Uiso   1.00
C102   C     0.34310   0.68300   0.22910   0.01267  Uiso   1.00
C103   C     0.94150   0.99680   0.24410   0.01267  Uiso   1.00
C104   C     0.08120   0.99630   0.23630   0.01267  Uiso   1.00
C105   C     0.16190   0.94580   0.27830   0.01267  Uiso   1.00
C106   C     0.29070   0.94390   0.26500   0.01267  Uiso   1.00
C107   C     0.34290   0.99170   0.20830   0.01267  Uiso   1.00
C108   C     0.26100   0.04630   0.16610   0.01267  Uiso   1.00
C109   C     0.13260   0.04740   0.18130   0.01267  Uiso   1.00
C110   C     0.11280   0.88560   0.33700   0.01267  Uiso   1.00
C111   C     0.48810   0.96650   0.18780   0.01267  Uiso   1.00
C112   C     0.30850   0.09980   0.10610   0.01267  Uiso   1.00
N1     N     0.05670   0.62150   0.73160   0.01267  Uiso   1.00
N2     N     0.75020   0.52750   0.83710   0.01267  Uiso   1.00
N3     N     0.53000   0.56720   0.88680   0.01267  Uiso   1.00
N4     N     0.60000   0.68590   0.80630   0.01267  Uiso   1.00
N5     N     0.26690   0.92390   0.84500   0.01267  Uiso   1.00
N6     N     0.60270   0.25620   0.96720   0.01267  Uiso   1.00
N7     N     0.92060   0.73010   0.48390   0.01267  Uiso   1.00
N8     N     0.73690   0.52160   0.65270   0.01267  Uiso   1.00
N9     N     0.87470   0.38040   0.70620   0.01267  Uiso   1.00
N10    N     0.96540   0.48290   0.62110   0.01267  Uiso   1.00
N11    N     0.24140   0.18780   0.72550   0.01267  Uiso   1.00
N12    N     0.41360   0.45630   0.76090   0.01267  Uiso   1.00
N13    N     0.94330   0.37850   0.26840   0.01267  Uiso   1.00
N14    N     0.24980   0.47250   0.16290   0.01267  Uiso   1.00
N15    N     0.47000   0.43280   0.11320   0.01267  Uiso   1.00
N16    N     0.40000   0.31410   0.19370   0.01267  Uiso   1.00
N17    N     0.73310   0.07610   0.15500   0.01267  Uiso   1.00
N18    N     0.39730   0.74380   0.03280   0.01267  Uiso   1.00
N19    N     0.07940   0.26990   0.51610   0.01267  Uiso   1.00
N20    N     0.26310   0.47840   0.34730   0.01267  Uiso   1.00
N21    N     0.12530   0.61960   0.29380   0.01267  Uiso   1.00
N22    N     0.03460   0.51710   0.37890   0.01267  Uiso   1.00
N23    N     0.75860   0.81220   0.27450   0.01267  Uiso   1.00
N24    N     0.58640   0.54370   0.23910   0.01267  Uiso   1.00
O1     O     0.30230   0.55020   0.65590   0.01267  Uiso   1.00
O2     O     0.38670   0.68610   0.62730   0.01267  Uiso   1.00
O3     O     0.19840   0.72270   0.53710   0.01267  Uiso   1.00
O4     O     0.20390   0.65920   0.44690   0.01267  Uiso   1.00
O5     O     0.17250   0.53740   0.84030   0.01267  Uiso   1.00
O6     O     0.11330   0.39020   0.84130   0.01267  Uiso   1.00
O7     O     0.32180   0.33770   0.02510   0.01267  Uiso   1.00
O8     O     0.30610   0.30110   0.93110   0.01267  Uiso   1.00
O9     O     0.07580   0.06710   0.78890   0.01267  Uiso   1.00
O10    O     0.14560   0.93540   0.72290   0.01267  Uiso   1.00
O11    O     0.98810   0.13960   0.65930   0.01267  Uiso   1.00
O12    O     0.82280   0.13900   0.61840   0.01267  Uiso   1.00
O13    O     0.44800   0.02990   0.77090   0.01267  Uiso   1.00
O14    O     0.46410   0.06000   0.86730   0.01267  Uiso   1.00
O15    O     0.62590   0.83900   0.89180   0.01267  Uiso   1.00
O16    O     0.71870   0.91890   0.94400   0.01267  Uiso   1.00
O17    O     0.69770   0.44980   0.34410   0.01267  Uiso   1.00
O18    O     0.61330   0.31390   0.37270   0.01267  Uiso   1.00
O19    O     0.80160   0.27730   0.46290   0.01267  Uiso   1.00
O20    O     0.79610   0.34080   0.55310   0.01267  Uiso   1.00
O21    O     0.82750   0.46260   0.15970   0.01267  Uiso   1.00
O22    O     0.88670   0.60980   0.15870   0.01267  Uiso   1.00
O23    O     0.67820   0.66230   0.97490   0.01267  Uiso   1.00
O24    O     0.69390   0.69890   0.06890   0.01267  Uiso   1.00
O25    O     0.92420   0.93290   0.21110   0.01267  Uiso   1.00
O26    O     0.85440   0.06460   0.27710   0.01267  Uiso   1.00
O27    O     0.01190   0.86040   0.34070   0.01267  Uiso   1.00
O28    O     0.17720   0.86100   0.38160   0.01267  Uiso   1.00
O29    O     0.55200   0.97010   0.22910   0.01267  Uiso   1.00
O30    O     0.53590   0.94000   0.13270   0.01267  Uiso   1.00
O31    O     0.37410   0.16100   0.10820   0.01267  Uiso   1.00
O32    O     0.28130   0.08110   0.05600   0.01267  Uiso   1.00
