data_image0
_cell_length_a       18.0913
_cell_length_b       16.9739
_cell_length_c       10.364
_cell_angle_alpha    90
_cell_angle_beta     90
_cell_angle_gamma    90

_symmetry_space_group_name_H-M    "P 1"
_symmetry_int_tables_number       1

loop_
  _symmetry_equiv_pos_as_xyz
  'x, y, z'

loop_
  _atom_site_label
  _atom_site_occupancy
  _atom_site_fract_x
  _atom_site_fract_y
  _atom_site_fract_z
  _atom_site_thermal_displace_type
  _atom_site_B_iso_or_equiv
  _atom_site_type_symbol
  Ga1      1.0000 0.20363  0.23771  0.08534  Biso   1.000  Ga
  Ga2      1.0000 0.39910  0.20742  0.11145  Biso   1.000  Ga
  Ga3      1.0000 0.21336  0.41437  0.91233  Biso   1.000  Ga
  P1       1.0000 0.32287  0.28415  0.88117  Biso   1.000  P
  P2       1.0000 0.28283  0.06986  0.10519  Biso   1.000  P
  P3       1.0000 0.07615  0.29690  0.89970  Biso   1.000  P
  F1       1.0000 0.29857  0.24615  0.16940  Biso   1.000  F
  F2       1.0000 0.21007  0.35507  0.08110  Biso   1.000  F
  O1       1.0000 0.25601  0.23673  0.92340  Biso   1.000  O
  O2       1.0000 0.21579  0.12353  0.08840  Biso   1.000  O
  O3       1.0000 0.10798  0.24263  0.00350  Biso   1.000  O
  O4       1.0000 0.34728  0.25706  0.74680  Biso   1.000  O
  O5       1.0000 0.39080  0.27281  0.96950  Biso   1.000  O
  O6       1.0000 0.30542  0.37299  0.88120  Biso   1.000  O
  O7       1.0000 0.35790  0.11033  0.08130  Biso   1.000  O
  O8       1.0000 0.07649  0.25175  0.77160  Biso   1.000  O
  O9       1.0000 0.99750  0.32193  0.93590  Biso   1.000  O
  O10      1.0000 0.28386  0.03197  0.24000  Biso   1.000  O
  O11      1.0000 0.27539  0.00628  0.00090  Biso   1.000  O
  O12      1.0000 0.12012  0.37451  0.88190  Biso   1.000  O
  O13      1.0000 0.40830  0.92220  0.24900  Biso   1.000  O
  Ga4      1.0000 0.29637  0.26229  0.58534  Biso   1.000  Ga
  Ga5      1.0000 0.10090  0.29258  0.61145  Biso   1.000  Ga
  Ga6      1.0000 0.28664  0.08563  0.41233  Biso   1.000  Ga
  P4       1.0000 0.17713  0.21585  0.38117  Biso   1.000  P
  P5       1.0000 0.21717  0.43014  0.60519  Biso   1.000  P
  P6       1.0000 0.42385  0.20310  0.39970  Biso   1.000  P
  F3       1.0000 0.20143  0.25385  0.66940  Biso   1.000  F
  F4       1.0000 0.28993  0.14493  0.58110  Biso   1.000  F
  O14      1.0000 0.24399  0.26327  0.42340  Biso   1.000  O
  O15      1.0000 0.28421  0.37647  0.58840  Biso   1.000  O
  O16      1.0000 0.39202  0.25737  0.50350  Biso   1.000  O
  O17      1.0000 0.15272  0.24294  0.24680  Biso   1.000  O
  O18      1.0000 0.10920  0.22719  0.46950  Biso   1.000  O
  O19      1.0000 0.19458  0.12701  0.38120  Biso   1.000  O
  O20      1.0000 0.14210  0.38967  0.58130  Biso   1.000  O
  O21      1.0000 0.42351  0.24825  0.27160  Biso   1.000  O
  O22      1.0000 0.50250  0.17807  0.43590  Biso   1.000  O
  O23      1.0000 0.21614  0.46803  0.74000  Biso   1.000  O
  O24      1.0000 0.22461  0.49372  0.50090  Biso   1.000  O
  O25      1.0000 0.37988  0.12549  0.38190  Biso   1.000  O
  O26      1.0000 0.09170  0.57780  0.74900  Biso   1.000  O
  Ga7      1.0000 0.79637  0.23771  0.41466  Biso   1.000  Ga
  Ga8      1.0000 0.60090  0.20742  0.38855  Biso   1.000  Ga
  Ga9      1.0000 0.78664  0.41437  0.58767  Biso   1.000  Ga
  P7       1.0000 0.67713  0.28415  0.61883  Biso   1.000  P
  P8       1.0000 0.71717  0.06986  0.39481  Biso   1.000  P
  P9       1.0000 0.92385  0.29690  0.60030  Biso   1.000  P
  F5       1.0000 0.70143  0.24615  0.33060  Biso   1.000  F
  F6       1.0000 0.78993  0.35507  0.41890  Biso   1.000  F
  O27      1.0000 0.74399  0.23673  0.57660  Biso   1.000  O
  O28      1.0000 0.78421  0.12353  0.41160  Biso   1.000  O
  O29      1.0000 0.89202  0.24263  0.49650  Biso   1.000  O
  O30      1.0000 0.65272  0.25706  0.75320  Biso   1.000  O
  O31      1.0000 0.60920  0.27281  0.53050  Biso   1.000  O
  O32      1.0000 0.69458  0.37299  0.61880  Biso   1.000  O
  O33      1.0000 0.64210  0.11033  0.41870  Biso   1.000  O
  O34      1.0000 0.92351  0.25175  0.72840  Biso   1.000  O
  O35      1.0000 0.00250  0.32193  0.56410  Biso   1.000  O
  O36      1.0000 0.71614  0.03197  0.26000  Biso   1.000  O
  O37      1.0000 0.72461  0.00628  0.49910  Biso   1.000  O
  O38      1.0000 0.87988  0.37451  0.61810  Biso   1.000  O
  O39      1.0000 0.59170  0.92220  0.25100  Biso   1.000  O
  Ga10     1.0000 0.70363  0.26229  0.91466  Biso   1.000  Ga
  Ga11     1.0000 0.89910  0.29258  0.88855  Biso   1.000  Ga
  Ga12     1.0000 0.71336  0.08563  0.08767  Biso   1.000  Ga
  P10      1.0000 0.82287  0.21585  0.11883  Biso   1.000  P
  P11      1.0000 0.78283  0.43014  0.89481  Biso   1.000  P
  P12      1.0000 0.57615  0.20310  0.10030  Biso   1.000  P
  F7       1.0000 0.79857  0.25385  0.83060  Biso   1.000  F
  F8       1.0000 0.71007  0.14493  0.91890  Biso   1.000  F
  O40      1.0000 0.75601  0.26327  0.07660  Biso   1.000  O
  O41      1.0000 0.71579  0.37647  0.91160  Biso   1.000  O
  O42      1.0000 0.60798  0.25737  0.99650  Biso   1.000  O
  O43      1.0000 0.84728  0.24294  0.25320  Biso   1.000  O
  O44      1.0000 0.89080  0.22719  0.03050  Biso   1.000  O
  O45      1.0000 0.80542  0.12701  0.11880  Biso   1.000  O
  O46      1.0000 0.85790  0.38967  0.91870  Biso   1.000  O
  O47      1.0000 0.57649  0.24825  0.22840  Biso   1.000  O
  O48      1.0000 0.49750  0.17807  0.06410  Biso   1.000  O
  O49      1.0000 0.78386  0.46803  0.76000  Biso   1.000  O
  O50      1.0000 0.77539  0.49372  0.99910  Biso   1.000  O
  O51      1.0000 0.62012  0.12549  0.11810  Biso   1.000  O
  O52      1.0000 0.90830  0.57780  0.75100  Biso   1.000  O
  Ga13     1.0000 0.79637  0.76229  0.91466  Biso   1.000  Ga
  Ga14     1.0000 0.60090  0.79258  0.88855  Biso   1.000  Ga
  Ga15     1.0000 0.78664  0.58563  0.08767  Biso   1.000  Ga
  P13      1.0000 0.67713  0.71585  0.11883  Biso   1.000  P
  P14      1.0000 0.71717  0.93014  0.89481  Biso   1.000  P
  P15      1.0000 0.92385  0.70310  0.10030  Biso   1.000  P
  F9       1.0000 0.70143  0.75385  0.83060  Biso   1.000  F
  F10      1.0000 0.78993  0.64493  0.91890  Biso   1.000  F
  O53      1.0000 0.74399  0.76327  0.07660  Biso   1.000  O
  O54      1.0000 0.78421  0.87647  0.91160  Biso   1.000  O
  O55      1.0000 0.89202  0.75737  0.99650  Biso   1.000  O
  O56      1.0000 0.65272  0.74294  0.25320  Biso   1.000  O
  O57      1.0000 0.60920  0.72719  0.03050  Biso   1.000  O
  O58      1.0000 0.69458  0.62701  0.11880  Biso   1.000  O
  O59      1.0000 0.64210  0.88967  0.91870  Biso   1.000  O
  O60      1.0000 0.92351  0.74825  0.22840  Biso   1.000  O
  O61      1.0000 0.00250  0.67807  0.06410  Biso   1.000  O
  O62      1.0000 0.71614  0.96803  0.76000  Biso   1.000  O
  O63      1.0000 0.72461  0.99372  0.99910  Biso   1.000  O
  O64      1.0000 0.87988  0.62549  0.11810  Biso   1.000  O
  O65      1.0000 0.59170  0.07780  0.75100  Biso   1.000  O
  Ga16     1.0000 0.70363  0.73771  0.41466  Biso   1.000  Ga
  Ga17     1.0000 0.89910  0.70742  0.38855  Biso   1.000  Ga
  Ga18     1.0000 0.71336  0.91437  0.58767  Biso   1.000  Ga
  P16      1.0000 0.82287  0.78415  0.61883  Biso   1.000  P
  P17      1.0000 0.78283  0.56986  0.39481  Biso   1.000  P
  P18      1.0000 0.57615  0.79690  0.60030  Biso   1.000  P
  F11      1.0000 0.79857  0.74615  0.33060  Biso   1.000  F
  F12      1.0000 0.71007  0.85507  0.41890  Biso   1.000  F
  O66      1.0000 0.75601  0.73673  0.57660  Biso   1.000  O
  O67      1.0000 0.71579  0.62353  0.41160  Biso   1.000  O
  O68      1.0000 0.60798  0.74263  0.49650  Biso   1.000  O
  O69      1.0000 0.84728  0.75706  0.75320  Biso   1.000  O
  O70      1.0000 0.89080  0.77281  0.53050  Biso   1.000  O
  O71      1.0000 0.80542  0.87299  0.61880  Biso   1.000  O
  O72      1.0000 0.85790  0.61033  0.41870  Biso   1.000  O
  O73      1.0000 0.57649  0.75175  0.72840  Biso   1.000  O
  O74      1.0000 0.49750  0.82193  0.56410  Biso   1.000  O
  O75      1.0000 0.78386  0.53197  0.26000  Biso   1.000  O
  O76      1.0000 0.77539  0.50628  0.49910  Biso   1.000  O
  O77      1.0000 0.62012  0.87451  0.61810  Biso   1.000  O
  O78      1.0000 0.90830  0.42220  0.25100  Biso   1.000  O
  Ga19     1.0000 0.20363  0.76229  0.58534  Biso   1.000  Ga
  Ga20     1.0000 0.39910  0.79258  0.61145  Biso   1.000  Ga
  Ga21     1.0000 0.21336  0.58563  0.41233  Biso   1.000  Ga
  P19      1.0000 0.32287  0.71585  0.38117  Biso   1.000  P
  P20      1.0000 0.28283  0.93014  0.60519  Biso   1.000  P
  P21      1.0000 0.07615  0.70310  0.39970  Biso   1.000  P
  F13      1.0000 0.29857  0.75385  0.66940  Biso   1.000  F
  F14      1.0000 0.21007  0.64493  0.58110  Biso   1.000  F
  O79      1.0000 0.25601  0.76327  0.42340  Biso   1.000  O
  O80      1.0000 0.21579  0.87647  0.58840  Biso   1.000  O
  O81      1.0000 0.10798  0.75737  0.50350  Biso   1.000  O
  O82      1.0000 0.34728  0.74294  0.24680  Biso   1.000  O
  O83      1.0000 0.39080  0.72719  0.46950  Biso   1.000  O
  O84      1.0000 0.30542  0.62701  0.38120  Biso   1.000  O
  O85      1.0000 0.35790  0.88967  0.58130  Biso   1.000  O
  O86      1.0000 0.07649  0.74825  0.27160  Biso   1.000  O
  O87      1.0000 0.99750  0.67807  0.43590  Biso   1.000  O
  O88      1.0000 0.28386  0.96803  0.74000  Biso   1.000  O
  O89      1.0000 0.27539  0.99372  0.50090  Biso   1.000  O
  O90      1.0000 0.12012  0.62549  0.38190  Biso   1.000  O
  O91      1.0000 0.40830  0.07780  0.74900  Biso   1.000  O
  Ga22     1.0000 0.29637  0.73771  0.08534  Biso   1.000  Ga
  Ga23     1.0000 0.10090  0.70742  0.11145  Biso   1.000  Ga
  Ga24     1.0000 0.28664  0.91437  0.91233  Biso   1.000  Ga
  P22      1.0000 0.17713  0.78415  0.88117  Biso   1.000  P
  P23      1.0000 0.21717  0.56986  0.10519  Biso   1.000  P
  P24      1.0000 0.42385  0.79690  0.89970  Biso   1.000  P
  F15      1.0000 0.20143  0.74615  0.16940  Biso   1.000  F
  F16      1.0000 0.28993  0.85507  0.08110  Biso   1.000  F
  O92      1.0000 0.24399  0.73673  0.92340  Biso   1.000  O
  O93      1.0000 0.28421  0.62353  0.08840  Biso   1.000  O
  O94      1.0000 0.39202  0.74263  0.00350  Biso   1.000  O
  O95      1.0000 0.15272  0.75706  0.74680  Biso   1.000  O
  O96      1.0000 0.10920  0.77281  0.96950  Biso   1.000  O
  O97      1.0000 0.19458  0.87299  0.88120  Biso   1.000  O
  O98      1.0000 0.14210  0.61033  0.08130  Biso   1.000  O
  O99      1.0000 0.42351  0.75175  0.77160  Biso   1.000  O
  O100     1.0000 0.50250  0.82193  0.93590  Biso   1.000  O
  O101     1.0000 0.21614  0.53197  0.24000  Biso   1.000  O
  O102     1.0000 0.22461  0.50628  0.00090  Biso   1.000  O
  O103     1.0000 0.37988  0.87451  0.88190  Biso   1.000  O
  O104     1.0000 0.09170  0.42220  0.24900  Biso   1.000  O
  Cs1      1.0000 0.50000  0.00000  0.50000  Biso   1.000  Cs
  Cs2      1.0000 0.00000  0.50000  0.00000  Biso   1.000  Cs
  Cs3      1.0000 0.50000  0.00000  0.00000  Biso   1.000  Cs
  Cs4      1.0000 0.00000  0.50000  0.50000  Biso   1.000  Cs
