data_image0
_cell_length_a       17.9491
_cell_length_b       16.9797
_cell_length_c       10.3636
_cell_angle_alpha    90
_cell_angle_beta     90
_cell_angle_gamma    90

_symmetry_space_group_name_H-M    "P 1"
_symmetry_int_tables_number       1

loop_
  _symmetry_equiv_pos_as_xyz
  'x, y, z'

loop_
  _atom_site_label
  _atom_site_occupancy
  _atom_site_fract_x
  _atom_site_fract_y
  _atom_site_fract_z
  _atom_site_thermal_displace_type
  _atom_site_B_iso_or_equiv
  _atom_site_type_symbol
  Ga1      1.0000 0.20212  0.23997  0.08722  Biso   1.000  Ga
  Ga2      1.0000 0.39846  0.20173  0.11248  Biso   1.000  Ga
  Ga3      1.0000 0.21780  0.41602  0.91274  Biso   1.000  Ga
  P1       1.0000 0.32371  0.28100  0.88277  Biso   1.000  P
  P2       1.0000 0.27645  0.06934  0.10647  Biso   1.000  P
  P3       1.0000 0.07577  0.30446  0.90141  Biso   1.000  P
  F1       1.0000 0.29840  0.24478  0.17010  Biso   1.000  F
  F2       1.0000 0.21266  0.35644  0.08190  Biso   1.000  F
  O1       1.0000 0.25468  0.23601  0.92540  Biso   1.000  O
  O2       1.0000 0.21070  0.12600  0.09180  Biso   1.000  O
  O3       1.0000 0.10568  0.24977  0.00620  Biso   1.000  O
  O4       1.0000 0.34768  0.25254  0.74930  Biso   1.000  O
  O5       1.0000 0.39150  0.26793  0.97170  Biso   1.000  O
  O6       1.0000 0.30884  0.37001  0.88140  Biso   1.000  O
  O7       1.0000 0.35364  0.10646  0.08050  Biso   1.000  O
  O8       1.0000 0.07657  0.25927  0.77330  Biso   1.000  O
  O9       1.0000 0.99653  0.33184  0.93430  Biso   1.000  O
  O10      1.0000 0.27788  0.03119  0.24140  Biso   1.000  O
  O11      1.0000 0.26534  0.00650  0.00240  Biso   1.000  O
  O12      1.0000 0.12196  0.38112  0.88580  Biso   1.000  O
  Ga4      1.0000 0.29788  0.26003  0.58722  Biso   1.000  Ga
  Ga5      1.0000 0.10154  0.29827  0.61248  Biso   1.000  Ga
  Ga6      1.0000 0.28220  0.08398  0.41274  Biso   1.000  Ga
  P4       1.0000 0.17629  0.21900  0.38277  Biso   1.000  P
  P5       1.0000 0.22355  0.43066  0.60647  Biso   1.000  P
  P6       1.0000 0.42423  0.19554  0.40141  Biso   1.000  P
  F3       1.0000 0.20160  0.25522  0.67010  Biso   1.000  F
  F4       1.0000 0.28734  0.14356  0.58190  Biso   1.000  F
  O13      1.0000 0.24532  0.26399  0.42540  Biso   1.000  O
  O14      1.0000 0.28930  0.37400  0.59180  Biso   1.000  O
  O15      1.0000 0.39432  0.25023  0.50620  Biso   1.000  O
  O16      1.0000 0.15232  0.24746  0.24930  Biso   1.000  O
  O17      1.0000 0.10850  0.23207  0.47170  Biso   1.000  O
  O18      1.0000 0.19116  0.12999  0.38140  Biso   1.000  O
  O19      1.0000 0.14636  0.39354  0.58050  Biso   1.000  O
  O20      1.0000 0.42343  0.24073  0.27330  Biso   1.000  O
  O21      1.0000 0.50347  0.16816  0.43430  Biso   1.000  O
  O22      1.0000 0.22212  0.46881  0.74140  Biso   1.000  O
  O23      1.0000 0.23466  0.49350  0.50240  Biso   1.000  O
  O24      1.0000 0.37804  0.11888  0.38580  Biso   1.000  O
  Ga7      1.0000 0.79788  0.23997  0.41278  Biso   1.000  Ga
  Ga8      1.0000 0.60154  0.20173  0.38752  Biso   1.000  Ga
  Ga9      1.0000 0.78220  0.41602  0.58726  Biso   1.000  Ga
  P7       1.0000 0.67629  0.28100  0.61723  Biso   1.000  P
  P8       1.0000 0.72355  0.06934  0.39353  Biso   1.000  P
  P9       1.0000 0.92423  0.30446  0.59859  Biso   1.000  P
  F5       1.0000 0.70160  0.24478  0.32990  Biso   1.000  F
  F6       1.0000 0.78734  0.35644  0.41810  Biso   1.000  F
  O25      1.0000 0.74532  0.23601  0.57460  Biso   1.000  O
  O26      1.0000 0.78930  0.12600  0.40820  Biso   1.000  O
  O27      1.0000 0.89432  0.24977  0.49380  Biso   1.000  O
  O28      1.0000 0.65232  0.25254  0.75070  Biso   1.000  O
  O29      1.0000 0.60850  0.26793  0.52830  Biso   1.000  O
  O30      1.0000 0.69116  0.37001  0.61860  Biso   1.000  O
  O31      1.0000 0.64636  0.10646  0.41950  Biso   1.000  O
  O32      1.0000 0.92343  0.25927  0.72670  Biso   1.000  O
  O33      1.0000 0.00347  0.33184  0.56570  Biso   1.000  O
  O34      1.0000 0.72212  0.03119  0.25860  Biso   1.000  O
  O35      1.0000 0.73466  0.00650  0.49760  Biso   1.000  O
  O36      1.0000 0.87804  0.38112  0.61420  Biso   1.000  O
  Ga10     1.0000 0.70212  0.26003  0.91278  Biso   1.000  Ga
  Ga11     1.0000 0.89846  0.29827  0.88752  Biso   1.000  Ga
  Ga12     1.0000 0.71780  0.08398  0.08726  Biso   1.000  Ga
  P10      1.0000 0.82371  0.21900  0.11723  Biso   1.000  P
  P11      1.0000 0.77645  0.43066  0.89353  Biso   1.000  P
  P12      1.0000 0.57577  0.19554  0.09859  Biso   1.000  P
  F7       1.0000 0.79840  0.25522  0.82990  Biso   1.000  F
  F8       1.0000 0.71266  0.14356  0.91810  Biso   1.000  F
  O37      1.0000 0.75468  0.26399  0.07460  Biso   1.000  O
  O38      1.0000 0.71070  0.37400  0.90820  Biso   1.000  O
  O39      1.0000 0.60568  0.25023  0.99380  Biso   1.000  O
  O40      1.0000 0.84768  0.24746  0.25070  Biso   1.000  O
  O41      1.0000 0.89150  0.23207  0.02830  Biso   1.000  O
  O42      1.0000 0.80884  0.12999  0.11860  Biso   1.000  O
  O43      1.0000 0.85364  0.39354  0.91950  Biso   1.000  O
  O44      1.0000 0.57657  0.24073  0.22670  Biso   1.000  O
  O45      1.0000 0.49653  0.16816  0.06570  Biso   1.000  O
  O46      1.0000 0.77788  0.46881  0.75860  Biso   1.000  O
  O47      1.0000 0.76534  0.49350  0.99760  Biso   1.000  O
  O48      1.0000 0.62196  0.11888  0.11420  Biso   1.000  O
  Ga13     1.0000 0.79788  0.76003  0.91278  Biso   1.000  Ga
  Ga14     1.0000 0.60154  0.79827  0.88752  Biso   1.000  Ga
  Ga15     1.0000 0.78220  0.58398  0.08726  Biso   1.000  Ga
  P13      1.0000 0.67629  0.71900  0.11723  Biso   1.000  P
  P14      1.0000 0.72355  0.93066  0.89353  Biso   1.000  P
  P15      1.0000 0.92423  0.69554  0.09859  Biso   1.000  P
  F9       1.0000 0.70160  0.75522  0.82990  Biso   1.000  F
  F10      1.0000 0.78734  0.64356  0.91810  Biso   1.000  F
  O49      1.0000 0.74532  0.76399  0.07460  Biso   1.000  O
  O50      1.0000 0.78930  0.87400  0.90820  Biso   1.000  O
  O51      1.0000 0.89432  0.75023  0.99380  Biso   1.000  O
  O52      1.0000 0.65232  0.74746  0.25070  Biso   1.000  O
  O53      1.0000 0.60850  0.73207  0.02830  Biso   1.000  O
  O54      1.0000 0.69116  0.62999  0.11860  Biso   1.000  O
  O55      1.0000 0.64636  0.89354  0.91950  Biso   1.000  O
  O56      1.0000 0.92343  0.74073  0.22670  Biso   1.000  O
  O57      1.0000 0.00347  0.66816  0.06570  Biso   1.000  O
  O58      1.0000 0.72212  0.96881  0.75860  Biso   1.000  O
  O59      1.0000 0.73466  0.99350  0.99760  Biso   1.000  O
  O60      1.0000 0.87804  0.61888  0.11420  Biso   1.000  O
  Ga16     1.0000 0.70212  0.73997  0.41278  Biso   1.000  Ga
  Ga17     1.0000 0.89846  0.70173  0.38752  Biso   1.000  Ga
  Ga18     1.0000 0.71780  0.91602  0.58726  Biso   1.000  Ga
  P16      1.0000 0.82371  0.78100  0.61723  Biso   1.000  P
  P17      1.0000 0.77645  0.56934  0.39353  Biso   1.000  P
  P18      1.0000 0.57577  0.80446  0.59859  Biso   1.000  P
  F11      1.0000 0.79840  0.74478  0.32990  Biso   1.000  F
  F12      1.0000 0.71266  0.85644  0.41810  Biso   1.000  F
  O61      1.0000 0.75468  0.73601  0.57460  Biso   1.000  O
  O62      1.0000 0.71070  0.62600  0.40820  Biso   1.000  O
  O63      1.0000 0.60568  0.74977  0.49380  Biso   1.000  O
  O64      1.0000 0.84768  0.75254  0.75070  Biso   1.000  O
  O65      1.0000 0.89150  0.76793  0.52830  Biso   1.000  O
  O66      1.0000 0.80884  0.87001  0.61860  Biso   1.000  O
  O67      1.0000 0.85364  0.60646  0.41950  Biso   1.000  O
  O68      1.0000 0.57657  0.75927  0.72670  Biso   1.000  O
  O69      1.0000 0.49653  0.83184  0.56570  Biso   1.000  O
  O70      1.0000 0.77788  0.53119  0.25860  Biso   1.000  O
  O71      1.0000 0.76534  0.50650  0.49760  Biso   1.000  O
  O72      1.0000 0.62196  0.88112  0.61420  Biso   1.000  O
  Ga19     1.0000 0.20212  0.76003  0.58722  Biso   1.000  Ga
  Ga20     1.0000 0.39846  0.79827  0.61248  Biso   1.000  Ga
  Ga21     1.0000 0.21780  0.58398  0.41274  Biso   1.000  Ga
  P19      1.0000 0.32371  0.71900  0.38277  Biso   1.000  P
  P20      1.0000 0.27645  0.93066  0.60647  Biso   1.000  P
  P21      1.0000 0.07577  0.69554  0.40141  Biso   1.000  P
  F13      1.0000 0.29840  0.75522  0.67010  Biso   1.000  F
  F14      1.0000 0.21266  0.64356  0.58190  Biso   1.000  F
  O73      1.0000 0.25468  0.76399  0.42540  Biso   1.000  O
  O74      1.0000 0.21070  0.87400  0.59180  Biso   1.000  O
  O75      1.0000 0.10568  0.75023  0.50620  Biso   1.000  O
  O76      1.0000 0.34768  0.74746  0.24930  Biso   1.000  O
  O77      1.0000 0.39150  0.73207  0.47170  Biso   1.000  O
  O78      1.0000 0.30884  0.62999  0.38140  Biso   1.000  O
  O79      1.0000 0.35364  0.89354  0.58050  Biso   1.000  O
  O80      1.0000 0.07657  0.74073  0.27330  Biso   1.000  O
  O81      1.0000 0.99653  0.66816  0.43430  Biso   1.000  O
  O82      1.0000 0.27788  0.96881  0.74140  Biso   1.000  O
  O83      1.0000 0.26534  0.99350  0.50240  Biso   1.000  O
  O84      1.0000 0.12196  0.61888  0.38580  Biso   1.000  O
  Ga22     1.0000 0.29788  0.73997  0.08722  Biso   1.000  Ga
  Ga23     1.0000 0.10154  0.70173  0.11248  Biso   1.000  Ga
  Ga24     1.0000 0.28220  0.91602  0.91274  Biso   1.000  Ga
  P22      1.0000 0.17629  0.78100  0.88277  Biso   1.000  P
  P23      1.0000 0.22355  0.56934  0.10647  Biso   1.000  P
  P24      1.0000 0.42423  0.80446  0.90141  Biso   1.000  P
  F15      1.0000 0.20160  0.74478  0.17010  Biso   1.000  F
  F16      1.0000 0.28734  0.85644  0.08190  Biso   1.000  F
  O85      1.0000 0.24532  0.73601  0.92540  Biso   1.000  O
  O86      1.0000 0.28930  0.62600  0.09180  Biso   1.000  O
  O87      1.0000 0.39432  0.74977  0.00620  Biso   1.000  O
  O88      1.0000 0.15232  0.75254  0.74930  Biso   1.000  O
  O89      1.0000 0.10850  0.76793  0.97170  Biso   1.000  O
  O90      1.0000 0.19116  0.87001  0.88140  Biso   1.000  O
  O91      1.0000 0.14636  0.60646  0.08050  Biso   1.000  O
  O92      1.0000 0.42343  0.75927  0.77330  Biso   1.000  O
  O93      1.0000 0.50347  0.83184  0.93430  Biso   1.000  O
  O94      1.0000 0.22212  0.53119  0.24140  Biso   1.000  O
  O95      1.0000 0.23466  0.50650  0.00240  Biso   1.000  O
  O96      1.0000 0.37804  0.88112  0.88580  Biso   1.000  O
  Rb1      1.0000 0.50000  0.00000  0.50000  Biso   1.000  Rb
  Rb2      1.0000 0.00000  0.50000  0.00000  Biso   1.000  Rb
  Rb3      1.0000 0.50000  0.00000  0.00000  Biso   1.000  Rb
  Rb4      1.0000 0.00000  0.50000  0.50000  Biso   1.000  Rb
