data_image0
_cell_length_a       10.8352
_cell_length_b       6.3246
_cell_length_c       16.8834
_cell_angle_alpha    90
_cell_angle_beta     105.667
_cell_angle_gamma    90

_symmetry_space_group_name_H-M    "P 1"
_symmetry_int_tables_number       1

loop_
  _symmetry_equiv_pos_as_xyz
  'x, y, z'

loop_
  _atom_site_label
  _atom_site_occupancy
  _atom_site_fract_x
  _atom_site_fract_y
  _atom_site_fract_z
  _atom_site_thermal_displace_type
  _atom_site_B_iso_or_equiv
  _atom_site_type_symbol
  Ni1      1.0000 0.53502  0.00363  0.91739  Biso   1.000  Ni
  C1       1.0000 0.66510  0.18590  0.66250  Biso   1.000  C
  C2       1.0000 0.77260  0.11660  0.73420  Biso   1.000  C
  C3       1.0000 0.83040  0.92110  0.73700  Biso   1.000  C
  H1       1.0000 0.80110  0.82610  0.69400  Biso   1.000  H
  C4       1.0000 0.93100  0.86540  0.80300  Biso   1.000  C
  H2       1.0000 0.96900  0.73330  0.80360  Biso   1.000  H
  C5       1.0000 0.97650  0.00150  0.86820  Biso   1.000  C
  H3       1.0000 0.04550  0.96240  0.91190  Biso   1.000  H
  C6       1.0000 0.91990  0.19350  0.86810  Biso   1.000  C
  C7       1.0000 0.81880  0.25420  0.80040  Biso   1.000  C
  H4       1.0000 0.78220  0.38740  0.79960  Biso   1.000  H
  C8       1.0000 0.08460  0.42930  0.95970  Biso   1.000  C
  H5       1.0000 0.14360  0.37930  0.93310  Biso   1.000  H
  C9       1.0000 0.96160  0.34450  0.93830  Biso   1.000  C
  C10      1.0000 0.87720  0.41620  0.98150  Biso   1.000  C
  C11      1.0000 0.73980  0.32710  0.96620  Biso   1.000  C
  O1       1.0000 0.60930  0.03390  0.61820  Biso   1.000  O
  O2       1.0000 0.63720  0.37730  0.65080  Biso   1.000  O
  O3       1.0000 0.72090  0.13560  0.96660  Biso   1.000  O
  O4       1.0000 0.65730  0.47010  0.95590  Biso   1.000  O
  O5       1.0000 0.44740  0.18990  0.98370  Biso   1.000  O
  H6       1.0000 0.36830  0.19000  0.95840  Biso   1.000  H
  Ni2      1.0000 0.46498  0.50363  0.58261  Biso   1.000  Ni
  C12      1.0000 0.33490  0.68590  0.83750  Biso   1.000  C
  C13      1.0000 0.22740  0.61660  0.76580  Biso   1.000  C
  C14      1.0000 0.16960  0.42110  0.76300  Biso   1.000  C
  H7       1.0000 0.19890  0.32610  0.80600  Biso   1.000  H
  C15      1.0000 0.06900  0.36540  0.69700  Biso   1.000  C
  H8       1.0000 0.03100  0.23330  0.69640  Biso   1.000  H
  C16      1.0000 0.02350  0.50150  0.63180  Biso   1.000  C
  H9       1.0000 0.95450  0.46240  0.58810  Biso   1.000  H
  C17      1.0000 0.08010  0.69350  0.63190  Biso   1.000  C
  C18      1.0000 0.18120  0.75420  0.69960  Biso   1.000  C
  H10      1.0000 0.21780  0.88740  0.70040  Biso   1.000  H
  C19      1.0000 0.91540  0.92930  0.54030  Biso   1.000  C
  H11      1.0000 0.85640  0.87930  0.56690  Biso   1.000  H
  C20      1.0000 0.03840  0.84450  0.56170  Biso   1.000  C
  C21      1.0000 0.12280  0.91620  0.51850  Biso   1.000  C
  C22      1.0000 0.26020  0.82710  0.53380  Biso   1.000  C
  O6       1.0000 0.39070  0.53390  0.88180  Biso   1.000  O
  O7       1.0000 0.36280  0.87730  0.84920  Biso   1.000  O
  O8       1.0000 0.27910  0.63560  0.53340  Biso   1.000  O
  O9       1.0000 0.34270  0.97010  0.54410  Biso   1.000  O
  O10      1.0000 0.55260  0.68990  0.51630  Biso   1.000  O
  H12      1.0000 0.63170  0.69000  0.54160  Biso   1.000  H
  Ni3      1.0000 0.46498  0.99637  0.08261  Biso   1.000  Ni
  C23      1.0000 0.33490  0.81410  0.33750  Biso   1.000  C
  C24      1.0000 0.22740  0.88340  0.26580  Biso   1.000  C
  C25      1.0000 0.16960  0.07890  0.26300  Biso   1.000  C
  H13      1.0000 0.19890  0.17390  0.30600  Biso   1.000  H
  C26      1.0000 0.06900  0.13460  0.19700  Biso   1.000  C
  H14      1.0000 0.03100  0.26670  0.19640  Biso   1.000  H
  C27      1.0000 0.02350  0.99850  0.13180  Biso   1.000  C
  H15      1.0000 0.95450  0.03760  0.08810  Biso   1.000  H
  C28      1.0000 0.08010  0.80650  0.13190  Biso   1.000  C
  C29      1.0000 0.18120  0.74580  0.19960  Biso   1.000  C
  H16      1.0000 0.21780  0.61260  0.20040  Biso   1.000  H
  C30      1.0000 0.91540  0.57070  0.04030  Biso   1.000  C
  H17      1.0000 0.85640  0.62070  0.06690  Biso   1.000  H
  C31      1.0000 0.03840  0.65550  0.06170  Biso   1.000  C
  C32      1.0000 0.12280  0.58380  0.01850  Biso   1.000  C
  C33      1.0000 0.26020  0.67290  0.03380  Biso   1.000  C
  O11      1.0000 0.39070  0.96610  0.38180  Biso   1.000  O
  O12      1.0000 0.36280  0.62270  0.34920  Biso   1.000  O
  O13      1.0000 0.27910  0.86440  0.03340  Biso   1.000  O
  O14      1.0000 0.34270  0.52990  0.04410  Biso   1.000  O
  O15      1.0000 0.55260  0.81010  0.01630  Biso   1.000  O
  H18      1.0000 0.63170  0.81000  0.04160  Biso   1.000  H
  Ni4      1.0000 0.53502  0.49637  0.41739  Biso   1.000  Ni
  C34      1.0000 0.66510  0.31410  0.16250  Biso   1.000  C
  C35      1.0000 0.77260  0.38340  0.23420  Biso   1.000  C
  C36      1.0000 0.83040  0.57890  0.23700  Biso   1.000  C
  H19      1.0000 0.80110  0.67390  0.19400  Biso   1.000  H
  C37      1.0000 0.93100  0.63460  0.30300  Biso   1.000  C
  H20      1.0000 0.96900  0.76670  0.30360  Biso   1.000  H
  C38      1.0000 0.97650  0.49850  0.36820  Biso   1.000  C
  H21      1.0000 0.04550  0.53760  0.41190  Biso   1.000  H
  C39      1.0000 0.91990  0.30650  0.36810  Biso   1.000  C
  C40      1.0000 0.81880  0.24580  0.30040  Biso   1.000  C
  H22      1.0000 0.78220  0.11260  0.29960  Biso   1.000  H
  C41      1.0000 0.08460  0.07070  0.45970  Biso   1.000  C
  H23      1.0000 0.14360  0.12070  0.43310  Biso   1.000  H
  C42      1.0000 0.96160  0.15550  0.43830  Biso   1.000  C
  C43      1.0000 0.87720  0.08380  0.48150  Biso   1.000  C
  C44      1.0000 0.73980  0.17290  0.46620  Biso   1.000  C
  O16      1.0000 0.60930  0.46610  0.11820  Biso   1.000  O
  O17      1.0000 0.63720  0.12270  0.15080  Biso   1.000  O
  O18      1.0000 0.72090  0.36440  0.46660  Biso   1.000  O
  O19      1.0000 0.65730  0.02990  0.45590  Biso   1.000  O
  O20      1.0000 0.44740  0.31010  0.48370  Biso   1.000  O
  H24      1.0000 0.36830  0.31000  0.45840  Biso   1.000  H
  Ni5      1.0000 0.50000  0.50000  0.00000  Biso   1.000  Ni
  Ni6      1.0000 0.50000  0.00000  0.50000  Biso   1.000  Ni
