data_image0
_cell_length_a       10.8637
_cell_length_b       6.3883
_cell_length_c       16.963
_cell_angle_alpha    90
_cell_angle_beta     105.757
_cell_angle_gamma    90

_symmetry_space_group_name_H-M    "P 1"
_symmetry_int_tables_number       1

loop_
  _symmetry_equiv_pos_as_xyz
  'x, y, z'

loop_
  _atom_site_label
  _atom_site_occupancy
  _atom_site_fract_x
  _atom_site_fract_y
  _atom_site_fract_z
  _atom_site_thermal_displace_type
  _atom_site_B_iso_or_equiv
  _atom_site_type_symbol
  Co1      1.0000 0.53459  0.00311  0.91606  Biso   1.000  Co
  C1       1.0000 0.66860  0.18300  0.66360  Biso   1.000  C
  C2       1.0000 0.77680  0.12030  0.73570  Biso   1.000  C
  C3       1.0000 0.83410  0.92320  0.73910  Biso   1.000  C
  H1       1.0000 0.80340  0.82780  0.69690  Biso   1.000  H
  C4       1.0000 0.93540  0.86920  0.80420  Biso   1.000  C
  H2       1.0000 0.97400  0.73900  0.80490  Biso   1.000  H
  C5       1.0000 0.98050  0.00690  0.86880  Biso   1.000  C
  H3       1.0000 0.05000  0.97030  0.91230  Biso   1.000  H
  C6       1.0000 0.92200  0.19740  0.86830  Biso   1.000  C
  C7       1.0000 0.82180  0.25570  0.80080  Biso   1.000  C
  H4       1.0000 0.78490  0.38740  0.79980  Biso   1.000  H
  C8       1.0000 0.08580  0.43020  0.95990  Biso   1.000  C
  H5       1.0000 0.14500  0.38270  0.93330  Biso   1.000  H
  C9       1.0000 0.96340  0.34600  0.93820  Biso   1.000  C
  C10      1.0000 0.87700  0.41650  0.97990  Biso   1.000  C
  C11      1.0000 0.74280  0.33010  0.96430  Biso   1.000  C
  O1       1.0000 0.61440  0.03930  0.61852  Biso   1.000  O
  O2       1.0000 0.63910  0.37420  0.65413  Biso   1.000  O
  O3       1.0000 0.72430  0.13680  0.96606  Biso   1.000  O
  O4       1.0000 0.65600  0.46600  0.95189  Biso   1.000  O
  O5       1.0000 0.44440  0.19020  0.98306  Biso   1.000  O
  H6       1.0000 0.36530  0.19020  0.95770  Biso   1.000  H
  Co2      1.0000 0.46541  0.50311  0.58394  Biso   1.000  Co
  C12      1.0000 0.33140  0.68300  0.83640  Biso   1.000  C
  C13      1.0000 0.22320  0.62030  0.76430  Biso   1.000  C
  C14      1.0000 0.16590  0.42320  0.76090  Biso   1.000  C
  H7       1.0000 0.19660  0.32780  0.80310  Biso   1.000  H
  C15      1.0000 0.06460  0.36920  0.69580  Biso   1.000  C
  H8       1.0000 0.02600  0.23900  0.69510  Biso   1.000  H
  C16      1.0000 0.01950  0.50690  0.63120  Biso   1.000  C
  H9       1.0000 0.95000  0.47030  0.58770  Biso   1.000  H
  C17      1.0000 0.07800  0.69740  0.63170  Biso   1.000  C
  C18      1.0000 0.17820  0.75570  0.69920  Biso   1.000  C
  H10      1.0000 0.21510  0.88740  0.70020  Biso   1.000  H
  C19      1.0000 0.91420  0.93020  0.54010  Biso   1.000  C
  H11      1.0000 0.85500  0.88270  0.56670  Biso   1.000  H
  C20      1.0000 0.03660  0.84600  0.56180  Biso   1.000  C
  C21      1.0000 0.12300  0.91650  0.52010  Biso   1.000  C
  C22      1.0000 0.25720  0.83010  0.53570  Biso   1.000  C
  O6       1.0000 0.38560  0.53930  0.88148  Biso   1.000  O
  O7       1.0000 0.36090  0.87420  0.84587  Biso   1.000  O
  O8       1.0000 0.27570  0.63680  0.53394  Biso   1.000  O
  O9       1.0000 0.34400  0.96600  0.54811  Biso   1.000  O
  O10      1.0000 0.55560  0.69020  0.51694  Biso   1.000  O
  H12      1.0000 0.63470  0.69020  0.54230  Biso   1.000  H
  Co3      1.0000 0.46541  0.99689  0.08394  Biso   1.000  Co
  C23      1.0000 0.33140  0.81700  0.33640  Biso   1.000  C
  C24      1.0000 0.22320  0.87970  0.26430  Biso   1.000  C
  C25      1.0000 0.16590  0.07680  0.26090  Biso   1.000  C
  H13      1.0000 0.19660  0.17220  0.30310  Biso   1.000  H
  C26      1.0000 0.06460  0.13080  0.19580  Biso   1.000  C
  H14      1.0000 0.02600  0.26100  0.19510  Biso   1.000  H
  C27      1.0000 0.01950  0.99310  0.13120  Biso   1.000  C
  H15      1.0000 0.95000  0.02970  0.08770  Biso   1.000  H
  C28      1.0000 0.07800  0.80260  0.13170  Biso   1.000  C
  C29      1.0000 0.17820  0.74430  0.19920  Biso   1.000  C
  H16      1.0000 0.21510  0.61260  0.20020  Biso   1.000  H
  C30      1.0000 0.91420  0.56980  0.04010  Biso   1.000  C
  H17      1.0000 0.85500  0.61730  0.06670  Biso   1.000  H
  C31      1.0000 0.03660  0.65400  0.06180  Biso   1.000  C
  C32      1.0000 0.12300  0.58350  0.02010  Biso   1.000  C
  C33      1.0000 0.25720  0.66990  0.03570  Biso   1.000  C
  O11      1.0000 0.38560  0.96070  0.38148  Biso   1.000  O
  O12      1.0000 0.36090  0.62580  0.34587  Biso   1.000  O
  O13      1.0000 0.27570  0.86320  0.03394  Biso   1.000  O
  O14      1.0000 0.34400  0.53400  0.04811  Biso   1.000  O
  O15      1.0000 0.55560  0.80980  0.01694  Biso   1.000  O
  H18      1.0000 0.63470  0.80980  0.04230  Biso   1.000  H
  Co4      1.0000 0.53459  0.49689  0.41606  Biso   1.000  Co
  C34      1.0000 0.66860  0.31700  0.16360  Biso   1.000  C
  C35      1.0000 0.77680  0.37970  0.23570  Biso   1.000  C
  C36      1.0000 0.83410  0.57680  0.23910  Biso   1.000  C
  H19      1.0000 0.80340  0.67220  0.19690  Biso   1.000  H
  C37      1.0000 0.93540  0.63080  0.30420  Biso   1.000  C
  H20      1.0000 0.97400  0.76100  0.30490  Biso   1.000  H
  C38      1.0000 0.98050  0.49310  0.36880  Biso   1.000  C
  H21      1.0000 0.05000  0.52970  0.41230  Biso   1.000  H
  C39      1.0000 0.92200  0.30260  0.36830  Biso   1.000  C
  C40      1.0000 0.82180  0.24430  0.30080  Biso   1.000  C
  H22      1.0000 0.78490  0.11260  0.29980  Biso   1.000  H
  C41      1.0000 0.08580  0.06980  0.45990  Biso   1.000  C
  H23      1.0000 0.14500  0.11730  0.43330  Biso   1.000  H
  C42      1.0000 0.96340  0.15400  0.43820  Biso   1.000  C
  C43      1.0000 0.87700  0.08350  0.47990  Biso   1.000  C
  C44      1.0000 0.74280  0.16990  0.46430  Biso   1.000  C
  O16      1.0000 0.61440  0.46070  0.11852  Biso   1.000  O
  O17      1.0000 0.63910  0.12580  0.15413  Biso   1.000  O
  O18      1.0000 0.72430  0.36320  0.46606  Biso   1.000  O
  O19      1.0000 0.65600  0.03400  0.45189  Biso   1.000  O
  O20      1.0000 0.44440  0.30980  0.48306  Biso   1.000  O
  H24      1.0000 0.36530  0.30980  0.45770  Biso   1.000  H
  Co5      1.0000 0.50000  0.50000  0.00000  Biso   1.000  Co
  Co6      1.0000 0.50000  0.00000  0.50000  Biso   1.000  Co
