data_image0
_cell_length_a       10.911
_cell_length_b       6.413
_cell_length_c       17.045
_cell_angle_alpha    90
_cell_angle_beta     105.867
_cell_angle_gamma    90

_symmetry_space_group_name_H-M    "P 1"
_symmetry_int_tables_number       1

loop_
  _symmetry_equiv_pos_as_xyz
  'x, y, z'

loop_
  _atom_site_label
  _atom_site_occupancy
  _atom_site_fract_x
  _atom_site_fract_y
  _atom_site_fract_z
  _atom_site_thermal_displace_type
  _atom_site_B_iso_or_equiv
  _atom_site_type_symbol
  Co1      1.0000 0.53436  0.99644  0.41579  Biso   1.000  Co
  O1       1.0000 0.35990  0.12640  0.34520  Biso   1.000  O
  O2       1.0000 0.38420  0.46270  0.38150  Biso   1.000  O
  O3       1.0000 0.34330  0.03260  0.04860  Biso   1.000  O
  O4       1.0000 0.27590  0.36160  0.03460  Biso   1.000  O
  O5       1.0000 0.44310  0.80980  0.48260  Biso   1.000  O
  H1       1.0000 0.35230  0.80970  0.45350  Biso   1.000  H
  C1       1.0000 0.33040  0.31510  0.33600  Biso   1.000  C
  C2       1.0000 0.22140  0.38320  0.26420  Biso   1.000  C
  C3       1.0000 0.17850  0.24450  0.19860  Biso   1.000  C
  H2       1.0000 0.21710  0.11470  0.20000  Biso   1.000  H
  C4       1.0000 0.07800  0.30020  0.13120  Biso   1.000  C
  C5       1.0000 0.01870  0.49440  0.13080  Biso   1.000  C
  H3       1.0000 0.94910  0.53040  0.08770  Biso   1.000  H
  C6       1.0000 0.06450  0.63410  0.19540  Biso   1.000  C
  H4       1.0000 0.02650  0.76390  0.19500  Biso   1.000  H
  C7       1.0000 0.16730  0.57690  0.26010  Biso   1.000  C
  H5       1.0000 0.20010  0.67240  0.30160  Biso   1.000  H
  C8       1.0000 0.03840  0.15220  0.06180  Biso   1.000  C
  C9       1.0000 0.91510  0.06930  0.03980  Biso   1.000  C
  H6       1.0000 0.85620  0.11810  0.06580  Biso   1.000  H
  C10      1.0000 0.12230  0.08490  0.02020  Biso   1.000  C
  C11      1.0000 0.25900  0.17040  0.03650  Biso   1.000  C
  Co2      1.0000 0.46564  0.49644  0.08421  Biso   1.000  Co
  O6       1.0000 0.64010  0.62640  0.15480  Biso   1.000  O
  O7       1.0000 0.61580  0.96270  0.11850  Biso   1.000  O
  O8       1.0000 0.65670  0.53260  0.45140  Biso   1.000  O
  O9       1.0000 0.72410  0.86160  0.46540  Biso   1.000  O
  O10      1.0000 0.55690  0.30980  0.01740  Biso   1.000  O
  H7       1.0000 0.64770  0.30970  0.04650  Biso   1.000  H
  C12      1.0000 0.66960  0.81510  0.16400  Biso   1.000  C
  C13      1.0000 0.77860  0.88320  0.23580  Biso   1.000  C
  C14      1.0000 0.82150  0.74450  0.30140  Biso   1.000  C
  H8       1.0000 0.78290  0.61470  0.30000  Biso   1.000  H
  C15      1.0000 0.92200  0.80020  0.36880  Biso   1.000  C
  C16      1.0000 0.98130  0.99440  0.36920  Biso   1.000  C
  H9       1.0000 0.05090  0.03040  0.41230  Biso   1.000  H
  C17      1.0000 0.93550  0.13410  0.30460  Biso   1.000  C
  H10      1.0000 0.97350  0.26390  0.30500  Biso   1.000  H
  C18      1.0000 0.83270  0.07690  0.23990  Biso   1.000  C
  H11      1.0000 0.79990  0.17240  0.19840  Biso   1.000  H
  C19      1.0000 0.96160  0.65220  0.43820  Biso   1.000  C
  C20      1.0000 0.08490  0.56930  0.46020  Biso   1.000  C
  H12      1.0000 0.14380  0.61810  0.43420  Biso   1.000  H
  C21      1.0000 0.87770  0.58490  0.47980  Biso   1.000  C
  C22      1.0000 0.74100  0.67040  0.46350  Biso   1.000  C
  Co3      1.0000 0.46564  0.00356  0.58421  Biso   1.000  Co
  O11      1.0000 0.64010  0.87360  0.65480  Biso   1.000  O
  O12      1.0000 0.61580  0.53730  0.61850  Biso   1.000  O
  O13      1.0000 0.65670  0.96740  0.95140  Biso   1.000  O
  O14      1.0000 0.72410  0.63840  0.96540  Biso   1.000  O
  O15      1.0000 0.55690  0.19020  0.51740  Biso   1.000  O
  H13      1.0000 0.64770  0.19030  0.54650  Biso   1.000  H
  C23      1.0000 0.66960  0.68490  0.66400  Biso   1.000  C
  C24      1.0000 0.77860  0.61680  0.73580  Biso   1.000  C
  C25      1.0000 0.82150  0.75550  0.80140  Biso   1.000  C
  H14      1.0000 0.78290  0.88530  0.80000  Biso   1.000  H
  C26      1.0000 0.92200  0.69980  0.86880  Biso   1.000  C
  C27      1.0000 0.98130  0.50560  0.86920  Biso   1.000  C
  H15      1.0000 0.05090  0.46960  0.91230  Biso   1.000  H
  C28      1.0000 0.93550  0.36590  0.80460  Biso   1.000  C
  H16      1.0000 0.97350  0.23610  0.80500  Biso   1.000  H
  C29      1.0000 0.83270  0.42310  0.73990  Biso   1.000  C
  H17      1.0000 0.79990  0.32760  0.69840  Biso   1.000  H
  C30      1.0000 0.96160  0.84780  0.93820  Biso   1.000  C
  C31      1.0000 0.08490  0.93070  0.96020  Biso   1.000  C
  H18      1.0000 0.14380  0.88190  0.93420  Biso   1.000  H
  C32      1.0000 0.87770  0.91510  0.97980  Biso   1.000  C
  C33      1.0000 0.74100  0.82960  0.96350  Biso   1.000  C
  Co4      1.0000 0.53436  0.50356  0.91579  Biso   1.000  Co
  O16      1.0000 0.35990  0.37360  0.84520  Biso   1.000  O
  O17      1.0000 0.38420  0.03730  0.88150  Biso   1.000  O
  O18      1.0000 0.34330  0.46740  0.54860  Biso   1.000  O
  O19      1.0000 0.27590  0.13840  0.53460  Biso   1.000  O
  O20      1.0000 0.44310  0.69020  0.98260  Biso   1.000  O
  H19      1.0000 0.35230  0.69030  0.95350  Biso   1.000  H
  C34      1.0000 0.33040  0.18490  0.83600  Biso   1.000  C
  C35      1.0000 0.22140  0.11680  0.76420  Biso   1.000  C
  C36      1.0000 0.17850  0.25550  0.69860  Biso   1.000  C
  H20      1.0000 0.21710  0.38530  0.70000  Biso   1.000  H
  C37      1.0000 0.07800  0.19980  0.63120  Biso   1.000  C
  C38      1.0000 0.01870  0.00560  0.63080  Biso   1.000  C
  H21      1.0000 0.94910  0.96960  0.58770  Biso   1.000  H
  C39      1.0000 0.06450  0.86590  0.69540  Biso   1.000  C
  H22      1.0000 0.02650  0.73610  0.69500  Biso   1.000  H
  C40      1.0000 0.16730  0.92310  0.76010  Biso   1.000  C
  H23      1.0000 0.20010  0.82760  0.80160  Biso   1.000  H
  C41      1.0000 0.03840  0.34780  0.56180  Biso   1.000  C
  C42      1.0000 0.91510  0.43070  0.53980  Biso   1.000  C
  H24      1.0000 0.85620  0.38190  0.56580  Biso   1.000  H
  C43      1.0000 0.12230  0.41510  0.52020  Biso   1.000  C
  C44      1.0000 0.25900  0.32960  0.53650  Biso   1.000  C
  Co5      1.0000 0.50000  0.50000  0.50000  Biso   1.000  Co
  Co6      1.0000 0.50000  0.00000  0.00000  Biso   1.000  Co
