data_EKOPIE_clean
_audit_creation_date              2014-07-02
_audit_creation_method            'Materials Studio'
_symmetry_space_group_name_H-M    'P1'
_symmetry_Int_Tables_number       1
_symmetry_cell_setting            triclinic
loop_
_symmetry_equiv_pos_as_xyz
  x,y,z
_cell_length_a                    13.2142
_cell_length_b                    17.4938
_cell_length_c                    17.4938
_cell_angle_alpha                 90.0000
_cell_angle_beta                  90.0000
_cell_angle_gamma                 90.0000
loop_
_atom_site_label
_atom_site_type_symbol
_atom_site_fract_x
_atom_site_fract_y
_atom_site_fract_z
_atom_site_U_iso_or_equiv
_atom_site_adp_type
_atom_site_occupancy
Sr1    Sr    0.05332   0.86070   0.61179   0.01267  Uiso   1.00
Sr2    Sr    0.55332   0.13930   0.38821   0.01267  Uiso   1.00
Sr3    Sr    0.30332   0.88821   0.36070   0.01267  Uiso   1.00
Sr4    Sr    0.80332   0.11179   0.63930   0.01267  Uiso   1.00
Sr5    Sr    0.19668   0.63930   0.11179   0.01267  Uiso   1.00
Sr6    Sr    0.69668   0.36070   0.88821   0.01267  Uiso   1.00
Sr7    Sr    0.94668   0.61179   0.86070   0.01267  Uiso   1.00
Sr8    Sr    0.44668   0.38821   0.13930   0.01267  Uiso   1.00
Cd1    Cd    0.00000   0.66520   0.66520   0.01267  Uiso   1.00
Cd2    Cd    0.50000   0.33480   0.33480   0.01267  Uiso   1.00
Cd3    Cd    0.25000   0.83480   0.16520   0.01267  Uiso   1.00
Cd4    Cd    0.75000   0.16520   0.83480   0.01267  Uiso   1.00
H1     H     0.83610   0.62070   0.41980   0.01267  Uiso   1.00
H2     H     0.82740   0.62230   0.28910   0.01267  Uiso   1.00
H3     H     0.95040   0.68620   0.21800   0.01267  Uiso   1.00
H4     H     0.07830   0.75830   0.41300   0.01267  Uiso   1.00
H5     H     0.33610   0.37930   0.58020   0.01267  Uiso   1.00
H6     H     0.32740   0.37770   0.71090   0.01267  Uiso   1.00
H7     H     0.45040   0.31380   0.78200   0.01267  Uiso   1.00
H8     H     0.57830   0.24170   0.58700   0.01267  Uiso   1.00
H9     H     0.08610   0.08020   0.12070   0.01267  Uiso   1.00
H10    H     0.07740   0.21090   0.12230   0.01267  Uiso   1.00
H11    H     0.20040   0.28200   0.18620   0.01267  Uiso   1.00
H12    H     0.32830   0.08700   0.25830   0.01267  Uiso   1.00
H13    H     0.58610   0.91980   0.87930   0.01267  Uiso   1.00
H14    H     0.57740   0.78910   0.87770   0.01267  Uiso   1.00
H15    H     0.70040   0.71800   0.81380   0.01267  Uiso   1.00
H16    H     0.82830   0.91300   0.74170   0.01267  Uiso   1.00
H17    H     0.41390   0.87930   0.91980   0.01267  Uiso   1.00
H18    H     0.42260   0.87770   0.78910   0.01267  Uiso   1.00
H19    H     0.29960   0.81380   0.71800   0.01267  Uiso   1.00
H20    H     0.17170   0.74170   0.91300   0.01267  Uiso   1.00
H21    H     0.91390   0.12070   0.08020   0.01267  Uiso   1.00
H22    H     0.92260   0.12230   0.21090   0.01267  Uiso   1.00
H23    H     0.79960   0.18620   0.28200   0.01267  Uiso   1.00
H24    H     0.67170   0.25830   0.08700   0.01267  Uiso   1.00
H25    H     0.16390   0.41980   0.62070   0.01267  Uiso   1.00
H26    H     0.17260   0.28910   0.62230   0.01267  Uiso   1.00
H27    H     0.04960   0.21800   0.68620   0.01267  Uiso   1.00
H28    H     0.92170   0.41300   0.75830   0.01267  Uiso   1.00
H29    H     0.66390   0.58020   0.37930   0.01267  Uiso   1.00
H30    H     0.67260   0.71090   0.37770   0.01267  Uiso   1.00
H31    H     0.54960   0.78200   0.31380   0.01267  Uiso   1.00
H32    H     0.42170   0.58700   0.24170   0.01267  Uiso   1.00
C1     C     0.96640   0.68660   0.51540   0.01267  Uiso   1.00
C2     C     0.10570   0.77080   0.26370   0.01267  Uiso   1.00
C3     C     0.95860   0.68950   0.42900   0.01267  Uiso   1.00
C4     C     0.88340   0.64830   0.39170   0.01267  Uiso   1.00
C5     C     0.87910   0.64850   0.31400   0.01267  Uiso   1.00
C6     C     0.95190   0.68790   0.27110   0.01267  Uiso   1.00
C7     C     0.02650   0.72970   0.30890   0.01267  Uiso   1.00
C8     C     0.02890   0.73020   0.38760   0.01267  Uiso   1.00
C9     C     0.46640   0.31340   0.48460   0.01267  Uiso   1.00
C10    C     0.60570   0.22920   0.73630   0.01267  Uiso   1.00
C11    C     0.45860   0.31050   0.57100   0.01267  Uiso   1.00
C12    C     0.38340   0.35170   0.60830   0.01267  Uiso   1.00
C13    C     0.37910   0.35150   0.68600   0.01267  Uiso   1.00
C14    C     0.45190   0.31210   0.72890   0.01267  Uiso   1.00
C15    C     0.52650   0.27030   0.69110   0.01267  Uiso   1.00
C16    C     0.52890   0.26980   0.61240   0.01267  Uiso   1.00
C17    C     0.21640   0.98460   0.18660   0.01267  Uiso   1.00
C18    C     0.35570   0.23630   0.27080   0.01267  Uiso   1.00
C19    C     0.20860   0.07100   0.18950   0.01267  Uiso   1.00
C20    C     0.13340   0.10830   0.14830   0.01267  Uiso   1.00
C21    C     0.12910   0.18600   0.14850   0.01267  Uiso   1.00
C22    C     0.20190   0.22890   0.18790   0.01267  Uiso   1.00
C23    C     0.27650   0.19110   0.22970   0.01267  Uiso   1.00
C24    C     0.27890   0.11240   0.23020   0.01267  Uiso   1.00
C25    C     0.71640   0.01540   0.81340   0.01267  Uiso   1.00
C26    C     0.85570   0.76370   0.72920   0.01267  Uiso   1.00
C27    C     0.70860   0.92900   0.81050   0.01267  Uiso   1.00
C28    C     0.63340   0.89170   0.85170   0.01267  Uiso   1.00
C29    C     0.62910   0.81400   0.85150   0.01267  Uiso   1.00
C30    C     0.70190   0.77110   0.81210   0.01267  Uiso   1.00
C31    C     0.77650   0.80890   0.77030   0.01267  Uiso   1.00
C32    C     0.77890   0.88760   0.76980   0.01267  Uiso   1.00
C33    C     0.28360   0.81340   0.01540   0.01267  Uiso   1.00
C34    C     0.14430   0.72920   0.76370   0.01267  Uiso   1.00
C35    C     0.29140   0.81050   0.92900   0.01267  Uiso   1.00
C36    C     0.36660   0.85170   0.89170   0.01267  Uiso   1.00
C37    C     0.37090   0.85150   0.81400   0.01267  Uiso   1.00
C38    C     0.29810   0.81210   0.77110   0.01267  Uiso   1.00
C39    C     0.22350   0.77030   0.80890   0.01267  Uiso   1.00
C40    C     0.22110   0.76980   0.88760   0.01267  Uiso   1.00
C41    C     0.78360   0.18660   0.98460   0.01267  Uiso   1.00
C42    C     0.64430   0.27080   0.23630   0.01267  Uiso   1.00
C43    C     0.79140   0.18950   0.07100   0.01267  Uiso   1.00
C44    C     0.86660   0.14830   0.10830   0.01267  Uiso   1.00
C45    C     0.87090   0.14850   0.18600   0.01267  Uiso   1.00
C46    C     0.79810   0.18790   0.22890   0.01267  Uiso   1.00
C47    C     0.72350   0.22970   0.19110   0.01267  Uiso   1.00
C48    C     0.72110   0.23020   0.11240   0.01267  Uiso   1.00
C49    C     0.03360   0.51540   0.68660   0.01267  Uiso   1.00
C50    C     0.89430   0.26370   0.77080   0.01267  Uiso   1.00
C51    C     0.04140   0.42900   0.68950   0.01267  Uiso   1.00
C52    C     0.11660   0.39170   0.64830   0.01267  Uiso   1.00
C53    C     0.12090   0.31400   0.64850   0.01267  Uiso   1.00
C54    C     0.04810   0.27110   0.68790   0.01267  Uiso   1.00
C55    C     0.97350   0.30890   0.72970   0.01267  Uiso   1.00
C56    C     0.97110   0.38760   0.73020   0.01267  Uiso   1.00
C57    C     0.53360   0.48460   0.31340   0.01267  Uiso   1.00
C58    C     0.39430   0.73630   0.22920   0.01267  Uiso   1.00
C59    C     0.54140   0.57100   0.31050   0.01267  Uiso   1.00
C60    C     0.61660   0.60830   0.35170   0.01267  Uiso   1.00
C61    C     0.62090   0.68600   0.35150   0.01267  Uiso   1.00
C62    C     0.54810   0.72890   0.31210   0.01267  Uiso   1.00
C63    C     0.47350   0.69110   0.27030   0.01267  Uiso   1.00
C64    C     0.47110   0.61240   0.26980   0.01267  Uiso   1.00
N1     N     0.26180   0.89750   0.53790   0.01267  Uiso   1.00
N2     N     0.76180   0.10250   0.46210   0.01267  Uiso   1.00
N3     N     0.51180   0.96210   0.39750   0.01267  Uiso   1.00
N4     N     0.01180   0.03790   0.60250   0.01267  Uiso   1.00
N5     N     0.98820   0.60250   0.03790   0.01267  Uiso   1.00
N6     N     0.48820   0.39750   0.96210   0.01267  Uiso   1.00
N7     N     0.73820   0.53790   0.89750   0.01267  Uiso   1.00
N8     N     0.23820   0.46210   0.10250   0.01267  Uiso   1.00
O1     O     0.90790   0.64510   0.55170   0.01267  Uiso   1.00
O2     O     0.03580   0.72490   0.54730   0.01267  Uiso   1.00
O3     O     0.11830   0.75360   0.19470   0.01267  Uiso   1.00
O4     O     0.15850   0.81980   0.29730   0.01267  Uiso   1.00
O5     O     0.25240   0.89530   0.60880   0.01267  Uiso   1.00
O6     O     0.19050   0.87250   0.49730   0.01267  Uiso   1.00
O7     O     0.33830   0.92330   0.50800   0.01267  Uiso   1.00
O8     O     0.40790   0.35490   0.44830   0.01267  Uiso   1.00
O9     O     0.53580   0.27510   0.45270   0.01267  Uiso   1.00
O10    O     0.61830   0.24640   0.80530   0.01267  Uiso   1.00
O11    O     0.65850   0.18020   0.70270   0.01267  Uiso   1.00
O12    O     0.75240   0.10470   0.39120   0.01267  Uiso   1.00
O13    O     0.69050   0.12750   0.50270   0.01267  Uiso   1.00
O14    O     0.83830   0.07670   0.49200   0.01267  Uiso   1.00
O15    O     0.15790   0.94830   0.14510   0.01267  Uiso   1.00
O16    O     0.28580   0.95270   0.22490   0.01267  Uiso   1.00
O17    O     0.36830   0.30530   0.25360   0.01267  Uiso   1.00
O18    O     0.40850   0.20270   0.31980   0.01267  Uiso   1.00
O19    O     0.50240   0.89120   0.39530   0.01267  Uiso   1.00
O20    O     0.44050   0.00270   0.37250   0.01267  Uiso   1.00
O21    O     0.58830   0.99200   0.42330   0.01267  Uiso   1.00
O22    O     0.65790   0.05170   0.85490   0.01267  Uiso   1.00
O23    O     0.78580   0.04730   0.77510   0.01267  Uiso   1.00
O24    O     0.86830   0.69470   0.74640   0.01267  Uiso   1.00
O25    O     0.90850   0.79730   0.68020   0.01267  Uiso   1.00
O26    O     0.00240   0.10880   0.60470   0.01267  Uiso   1.00
O27    O     0.94050   0.99730   0.62750   0.01267  Uiso   1.00
O28    O     0.08830   0.00800   0.57670   0.01267  Uiso   1.00
O29    O     0.34210   0.85490   0.05170   0.01267  Uiso   1.00
O30    O     0.21420   0.77510   0.04730   0.01267  Uiso   1.00
O31    O     0.13170   0.74640   0.69470   0.01267  Uiso   1.00
O32    O     0.09150   0.68020   0.79730   0.01267  Uiso   1.00
O33    O     0.99760   0.60470   0.10880   0.01267  Uiso   1.00
O34    O     0.05950   0.62750   0.99730   0.01267  Uiso   1.00
O35    O     0.91170   0.57670   0.00800   0.01267  Uiso   1.00
O36    O     0.84210   0.14510   0.94830   0.01267  Uiso   1.00
O37    O     0.71420   0.22490   0.95270   0.01267  Uiso   1.00
O38    O     0.63170   0.25360   0.30530   0.01267  Uiso   1.00
O39    O     0.59150   0.31980   0.20270   0.01267  Uiso   1.00
O40    O     0.49760   0.39530   0.89120   0.01267  Uiso   1.00
O41    O     0.55950   0.37250   0.00270   0.01267  Uiso   1.00
O42    O     0.41170   0.42330   0.99200   0.01267  Uiso   1.00
O43    O     0.09210   0.55170   0.64510   0.01267  Uiso   1.00
O44    O     0.96420   0.54730   0.72490   0.01267  Uiso   1.00
O45    O     0.88170   0.19470   0.75360   0.01267  Uiso   1.00
O46    O     0.84150   0.29730   0.81980   0.01267  Uiso   1.00
O47    O     0.74760   0.60880   0.89530   0.01267  Uiso   1.00
O48    O     0.80950   0.49730   0.87250   0.01267  Uiso   1.00
O49    O     0.66170   0.50800   0.92330   0.01267  Uiso   1.00
O50    O     0.59210   0.44830   0.35490   0.01267  Uiso   1.00
O51    O     0.46420   0.45270   0.27510   0.01267  Uiso   1.00
O52    O     0.38170   0.80530   0.24640   0.01267  Uiso   1.00
O53    O     0.34150   0.70270   0.18020   0.01267  Uiso   1.00
O54    O     0.24760   0.39120   0.10470   0.01267  Uiso   1.00
O55    O     0.30950   0.50270   0.12750   0.01267  Uiso   1.00
O56    O     0.16170   0.49200   0.07670   0.01267  Uiso   1.00
