data_EKOPUQ_clean
_audit_creation_date              2014-07-02
_audit_creation_method            'Materials Studio'
_symmetry_space_group_name_H-M    'P1'
_symmetry_Int_Tables_number       1
_symmetry_cell_setting            triclinic
loop_
_symmetry_equiv_pos_as_xyz
  x,y,z
_cell_length_a                    9.9593
_cell_length_b                    19.8227
_cell_length_c                    19.8227
_cell_angle_alpha                 90.0000
_cell_angle_beta                  90.0000
_cell_angle_gamma                 90.0000
loop_
_atom_site_label
_atom_site_type_symbol
_atom_site_fract_x
_atom_site_fract_y
_atom_site_fract_z
_atom_site_U_iso_or_equiv
_atom_site_adp_type
_atom_site_occupancy
Ca1    Ca    0.00000   0.00000   0.50000   0.01267  Uiso   1.00
Ca2    Ca    0.00000   0.50000   0.00000   0.01267  Uiso   1.00
Cd1    Cd    1.00000   0.07081   0.65752   0.01267  Uiso   1.00
Cd2    Cd    1.00000   0.92919   0.34248   0.01267  Uiso   1.00
Cd3    Cd    1.00000   0.34248   0.07081   0.01267  Uiso   1.00
Cd4    Cd    1.00000   0.65752   0.92919   0.01267  Uiso   1.00
H1     H     0.12850   0.69090   0.47310   0.01267  Uiso   1.00
H2     H     0.12170   0.76470   0.50130   0.01267  Uiso   1.00
H3     H     0.20450   0.70950   0.53980   0.01267  Uiso   1.00
H4     H     0.07870   0.61830   0.60090   0.01267  Uiso   1.00
H5     H     0.70080   0.88950   0.53430   0.01267  Uiso   1.00
H6     H     0.42130   0.76610   0.59500   0.01267  Uiso   1.00
H7     H     0.38540   0.86280   0.70090   0.01267  Uiso   1.00
H8     H     0.38360   0.92910   0.65790   0.01267  Uiso   1.00
H9     H     0.30290   0.86570   0.63360   0.01267  Uiso   1.00
H10    H     0.12850   0.30910   0.52690   0.01267  Uiso   1.00
H11    H     0.12170   0.23530   0.49870   0.01267  Uiso   1.00
H12    H     0.20450   0.29050   0.46020   0.01267  Uiso   1.00
H13    H     0.07870   0.38170   0.39910   0.01267  Uiso   1.00
H14    H     0.70080   0.11050   0.46570   0.01267  Uiso   1.00
H15    H     0.42130   0.23390   0.40500   0.01267  Uiso   1.00
H16    H     0.38540   0.13720   0.29910   0.01267  Uiso   1.00
H17    H     0.38360   0.07090   0.34210   0.01267  Uiso   1.00
H18    H     0.30290   0.13430   0.36640   0.01267  Uiso   1.00
H19    H     0.12850   0.52690   0.69090   0.01267  Uiso   1.00
H20    H     0.12170   0.49870   0.76470   0.01267  Uiso   1.00
H21    H     0.20450   0.46020   0.70950   0.01267  Uiso   1.00
H22    H     0.07870   0.39910   0.61830   0.01267  Uiso   1.00
H23    H     0.70080   0.46570   0.88950   0.01267  Uiso   1.00
H24    H     0.42130   0.40500   0.76610   0.01267  Uiso   1.00
H25    H     0.38540   0.29910   0.86280   0.01267  Uiso   1.00
H26    H     0.38360   0.34210   0.92910   0.01267  Uiso   1.00
H27    H     0.30290   0.36640   0.86570   0.01267  Uiso   1.00
H28    H     0.12850   0.47310   0.30910   0.01267  Uiso   1.00
H29    H     0.12170   0.50130   0.23530   0.01267  Uiso   1.00
H30    H     0.20450   0.53980   0.29050   0.01267  Uiso   1.00
H31    H     0.07870   0.60090   0.38170   0.01267  Uiso   1.00
H32    H     0.70080   0.53430   0.11050   0.01267  Uiso   1.00
H33    H     0.42130   0.59500   0.23390   0.01267  Uiso   1.00
H34    H     0.38540   0.70090   0.13720   0.01267  Uiso   1.00
H35    H     0.38360   0.65790   0.07090   0.01267  Uiso   1.00
H36    H     0.30290   0.63360   0.13430   0.01267  Uiso   1.00
H37    H     0.87150   0.30910   0.52690   0.01267  Uiso   1.00
H38    H     0.87830   0.23530   0.49870   0.01267  Uiso   1.00
H39    H     0.79550   0.29050   0.46020   0.01267  Uiso   1.00
H40    H     0.92130   0.38170   0.39910   0.01267  Uiso   1.00
H41    H     0.29920   0.11050   0.46570   0.01267  Uiso   1.00
H42    H     0.57870   0.23390   0.40500   0.01267  Uiso   1.00
H43    H     0.61460   0.13720   0.29910   0.01267  Uiso   1.00
H44    H     0.61640   0.07090   0.34210   0.01267  Uiso   1.00
H45    H     0.69710   0.13430   0.36640   0.01267  Uiso   1.00
H46    H     0.87150   0.69090   0.47310   0.01267  Uiso   1.00
H47    H     0.87830   0.76470   0.50130   0.01267  Uiso   1.00
H48    H     0.79550   0.70950   0.53980   0.01267  Uiso   1.00
H49    H     0.92130   0.61830   0.60090   0.01267  Uiso   1.00
H50    H     0.29920   0.88950   0.53430   0.01267  Uiso   1.00
H51    H     0.57870   0.76610   0.59500   0.01267  Uiso   1.00
H52    H     0.61460   0.86280   0.70090   0.01267  Uiso   1.00
H53    H     0.61640   0.92910   0.65790   0.01267  Uiso   1.00
H54    H     0.69710   0.86570   0.63360   0.01267  Uiso   1.00
H55    H     0.87150   0.47310   0.30910   0.01267  Uiso   1.00
H56    H     0.87830   0.50130   0.23530   0.01267  Uiso   1.00
H57    H     0.79550   0.53980   0.29050   0.01267  Uiso   1.00
H58    H     0.92130   0.60090   0.38170   0.01267  Uiso   1.00
H59    H     0.29920   0.53430   0.11050   0.01267  Uiso   1.00
H60    H     0.57870   0.59500   0.23390   0.01267  Uiso   1.00
H61    H     0.61460   0.70090   0.13720   0.01267  Uiso   1.00
H62    H     0.61640   0.65790   0.07090   0.01267  Uiso   1.00
H63    H     0.69710   0.63360   0.13430   0.01267  Uiso   1.00
H64    H     0.87150   0.52690   0.69090   0.01267  Uiso   1.00
H65    H     0.87830   0.49870   0.76470   0.01267  Uiso   1.00
H66    H     0.79550   0.46020   0.70950   0.01267  Uiso   1.00
H67    H     0.92130   0.39910   0.61830   0.01267  Uiso   1.00
H68    H     0.29920   0.46570   0.88950   0.01267  Uiso   1.00
H69    H     0.57870   0.40500   0.76610   0.01267  Uiso   1.00
H70    H     0.61460   0.29910   0.86280   0.01267  Uiso   1.00
H71    H     0.61640   0.34210   0.92910   0.01267  Uiso   1.00
H72    H     0.69710   0.36640   0.86570   0.01267  Uiso   1.00
H73    H     1.00000   0.85260   0.77420   0.01267  Uiso   1.00
H74    H     1.00000   0.66970   0.68700   0.01267  Uiso   1.00
H75    H     1.00000   0.83340   0.57190   0.01267  Uiso   1.00
H76    H     0.00000   0.59980   0.53490   0.01267  Uiso   1.00
H77    H     1.00000   0.14740   0.22580   0.01267  Uiso   1.00
H78    H     1.00000   0.33030   0.31300   0.01267  Uiso   1.00
H79    H     1.00000   0.16660   0.42810   0.01267  Uiso   1.00
H80    H     1.00000   0.40020   0.46510   0.01267  Uiso   1.00
H81    H     1.00000   0.22580   0.85260   0.01267  Uiso   1.00
H82    H     1.00000   0.31300   0.66970   0.01267  Uiso   1.00
H83    H     1.00000   0.42810   0.83340   0.01267  Uiso   1.00
H84    H     0.00000   0.46510   0.59980   0.01267  Uiso   1.00
H85    H     1.00000   0.77420   0.14740   0.01267  Uiso   1.00
H86    H     1.00000   0.68700   0.33030   0.01267  Uiso   1.00
H87    H     1.00000   0.57190   0.16660   0.01267  Uiso   1.00
H88    H     0.00000   0.53490   0.40020   0.01267  Uiso   1.00
H89    H     0.50000   0.93390   0.36480   0.01267  Uiso   1.00
H90    H     0.50000   0.76550   0.66350   0.01267  Uiso   1.00
H91    H     0.50000   0.06610   0.63520   0.01267  Uiso   1.00
H92    H     0.50000   0.23450   0.33650   0.01267  Uiso   1.00
H93    H     0.50000   0.63520   0.93390   0.01267  Uiso   1.00
H94    H     0.50000   0.33650   0.76550   0.01267  Uiso   1.00
H95    H     0.50000   0.36480   0.06610   0.01267  Uiso   1.00
H96    H     0.50000   0.66350   0.23450   0.01267  Uiso   1.00
C1     C     0.75110   0.92480   0.41020   0.01267  Uiso   1.00
C2     C     0.12550   0.71780   0.51330   0.01267  Uiso   1.00
C3     C     0.62060   0.91390   0.44420   0.01267  Uiso   1.00
C4     C     0.61940   0.89510   0.51200   0.01267  Uiso   1.00
C5     C     0.38310   0.88070   0.65590   0.01267  Uiso   1.00
C6     C     0.75110   0.07520   0.58980   0.01267  Uiso   1.00
C7     C     0.12550   0.28220   0.48670   0.01267  Uiso   1.00
C8     C     0.62060   0.08610   0.55580   0.01267  Uiso   1.00
C9     C     0.61940   0.10490   0.48800   0.01267  Uiso   1.00
C10    C     0.38310   0.11930   0.34410   0.01267  Uiso   1.00
C11    C     0.75110   0.58980   0.92480   0.01267  Uiso   1.00
C12    C     0.12550   0.48670   0.71780   0.01267  Uiso   1.00
C13    C     0.62060   0.55580   0.91390   0.01267  Uiso   1.00
C14    C     0.61940   0.48800   0.89510   0.01267  Uiso   1.00
C15    C     0.38310   0.34410   0.88070   0.01267  Uiso   1.00
C16    C     0.75110   0.41020   0.07520   0.01267  Uiso   1.00
C17    C     0.12550   0.51330   0.28220   0.01267  Uiso   1.00
C18    C     0.62060   0.44420   0.08610   0.01267  Uiso   1.00
C19    C     0.61940   0.51200   0.10490   0.01267  Uiso   1.00
C20    C     0.38310   0.65590   0.11930   0.01267  Uiso   1.00
C21    C     0.24890   0.07520   0.58980   0.01267  Uiso   1.00
C22    C     0.87450   0.28220   0.48670   0.01267  Uiso   1.00
C23    C     0.37940   0.08610   0.55580   0.01267  Uiso   1.00
C24    C     0.38060   0.10490   0.48800   0.01267  Uiso   1.00
C25    C     0.61690   0.11930   0.34410   0.01267  Uiso   1.00
C26    C     0.24890   0.92480   0.41020   0.01267  Uiso   1.00
C27    C     0.87450   0.71780   0.51330   0.01267  Uiso   1.00
C28    C     0.37940   0.91390   0.44420   0.01267  Uiso   1.00
C29    C     0.38060   0.89510   0.51200   0.01267  Uiso   1.00
C30    C     0.61690   0.88070   0.65590   0.01267  Uiso   1.00
C31    C     0.24890   0.41020   0.07520   0.01267  Uiso   1.00
C32    C     0.87450   0.51330   0.28220   0.01267  Uiso   1.00
C33    C     0.37940   0.44420   0.08610   0.01267  Uiso   1.00
C34    C     0.38060   0.51200   0.10490   0.01267  Uiso   1.00
C35    C     0.61690   0.65590   0.11930   0.01267  Uiso   1.00
C36    C     0.24890   0.58980   0.92480   0.01267  Uiso   1.00
C37    C     0.87450   0.48670   0.71780   0.01267  Uiso   1.00
C38    C     0.37940   0.55580   0.91390   0.01267  Uiso   1.00
C39    C     0.38060   0.48800   0.89510   0.01267  Uiso   1.00
C40    C     0.61690   0.34410   0.88070   0.01267  Uiso   1.00
C41    C     1.00000   0.92900   0.66260   0.01267  Uiso   1.00
C42    C     1.00000   0.72250   0.80960   0.01267  Uiso   1.00
C43    C     0.00000   0.85410   0.67090   0.01267  Uiso   1.00
C44    C     0.00000   0.82540   0.73590   0.01267  Uiso   1.00
C45    C     1.00000   0.75580   0.74140   0.01267  Uiso   1.00
C46    C     1.00000   0.71650   0.68300   0.01267  Uiso   1.00
C47    C     1.00000   0.74450   0.61990   0.01267  Uiso   1.00
C48    C     0.00000   0.81360   0.61440   0.01267  Uiso   1.00
C49    C     0.00000   0.69910   0.55460   0.01267  Uiso   1.00
C50    C     1.00000   0.62770   0.57450   0.01267  Uiso   1.00
C51    C     1.00000   0.07100   0.33740   0.01267  Uiso   1.00
C52    C     1.00000   0.27750   0.19040   0.01267  Uiso   1.00
C53    C     1.00000   0.14590   0.32910   0.01267  Uiso   1.00
C54    C     1.00000   0.17460   0.26410   0.01267  Uiso   1.00
C55    C     1.00000   0.24420   0.25860   0.01267  Uiso   1.00
C56    C     1.00000   0.28350   0.31700   0.01267  Uiso   1.00
C57    C     0.00000   0.25550   0.38010   0.01267  Uiso   1.00
C58    C     1.00000   0.18640   0.38560   0.01267  Uiso   1.00
C59    C     0.00000   0.30090   0.44540   0.01267  Uiso   1.00
C60    C     1.00000   0.37230   0.42550   0.01267  Uiso   1.00
C61    C     1.00000   0.33740   0.92900   0.01267  Uiso   1.00
C62    C     1.00000   0.19040   0.72250   0.01267  Uiso   1.00
C63    C     0.00000   0.32910   0.85410   0.01267  Uiso   1.00
C64    C     1.00000   0.26410   0.82540   0.01267  Uiso   1.00
C65    C     1.00000   0.25860   0.75580   0.01267  Uiso   1.00
C66    C     1.00000   0.31700   0.71650   0.01267  Uiso   1.00
C67    C     0.00000   0.38010   0.74450   0.01267  Uiso   1.00
C68    C     1.00000   0.38560   0.81360   0.01267  Uiso   1.00
C69    C     0.00000   0.44540   0.69910   0.01267  Uiso   1.00
C70    C     0.00000   0.42550   0.62770   0.01267  Uiso   1.00
C71    C     1.00000   0.66260   0.07100   0.01267  Uiso   1.00
C72    C     1.00000   0.80960   0.27750   0.01267  Uiso   1.00
C73    C     1.00000   0.67090   0.14590   0.01267  Uiso   1.00
C74    C     1.00000   0.73590   0.17460   0.01267  Uiso   1.00
C75    C     1.00000   0.74140   0.24420   0.01267  Uiso   1.00
C76    C     1.00000   0.68300   0.28350   0.01267  Uiso   1.00
C77    C     0.00000   0.61990   0.25550   0.01267  Uiso   1.00
C78    C     1.00000   0.61440   0.18640   0.01267  Uiso   1.00
C79    C     0.00000   0.55460   0.30090   0.01267  Uiso   1.00
C80    C     0.00000   0.57450   0.37230   0.01267  Uiso   1.00
C81    C     0.50000   0.92240   0.41030   0.01267  Uiso   1.00
C82    C     0.50000   0.88450   0.54770   0.01267  Uiso   1.00
C83    C     0.50000   0.85740   0.61870   0.01267  Uiso   1.00
C84    C     0.50000   0.78200   0.61800   0.01267  Uiso   1.00
C85    C     0.50000   0.07760   0.58970   0.01267  Uiso   1.00
C86    C     0.50000   0.11550   0.45230   0.01267  Uiso   1.00
C87    C     0.50000   0.14260   0.38130   0.01267  Uiso   1.00
C88    C     0.50000   0.21800   0.38200   0.01267  Uiso   1.00
C89    C     0.50000   0.58970   0.92240   0.01267  Uiso   1.00
C90    C     0.50000   0.45230   0.88450   0.01267  Uiso   1.00
C91    C     0.50000   0.38130   0.85740   0.01267  Uiso   1.00
C92    C     0.50000   0.38200   0.78200   0.01267  Uiso   1.00
C93    C     0.50000   0.41030   0.07760   0.01267  Uiso   1.00
C94    C     0.50000   0.54770   0.11550   0.01267  Uiso   1.00
C95    C     0.50000   0.61870   0.14260   0.01267  Uiso   1.00
C96    C     0.50000   0.61800   0.21800   0.01267  Uiso   1.00
O1     O     0.85600   0.92630   0.44630   0.01267  Uiso   1.00
O2     O     0.75810   0.93010   0.34740   0.01267  Uiso   1.00
O3     O     0.85600   0.07370   0.55370   0.01267  Uiso   1.00
O4     O     0.75810   0.06990   0.65260   0.01267  Uiso   1.00
O5     O     0.85600   0.55370   0.92630   0.01267  Uiso   1.00
O6     O     0.75810   0.65260   0.93010   0.01267  Uiso   1.00
O7     O     0.85600   0.44630   0.07370   0.01267  Uiso   1.00
O8     O     0.75810   0.34740   0.06990   0.01267  Uiso   1.00
O9     O     0.14400   0.07370   0.55370   0.01267  Uiso   1.00
O10    O     0.24190   0.06990   0.65260   0.01267  Uiso   1.00
O11    O     0.14400   0.92630   0.44630   0.01267  Uiso   1.00
O12    O     0.24190   0.93010   0.34740   0.01267  Uiso   1.00
O13    O     0.14400   0.44630   0.07370   0.01267  Uiso   1.00
O14    O     0.24190   0.34740   0.06990   0.01267  Uiso   1.00
O15    O     0.14400   0.55370   0.92630   0.01267  Uiso   1.00
O16    O     0.24190   0.65260   0.93010   0.01267  Uiso   1.00
O17    O     1.00000   0.95190   0.60410   0.01267  Uiso   1.00
O18    O     1.00000   0.96710   0.71310   0.01267  Uiso   1.00
O19    O     1.00000   0.66020   0.81260   0.01267  Uiso   1.00
O20    O     1.00000   0.75810   0.86130   0.01267  Uiso   1.00
O21    O     0.00000   0.04810   0.39590   0.01267  Uiso   1.00
O22    O     0.00000   0.03290   0.28690   0.01267  Uiso   1.00
O23    O     1.00000   0.33980   0.18740   0.01267  Uiso   1.00
O24    O     1.00000   0.24190   0.13870   0.01267  Uiso   1.00
O25    O     1.00000   0.39590   0.95190   0.01267  Uiso   1.00
O26    O     0.00000   0.28690   0.96710   0.01267  Uiso   1.00
O27    O     1.00000   0.18740   0.66020   0.01267  Uiso   1.00
O28    O     1.00000   0.13870   0.75810   0.01267  Uiso   1.00
O29    O     0.00000   0.60410   0.04810   0.01267  Uiso   1.00
O30    O     1.00000   0.71310   0.03290   0.01267  Uiso   1.00
O31    O     1.00000   0.81260   0.33980   0.01267  Uiso   1.00
O32    O     1.00000   0.86130   0.24190   0.01267  Uiso   1.00
