data_EKOPOK_clean
_audit_creation_date              2014-07-02
_audit_creation_method            'Materials Studio'
_symmetry_space_group_name_H-M    'P1'
_symmetry_Int_Tables_number       1
_symmetry_cell_setting            triclinic
loop_
_symmetry_equiv_pos_as_xyz
  x,y,z
_cell_length_a                    14.2086
_cell_length_b                    15.5883
_cell_length_c                    15.5883
_cell_angle_alpha                 78.0122
_cell_angle_beta                  62.8871
_cell_angle_gamma                 62.8871
loop_
_atom_site_label
_atom_site_type_symbol
_atom_site_fract_x
_atom_site_fract_y
_atom_site_fract_z
_atom_site_U_iso_or_equiv
_atom_site_adp_type
_atom_site_occupancy
Ca1    Ca    0.54746   0.00000   0.40508   0.01267  Uiso   1.00
Ca2    Ca    0.95254   0.00000   0.59492   0.01267  Uiso   1.00
Ca3    Ca    0.04746   0.40508   0.00000   0.01267  Uiso   1.00
Ca4    Ca    0.45254   0.59492  -0.00000   0.01267  Uiso   1.00
Cd1    Cd    0.23224   0.03553   0.50000   0.01267  Uiso   1.00
Cd2    Cd    0.76776   0.96447   0.50000   0.01267  Uiso   1.00
Cd3    Cd    0.26777   0.50000   0.96446   0.01267  Uiso   1.00
Cd4    Cd    0.73223   0.50000   0.03554   0.01267  Uiso   1.00
H1     H     0.60160   0.34560   0.27320   0.01267  Uiso   1.00
H2     H     0.44600   0.22520   0.39940   0.01267  Uiso   1.00
H3     H     0.48810   0.41380   0.18240   0.01267  Uiso   1.00
H4     H     0.27860   0.28530   0.22970   0.01267  Uiso   1.00
H5     H     0.22040   0.65440   0.72680   0.01267  Uiso   1.00
H6     H     0.07060   0.77480   0.60060   0.01267  Uiso   1.00
H7     H     0.08430   0.58620   0.81760   0.01267  Uiso   1.00
H8     H     0.79360   0.71470   0.77030   0.01267  Uiso   1.00
H9     H     0.12520   0.27320   0.65440   0.01267  Uiso   1.00
H10    H     0.15460   0.39940   0.77480   0.01267  Uiso   1.00
H11    H     0.32950   0.18240   0.58620   0.01267  Uiso   1.00
H12    H     0.49170   0.22970   0.71470   0.01267  Uiso   1.00
H13    H     0.05280   0.72680   0.34560   0.01267  Uiso   1.00
H14    H     0.32880   0.60060   0.22520   0.01267  Uiso   1.00
H15    H     0.09810   0.81760   0.41380   0.01267  Uiso   1.00
H16    H     0.43610   0.77030   0.28530   0.01267  Uiso   1.00
H17    H     0.72040   0.72680   0.65440   0.01267  Uiso   1.00
H18    H     0.57060   0.60060   0.77480   0.01267  Uiso   1.00
H19    H     0.58430   0.81760   0.58620   0.01267  Uiso   1.00
H20    H     0.29360   0.77030   0.71470   0.01267  Uiso   1.00
H21    H     0.10160   0.27320   0.34560   0.01267  Uiso   1.00
H22    H     0.94600   0.39940   0.22520   0.01267  Uiso   1.00
H23    H     0.98810   0.18240   0.41380   0.01267  Uiso   1.00
H24    H     0.77860   0.22970   0.28530   0.01267  Uiso   1.00
H25    H     0.55280   0.34560   0.72680   0.01267  Uiso   1.00
H26    H     0.82880   0.22520   0.60060   0.01267  Uiso   1.00
H27    H     0.59810   0.41380   0.81760   0.01267  Uiso   1.00
H28    H     0.93610   0.28530   0.77030   0.01267  Uiso   1.00
H29    H     0.62520   0.65440   0.27320   0.01267  Uiso   1.00
H30    H     0.65460   0.77480   0.39940   0.01267  Uiso   1.00
H31    H     0.82950   0.58620   0.18240   0.01267  Uiso   1.00
H32    H     0.99170   0.71470   0.22970   0.01267  Uiso   1.00
C1     C     0.30420   0.17430   0.38090   0.01267  Uiso   1.00
C2     C     0.35340   0.41339   0.10961   0.01267  Uiso   1.00
C3     C     0.35460   0.24405   0.32255   0.01267  Uiso   1.00
C4     C     0.43000   0.25800   0.34720   0.01267  Uiso   1.00
C5     C     0.48050   0.32060   0.29400   0.01267  Uiso   1.00
C6     C     0.45530   0.37078   0.21722   0.01267  Uiso   1.00
C7     C     0.38070   0.35677   0.19203   0.01267  Uiso   1.00
C8     C     0.32950   0.29380   0.24560   0.01267  Uiso   1.00
C9     C     0.85940   0.82570   0.61910   0.01267  Uiso   1.00
C10    C     0.87640   0.58661   0.89039   0.01267  Uiso   1.00
C11    C     0.92120   0.75595   0.67745   0.01267  Uiso   1.00
C12    C     0.03520   0.74200   0.65280   0.01267  Uiso   1.00
C13    C     0.09510   0.67940   0.70600   0.01267  Uiso   1.00
C14    C     0.04330   0.62922   0.78278   0.01267  Uiso   1.00
C15    C     0.92950   0.64323   0.80797   0.01267  Uiso   1.00
C16    C     0.86890   0.70620   0.75440   0.01267  Uiso   1.00
C17    C     0.31490   0.38090   0.82570   0.01267  Uiso   1.00
C18    C     0.53699   0.10961   0.58661   0.01267  Uiso   1.00
C19    C     0.32285   0.32255   0.75595   0.01267  Uiso   1.00
C20    C     0.22280   0.34720   0.74200   0.01267  Uiso   1.00
C21    C     0.22550   0.29400   0.67940   0.01267  Uiso   1.00
C22    C     0.32748   0.21722   0.62922   0.01267  Uiso   1.00
C23    C     0.42727   0.19203   0.64323   0.01267  Uiso   1.00
C24    C     0.42490   0.24560   0.70620   0.01267  Uiso   1.00
C25    C     0.52150   0.61910   0.17430   0.01267  Uiso   1.00
C26    C     0.23321   0.89039   0.41339   0.01267  Uiso   1.00
C27    C     0.40135   0.67745   0.24405   0.01267  Uiso   1.00
C28    C     0.31200   0.65280   0.25800   0.01267  Uiso   1.00
C29    C     0.19890   0.70600   0.32060   0.01267  Uiso   1.00
C30    C     0.17392   0.78278   0.37078   0.01267  Uiso   1.00
C31    C     0.26253   0.80797   0.35677   0.01267  Uiso   1.00
C32    C     0.37670   0.75440   0.29380   0.01267  Uiso   1.00
C33    C     0.35940   0.61910   0.82570   0.01267  Uiso   1.00
C34    C     0.37640   0.89039   0.58661   0.01267  Uiso   1.00
C35    C     0.42120   0.67745   0.75595   0.01267  Uiso   1.00
C36    C     0.53520   0.65280   0.74200   0.01267  Uiso   1.00
C37    C     0.59510   0.70600   0.67940   0.01267  Uiso   1.00
C38    C     0.54330   0.78278   0.62922   0.01267  Uiso   1.00
C39    C     0.42950   0.80797   0.64323   0.01267  Uiso   1.00
C40    C     0.36890   0.75440   0.70620   0.01267  Uiso   1.00
C41    C     0.80420   0.38090   0.17430   0.01267  Uiso   1.00
C42    C     0.85340   0.10961   0.41339   0.01267  Uiso   1.00
C43    C     0.85460   0.32255   0.24405   0.01267  Uiso   1.00
C44    C     0.93000   0.34720   0.25800   0.01267  Uiso   1.00
C45    C     0.98050   0.29400   0.32060   0.01267  Uiso   1.00
C46    C     0.95530   0.21722   0.37078   0.01267  Uiso   1.00
C47    C     0.88070   0.19203   0.35677   0.01267  Uiso   1.00
C48    C     0.82950   0.24560   0.29380   0.01267  Uiso   1.00
C49    C     0.02150   0.17430   0.61910   0.01267  Uiso   1.00
C50    C     0.73321   0.41339   0.89039   0.01267  Uiso   1.00
C51    C     0.90135   0.24405   0.67745   0.01267  Uiso   1.00
C52    C     0.81200   0.25800   0.65280   0.01267  Uiso   1.00
C53    C     0.69890   0.32060   0.70600   0.01267  Uiso   1.00
C54    C     0.67392   0.37078   0.78278   0.01267  Uiso   1.00
C55    C     0.76253   0.35677   0.80797   0.01267  Uiso   1.00
C56    C     0.87670   0.29380   0.75440   0.01267  Uiso   1.00
C57    C     0.81490   0.82570   0.38090   0.01267  Uiso   1.00
C58    C     0.03699   0.58661   0.10961   0.01267  Uiso   1.00
C59    C     0.82285   0.75595   0.32255   0.01267  Uiso   1.00
C60    C     0.72280   0.74200   0.34720   0.01267  Uiso   1.00
C61    C     0.72550   0.67940   0.29400   0.01267  Uiso   1.00
C62    C     0.82748   0.62922   0.21722   0.01267  Uiso   1.00
C63    C     0.92727   0.64323   0.19203   0.01267  Uiso   1.00
C64    C     0.92490   0.70620   0.24560   0.01267  Uiso   1.00
O1     O     0.35611   0.11125   0.42893   0.01267  Uiso   1.00
O2     O     0.21456   0.17631   0.38197   0.01267  Uiso   1.00
O3     O     0.30454   0.38686   0.07586   0.01267  Uiso   1.00
O4     O     0.38158   0.48160   0.07584   0.01267  Uiso   1.00
O5     O     0.55500   0.32930   0.32010   0.01267  Uiso   1.00
O6     O     0.89629   0.88875   0.57107   0.01267  Uiso   1.00
O7     O     0.77284   0.82369   0.61803   0.01267  Uiso   1.00
O8     O     0.76726   0.61314   0.92414   0.01267  Uiso   1.00
O9     O     0.93902   0.51840   0.92416   0.01267  Uiso   1.00
O10    O     0.20440   0.67070   0.67990   0.01267  Uiso   1.00
O11    O     0.21496   0.42893   0.88875   0.01267  Uiso   1.00
O12    O     0.40347   0.38197   0.82369   0.01267  Uiso   1.00
O13    O     0.61960   0.07586   0.61314   0.01267  Uiso   1.00
O14    O     0.54258   0.07584   0.51840   0.01267  Uiso   1.00
O15    O     0.12490   0.32010   0.67070   0.01267  Uiso   1.00
O16    O     0.53264   0.57107   0.11125   0.01267  Uiso   1.00
O17    O     0.60913   0.61803   0.17631   0.01267  Uiso   1.00
O18    O     0.30860   0.92414   0.38686   0.01267  Uiso   1.00
O19    O     0.13682   0.92416   0.48160   0.01267  Uiso   1.00
O20    O     0.11570   0.67990   0.32930   0.01267  Uiso   1.00
O21    O     0.39629   0.57107   0.88875   0.01267  Uiso   1.00
O22    O     0.27284   0.61803   0.82369   0.01267  Uiso   1.00
O23    O     0.26726   0.92414   0.61314   0.01267  Uiso   1.00
O24    O     0.43902   0.92416   0.51840   0.01267  Uiso   1.00
O25    O     0.70440   0.67990   0.67070   0.01267  Uiso   1.00
O26    O     0.85611   0.42893   0.11125   0.01267  Uiso   1.00
O27    O     0.71456   0.38197   0.17631   0.01267  Uiso   1.00
O28    O     0.80454   0.07586   0.38686   0.01267  Uiso   1.00
O29    O     0.88158   0.07584   0.48160   0.01267  Uiso   1.00
O30    O     0.05500   0.32010   0.32930   0.01267  Uiso   1.00
O31    O     0.03264   0.11125   0.57107   0.01267  Uiso   1.00
O32    O     0.10913   0.17631   0.61803   0.01267  Uiso   1.00
O33    O     0.80860   0.38686   0.92414   0.01267  Uiso   1.00
O34    O     0.63682   0.48160   0.92416   0.01267  Uiso   1.00
O35    O     0.61570   0.32930   0.67990   0.01267  Uiso   1.00
O36    O     0.71496   0.88875   0.42893   0.01267  Uiso   1.00
O37    O     0.90347   0.82369   0.38197   0.01267  Uiso   1.00
O38    O     0.11960   0.61314   0.07586   0.01267  Uiso   1.00
O39    O     0.04258   0.51840   0.07584   0.01267  Uiso   1.00
O40    O     0.62490   0.67070   0.32010   0.01267  Uiso   1.00
