data_ELAZEX_clean
_audit_creation_date              2014-07-02
_audit_creation_method            'Materials Studio'
_symmetry_space_group_name_H-M    'P1'
_symmetry_Int_Tables_number       1
_symmetry_cell_setting            triclinic
loop_
_symmetry_equiv_pos_as_xyz
  x,y,z
_cell_length_a                    7.6233
_cell_length_b                    13.0266
_cell_length_c                    29.1910
_cell_angle_alpha                 90.0000
_cell_angle_beta                  90.0000
_cell_angle_gamma                 102.9980
loop_
_atom_site_label
_atom_site_type_symbol
_atom_site_fract_x
_atom_site_fract_y
_atom_site_fract_z
_atom_site_U_iso_or_equiv
_atom_site_adp_type
_atom_site_occupancy
Cd1    Cd    0.88670   0.18018   0.00987   0.01267  Uiso   1.00
Cd2    Cd    0.55252   0.18943   0.10504   0.01267  Uiso   1.00
Cd3    Cd    0.61330   0.31982   0.50987   0.01267  Uiso   1.00
Cd4    Cd    0.94748   0.31057   0.60504   0.01267  Uiso   1.00
Cd5    Cd    0.11330   0.81982   0.99013   0.01267  Uiso   1.00
Cd6    Cd    0.44748   0.81057   0.89496   0.01267  Uiso   1.00
Cd7    Cd    0.38670   0.68018   0.49013   0.01267  Uiso   1.00
Cd8    Cd    0.05252   0.68943   0.39496   0.01267  Uiso   1.00
Cd9    Cd    0.50000   0.00000   0.00000   0.01267  Uiso   1.00
Cd10   Cd    0.00000   0.50000   0.50000   0.01267  Uiso   1.00
H1     H     0.91410   0.49280   0.14930   0.01267  Uiso   1.00
H2     H     0.52300   0.54670   0.11970   0.01267  Uiso   1.00
H3     H     0.42030   0.65590   0.17030   0.01267  Uiso   1.00
H4     H     0.23970   0.84290   0.14360   0.01267  Uiso   1.00
H5     H     0.62730   0.79820   0.12020   0.01267  Uiso   1.00
H6     H     0.73260   0.69040   0.17110   0.01267  Uiso   1.00
H7     H     0.42480   0.00330   0.17820   0.01267  Uiso   1.00
H8     H     0.51510   0.90160   0.23320   0.01267  Uiso   1.00
H9     H     0.02280   0.04530   0.20590   0.01267  Uiso   1.00
H10    H     0.91940   0.14190   0.15090   0.01267  Uiso   1.00
H11    H     0.60660   0.79950   0.27840   0.01267  Uiso   1.00
H12    H     0.71120   0.70540   0.33310   0.01267  Uiso   1.00
H13    H     0.20450   0.85570   0.31120   0.01267  Uiso   1.00
H14    H     0.11170   0.96040   0.25760   0.01267  Uiso   1.00
H15    H     0.57000   0.19400   0.01890   0.01267  Uiso   1.00
H16    H     0.58590   0.00720   0.64930   0.01267  Uiso   1.00
H17    H     0.97700   0.95330   0.61970   0.01267  Uiso   1.00
H18    H     0.07970   0.84410   0.67030   0.01267  Uiso   1.00
H19    H     0.26030   0.65710   0.64360   0.01267  Uiso   1.00
H20    H     0.87270   0.70180   0.62020   0.01267  Uiso   1.00
H21    H     0.76740   0.80960   0.67110   0.01267  Uiso   1.00
H22    H     0.07520   0.49670   0.67820   0.01267  Uiso   1.00
H23    H     0.98490   0.59840   0.73320   0.01267  Uiso   1.00
H24    H     0.47720   0.45470   0.70590   0.01267  Uiso   1.00
H25    H     0.58060   0.35810   0.65090   0.01267  Uiso   1.00
H26    H     0.89340   0.70050   0.77840   0.01267  Uiso   1.00
H27    H     0.78880   0.79460   0.83310   0.01267  Uiso   1.00
H28    H     0.29550   0.64430   0.81120   0.01267  Uiso   1.00
H29    H     0.38830   0.53960   0.75760   0.01267  Uiso   1.00
H30    H     0.93000   0.30600   0.51890   0.01267  Uiso   1.00
H31    H     0.08590   0.50720   0.85070   0.01267  Uiso   1.00
H32    H     0.47700   0.45330   0.88030   0.01267  Uiso   1.00
H33    H     0.57970   0.34410   0.82970   0.01267  Uiso   1.00
H34    H     0.76030   0.15710   0.85640   0.01267  Uiso   1.00
H35    H     0.37270   0.20180   0.87980   0.01267  Uiso   1.00
H36    H     0.26740   0.30960   0.82890   0.01267  Uiso   1.00
H37    H     0.57520   0.99670   0.82180   0.01267  Uiso   1.00
H38    H     0.48490   0.09840   0.76680   0.01267  Uiso   1.00
H39    H     0.97720   0.95470   0.79410   0.01267  Uiso   1.00
H40    H     0.08060   0.85810   0.84910   0.01267  Uiso   1.00
H41    H     0.39340   0.20050   0.72160   0.01267  Uiso   1.00
H42    H     0.28880   0.29460   0.66690   0.01267  Uiso   1.00
H43    H     0.79550   0.14430   0.68880   0.01267  Uiso   1.00
H44    H     0.88830   0.03960   0.74240   0.01267  Uiso   1.00
H45    H     0.43000   0.80600   0.98110   0.01267  Uiso   1.00
H46    H     0.41410   0.99280   0.35070   0.01267  Uiso   1.00
H47    H     0.02300   0.04670   0.38030   0.01267  Uiso   1.00
H48    H     0.92030   0.15590   0.32970   0.01267  Uiso   1.00
H49    H     0.73970   0.34290   0.35640   0.01267  Uiso   1.00
H50    H     0.12730   0.29820   0.37980   0.01267  Uiso   1.00
H51    H     0.23260   0.19040   0.32890   0.01267  Uiso   1.00
H52    H     0.92480   0.50330   0.32180   0.01267  Uiso   1.00
H53    H     0.01510   0.40160   0.26680   0.01267  Uiso   1.00
H54    H     0.52280   0.54530   0.29410   0.01267  Uiso   1.00
H55    H     0.41940   0.64190   0.34910   0.01267  Uiso   1.00
H56    H     0.10660   0.29950   0.22160   0.01267  Uiso   1.00
H57    H     0.21120   0.20540   0.16690   0.01267  Uiso   1.00
H58    H     0.70450   0.35570   0.18880   0.01267  Uiso   1.00
H59    H     0.61170   0.46040   0.24240   0.01267  Uiso   1.00
H60    H     0.07000   0.69400   0.48110   0.01267  Uiso   1.00
C1     C     0.15720   0.58470   0.16416   0.01267  Uiso   1.00
C2     C     0.03660   0.50280   0.14339   0.01267  Uiso   1.00
C3     C     0.09810   0.43530   0.11367   0.01267  Uiso   1.00
C4     C     0.28320   0.45270   0.10461   0.01267  Uiso   1.00
C5     C     0.40040   0.53530   0.12582   0.01267  Uiso   1.00
C6     C     0.33980   0.60130   0.15586   0.01267  Uiso   1.00
C7     C     0.96180   0.34760   0.09115   0.01267  Uiso   1.00
C8     C     0.36330   0.38490   0.07156   0.01267  Uiso   1.00
C9     C     0.99620   0.75720   0.16215   0.01267  Uiso   1.00
C10    C     0.11670   0.83470   0.13880   0.01267  Uiso   1.00
C11    C     0.05490   0.90060   0.10819   0.01267  Uiso   1.00
C12    C     0.86900   0.88790   0.10155   0.01267  Uiso   1.00
C13    C     0.75060   0.80800   0.12506   0.01267  Uiso   1.00
C14    C     0.81290   0.74300   0.15543   0.01267  Uiso   1.00
C15    C     0.19650   0.98120   0.08351   0.01267  Uiso   1.00
C16    C     0.79220   0.96030   0.07103   0.01267  Uiso   1.00
C17    C     0.54750   0.01150   0.18347   0.01267  Uiso   1.00
C18    C     0.60090   0.94990   0.21687   0.01267  Uiso   1.00
C19    C     0.78180   0.95980   0.22609   0.01267  Uiso   1.00
C20    C     0.89960   0.03430   0.20066   0.01267  Uiso   1.00
C21    C     0.83630   0.09280   0.16757   0.01267  Uiso   1.00
C22    C     0.84580   0.89310   0.26099   0.01267  Uiso   1.00
C23    C     0.72920   0.81390   0.28474   0.01267  Uiso   1.00
C24    C     0.79360   0.75700   0.31747   0.01267  Uiso   1.00
C25    C     0.08210   0.84540   0.30507   0.01267  Uiso   1.00
C26    C     0.02710   0.90810   0.27219   0.01267  Uiso   1.00
C27    C     0.34280   0.91530   0.66416   0.01267  Uiso   1.00
C28    C     0.46340   0.99720   0.64339   0.01267  Uiso   1.00
C29    C     0.40190   0.06470   0.61367   0.01267  Uiso   1.00
C30    C     0.21680   0.04730   0.60461   0.01267  Uiso   1.00
C31    C     0.09960   0.96470   0.62582   0.01267  Uiso   1.00
C32    C     0.16020   0.89870   0.65586   0.01267  Uiso   1.00
C33    C     0.53820   0.15240   0.59115   0.01267  Uiso   1.00
C34    C     0.13670   0.11510   0.57156   0.01267  Uiso   1.00
C35    C     0.50380   0.74280   0.66215   0.01267  Uiso   1.00
C36    C     0.38330   0.66530   0.63880   0.01267  Uiso   1.00
C37    C     0.44510   0.59940   0.60819   0.01267  Uiso   1.00
C38    C     0.63100   0.61210   0.60155   0.01267  Uiso   1.00
C39    C     0.74940   0.69200   0.62506   0.01267  Uiso   1.00
C40    C     0.68710   0.75700   0.65543   0.01267  Uiso   1.00
C41    C     0.30350   0.51880   0.58351   0.01267  Uiso   1.00
C42    C     0.70780   0.53970   0.57103   0.01267  Uiso   1.00
C43    C     0.95250   0.48850   0.68347   0.01267  Uiso   1.00
C44    C     0.89910   0.55010   0.71687   0.01267  Uiso   1.00
C45    C     0.71820   0.54020   0.72609   0.01267  Uiso   1.00
C46    C     0.60040   0.46570   0.70066   0.01267  Uiso   1.00
C47    C     0.66370   0.40720   0.66757   0.01267  Uiso   1.00
C48    C     0.65420   0.60690   0.76099   0.01267  Uiso   1.00
C49    C     0.77080   0.68610   0.78474   0.01267  Uiso   1.00
C50    C     0.70640   0.74300   0.81747   0.01267  Uiso   1.00
C51    C     0.41790   0.65460   0.80507   0.01267  Uiso   1.00
C52    C     0.47290   0.59190   0.77219   0.01267  Uiso   1.00
C53    C     0.84280   0.41530   0.83584   0.01267  Uiso   1.00
C54    C     0.96340   0.49720   0.85661   0.01267  Uiso   1.00
C55    C     0.90190   0.56470   0.88633   0.01267  Uiso   1.00
C56    C     0.71680   0.54730   0.89539   0.01267  Uiso   1.00
C57    C     0.59960   0.46470   0.87418   0.01267  Uiso   1.00
C58    C     0.66020   0.39870   0.84414   0.01267  Uiso   1.00
C59    C     0.03820   0.65240   0.90885   0.01267  Uiso   1.00
C60    C     0.63670   0.61510   0.92844   0.01267  Uiso   1.00
C61    C     0.00380   0.24280   0.83785   0.01267  Uiso   1.00
C62    C     0.88330   0.16530   0.86120   0.01267  Uiso   1.00
C63    C     0.94510   0.09940   0.89181   0.01267  Uiso   1.00
C64    C     0.13100   0.11210   0.89845   0.01267  Uiso   1.00
C65    C     0.24940   0.19200   0.87494   0.01267  Uiso   1.00
C66    C     0.18710   0.25700   0.84457   0.01267  Uiso   1.00
C67    C     0.80350   0.01880   0.91649   0.01267  Uiso   1.00
C68    C     0.20780   0.03970   0.92897   0.01267  Uiso   1.00
C69    C     0.45250   0.98850   0.81653   0.01267  Uiso   1.00
C70    C     0.39910   0.05010   0.78313   0.01267  Uiso   1.00
C71    C     0.21820   0.04020   0.77391   0.01267  Uiso   1.00
C72    C     0.10040   0.96570   0.79934   0.01267  Uiso   1.00
C73    C     0.16370   0.90720   0.83243   0.01267  Uiso   1.00
C74    C     0.15420   0.10690   0.73901   0.01267  Uiso   1.00
C75    C     0.27080   0.18610   0.71526   0.01267  Uiso   1.00
C76    C     0.20640   0.24300   0.68253   0.01267  Uiso   1.00
C77    C     0.91790   0.15460   0.69493   0.01267  Uiso   1.00
C78    C     0.97290   0.09190   0.72781   0.01267  Uiso   1.00
C79    C     0.65720   0.08470   0.33584   0.01267  Uiso   1.00
C80    C     0.53660   0.00280   0.35661   0.01267  Uiso   1.00
C81    C     0.59810   0.93530   0.38633   0.01267  Uiso   1.00
C82    C     0.78320   0.95270   0.39539   0.01267  Uiso   1.00
C83    C     0.90040   0.03530   0.37418   0.01267  Uiso   1.00
C84    C     0.83980   0.10130   0.34414   0.01267  Uiso   1.00
C85    C     0.46180   0.84760   0.40885   0.01267  Uiso   1.00
C86    C     0.86330   0.88490   0.42844   0.01267  Uiso   1.00
C87    C     0.49620   0.25720   0.33785   0.01267  Uiso   1.00
C88    C     0.61670   0.33470   0.36120   0.01267  Uiso   1.00
C89    C     0.55490   0.40060   0.39181   0.01267  Uiso   1.00
C90    C     0.36900   0.38790   0.39845   0.01267  Uiso   1.00
C91    C     0.25060   0.30800   0.37494   0.01267  Uiso   1.00
C92    C     0.31290   0.24300   0.34457   0.01267  Uiso   1.00
C93    C     0.69650   0.48120   0.41649   0.01267  Uiso   1.00
C94    C     0.29220   0.46030   0.42897   0.01267  Uiso   1.00
C95    C     0.04750   0.51150   0.31653   0.01267  Uiso   1.00
C96    C     0.10090   0.44990   0.28313   0.01267  Uiso   1.00
C97    C     0.28180   0.45980   0.27391   0.01267  Uiso   1.00
C98    C     0.39960   0.53430   0.29934   0.01267  Uiso   1.00
C99    C     0.33630   0.59280   0.33243   0.01267  Uiso   1.00
C100   C     0.34580   0.39310   0.23901   0.01267  Uiso   1.00
C101   C     0.22920   0.31390   0.21526   0.01267  Uiso   1.00
C102   C     0.29360   0.25700   0.18253   0.01267  Uiso   1.00
C103   C     0.58210   0.34540   0.19493   0.01267  Uiso   1.00
C104   C     0.52710   0.40810   0.22781   0.01267  Uiso   1.00
S1     S     0.07698   0.67277   0.20047   0.01267  Uiso   1.00
S2     S     0.42302   0.82723   0.70047   0.01267  Uiso   1.00
S3     S     0.92302   0.32723   0.79953   0.01267  Uiso   1.00
S4     S     0.57698   0.17277   0.29953   0.01267  Uiso   1.00
N1     N     0.66110   0.08210   0.15829   0.01267  Uiso   1.00
N2     N     0.96770   0.77090   0.32833   0.01267  Uiso   1.00
N3     N     0.83890   0.41790   0.65829   0.01267  Uiso   1.00
N4     N     0.53230   0.72910   0.82833   0.01267  Uiso   1.00
N5     N     0.33890   0.91790   0.84171   0.01267  Uiso   1.00
N6     N     0.03230   0.22910   0.67167   0.01267  Uiso   1.00
N7     N     0.16110   0.58210   0.34171   0.01267  Uiso   1.00
N8     N     0.46770   0.27090   0.17167   0.01267  Uiso   1.00
O1     O     0.82790   0.30690   0.11368   0.01267  Uiso   1.00
O2     O     0.99680   0.32710   0.05079   0.01267  Uiso   1.00
O3     O     0.34430   0.29090   0.07919   0.01267  Uiso   1.00
O4     O     0.44050   0.43270   0.03810   0.01267  Uiso   1.00
O5     O     0.22340   0.96342   0.04106   0.01267  Uiso   1.00
O6     O     0.28560   0.05470   0.10641   0.01267  Uiso   1.00
O7     O     0.89740   0.04440   0.05962   0.01267  Uiso   1.00
O8     O     0.62990   0.93100   0.05986   0.01267  Uiso   1.00
O9     O     0.22990   0.73360   0.22464   0.01267  Uiso   1.00
O10    O     0.92410   0.61470   0.22555   0.01267  Uiso   1.00
O11    O     0.59970   0.15860   0.03164   0.01267  Uiso   1.00
O12    O     0.67210   0.19310   0.61368   0.01267  Uiso   1.00
O13    O     0.50320   0.17290   0.55079   0.01267  Uiso   1.00
O14    O     0.15570   0.20910   0.57919   0.01267  Uiso   1.00
O15    O     0.05950   0.06730   0.53810   0.01267  Uiso   1.00
O16    O     0.27660   0.53658   0.54106   0.01267  Uiso   1.00
O17    O     0.21440   0.44530   0.60641   0.01267  Uiso   1.00
O18    O     0.60260   0.45560   0.55962   0.01267  Uiso   1.00
O19    O     0.87010   0.56900   0.55986   0.01267  Uiso   1.00
O20    O     0.27010   0.76640   0.72464   0.01267  Uiso   1.00
O21    O     0.57590   0.88530   0.72555   0.01267  Uiso   1.00
O22    O     0.90030   0.34140   0.53164   0.01267  Uiso   1.00
O23    O     0.17210   0.69310   0.88632   0.01267  Uiso   1.00
O24    O     0.00320   0.67290   0.94921   0.01267  Uiso   1.00
O25    O     0.65570   0.70910   0.92081   0.01267  Uiso   1.00
O26    O     0.55950   0.56730   0.96190   0.01267  Uiso   1.00
O27    O     0.77660   0.03658   0.95894   0.01267  Uiso   1.00
O28    O     0.71440   0.94530   0.89359   0.01267  Uiso   1.00
O29    O     0.10260   0.95560   0.94038   0.01267  Uiso   1.00
O30    O     0.37010   0.06900   0.94014   0.01267  Uiso   1.00
O31    O     0.77010   0.26640   0.77536   0.01267  Uiso   1.00
O32    O     0.07590   0.38530   0.77445   0.01267  Uiso   1.00
O33    O     0.40030   0.84140   0.96836   0.01267  Uiso   1.00
O34    O     0.32790   0.80690   0.38632   0.01267  Uiso   1.00
O35    O     0.49680   0.82710   0.44921   0.01267  Uiso   1.00
O36    O     0.84430   0.79090   0.42081   0.01267  Uiso   1.00
O37    O     0.94050   0.93270   0.46190   0.01267  Uiso   1.00
O38    O     0.72340   0.46342   0.45894   0.01267  Uiso   1.00
O39    O     0.78560   0.55470   0.39359   0.01267  Uiso   1.00
O40    O     0.39740   0.54440   0.44038   0.01267  Uiso   1.00
O41    O     0.12990   0.43100   0.44014   0.01267  Uiso   1.00
O42    O     0.72990   0.23360   0.27536   0.01267  Uiso   1.00
O43    O     0.42410   0.11470   0.27445   0.01267  Uiso   1.00
O44    O     0.09970   0.65860   0.46836   0.01267  Uiso   1.00
