data_ELERIX01_clean
_audit_creation_date              2014-07-02
_audit_creation_method            'Materials Studio'
_symmetry_space_group_name_H-M    'P1'
_symmetry_Int_Tables_number       1
_symmetry_cell_setting            triclinic
loop_
_symmetry_equiv_pos_as_xyz
  x,y,z
_cell_length_a                    7.1209
_cell_length_b                    18.3023
_cell_length_c                    24.9833
_cell_angle_alpha                 90.0000
_cell_angle_beta                  90.0000
_cell_angle_gamma                 99.6060
loop_
_atom_site_label
_atom_site_type_symbol
_atom_site_fract_x
_atom_site_fract_y
_atom_site_fract_z
_atom_site_U_iso_or_equiv
_atom_site_adp_type
_atom_site_occupancy
La1    La    0.27768   0.48356   0.40106   0.01267  Uiso   1.00
La2    La    0.72232   0.51644   0.90106   0.01267  Uiso   1.00
La3    La    0.72232   0.51644   0.59894   0.01267  Uiso   1.00
La4    La    0.27768   0.48356   0.09894   0.01267  Uiso   1.00
Cu1    Cu    0.87800   0.04412   0.50758   0.01267  Uiso   1.00
Cu2    Cu    0.32650   0.06086   0.58008   0.01267  Uiso   1.00
Cu3    Cu    0.24790   0.94631   0.68298   0.01267  Uiso   1.00
Cu4    Cu    0.12200   0.95588   0.00758   0.01267  Uiso   1.00
Cu5    Cu    0.67350   0.93914   0.08008   0.01267  Uiso   1.00
Cu6    Cu    0.75210   0.05369   0.18298   0.01267  Uiso   1.00
Cu7    Cu    0.12200   0.95588   0.49242   0.01267  Uiso   1.00
Cu8    Cu    0.67350   0.93914   0.41992   0.01267  Uiso   1.00
Cu9    Cu    0.75210   0.05369   0.31702   0.01267  Uiso   1.00
Cu10   Cu    0.87800   0.04412   0.99242   0.01267  Uiso   1.00
Cu11   Cu    0.32650   0.06086   0.91992   0.01267  Uiso   1.00
Cu12   Cu    0.24790   0.94631   0.81702   0.01267  Uiso   1.00
Cu13   Cu    0.26820   0.06531   0.75000   0.01267  Uiso   1.00
Cu14   Cu    0.73180   0.93469   0.25000   0.01267  Uiso   1.00
H1     H     0.88320   0.43630   0.45940   0.01267  Uiso   1.00
H2     H     0.88400   0.44180   0.39750   0.01267  Uiso   1.00
H3     H     0.08760   0.85830   0.39570   0.01267  Uiso   1.00
H4     H     0.11060   0.73920   0.37270   0.01267  Uiso   1.00
H5     H     0.19770   0.69650   0.52710   0.01267  Uiso   1.00
H6     H     0.17180   0.81780   0.54560   0.01267  Uiso   1.00
H7     H     0.30830   0.16080   0.48580   0.01267  Uiso   1.00
H8     H     0.30080   0.28030   0.46570   0.01267  Uiso   1.00
H9     H     0.39900   0.33100   0.62060   0.01267  Uiso   1.00
H10    H     0.39260   0.20640   0.63630   0.01267  Uiso   1.00
H11    H     0.60200   0.89370   0.65520   0.01267  Uiso   1.00
H12    H     0.72210   0.78920   0.63810   0.01267  Uiso   1.00
H13    H     0.20250   0.67450   0.65880   0.01267  Uiso   1.00
H14    H     0.09480   0.78280   0.67390   0.01267  Uiso   1.00
H15    H     0.11680   0.56370   0.95940   0.01267  Uiso   1.00
H16    H     0.11600   0.55820   0.89750   0.01267  Uiso   1.00
H17    H     0.91240   0.14170   0.89570   0.01267  Uiso   1.00
H18    H     0.88940   0.26080   0.87270   0.01267  Uiso   1.00
H19    H     0.80230   0.30350   0.02710   0.01267  Uiso   1.00
H20    H     0.82820   0.18220   0.04560   0.01267  Uiso   1.00
H21    H     0.69170   0.83920   0.98580   0.01267  Uiso   1.00
H22    H     0.69920   0.71970   0.96570   0.01267  Uiso   1.00
H23    H     0.60100   0.66900   0.12060   0.01267  Uiso   1.00
H24    H     0.60740   0.79360   0.13630   0.01267  Uiso   1.00
H25    H     0.39800   0.10630   0.15520   0.01267  Uiso   1.00
H26    H     0.27790   0.21080   0.13810   0.01267  Uiso   1.00
H27    H     0.79750   0.32550   0.15880   0.01267  Uiso   1.00
H28    H     0.90520   0.21720   0.17390   0.01267  Uiso   1.00
H29    H     0.11680   0.56370   0.54060   0.01267  Uiso   1.00
H30    H     0.11600   0.55820   0.60250   0.01267  Uiso   1.00
H31    H     0.91240   0.14170   0.60430   0.01267  Uiso   1.00
H32    H     0.88940   0.26080   0.62730   0.01267  Uiso   1.00
H33    H     0.80230   0.30350   0.47290   0.01267  Uiso   1.00
H34    H     0.82820   0.18220   0.45440   0.01267  Uiso   1.00
H35    H     0.69170   0.83920   0.51420   0.01267  Uiso   1.00
H36    H     0.69920   0.71970   0.53430   0.01267  Uiso   1.00
H37    H     0.60100   0.66900   0.37940   0.01267  Uiso   1.00
H38    H     0.60740   0.79360   0.36370   0.01267  Uiso   1.00
H39    H     0.39800   0.10630   0.34480   0.01267  Uiso   1.00
H40    H     0.27790   0.21080   0.36190   0.01267  Uiso   1.00
H41    H     0.79750   0.32550   0.34120   0.01267  Uiso   1.00
H42    H     0.90520   0.21720   0.32610   0.01267  Uiso   1.00
H43    H     0.88320   0.43630   0.04060   0.01267  Uiso   1.00
H44    H     0.88400   0.44180   0.10250   0.01267  Uiso   1.00
H45    H     0.08760   0.85830   0.10430   0.01267  Uiso   1.00
H46    H     0.11060   0.73920   0.12730   0.01267  Uiso   1.00
H47    H     0.19770   0.69650   0.97290   0.01267  Uiso   1.00
H48    H     0.17180   0.81780   0.95440   0.01267  Uiso   1.00
H49    H     0.30830   0.16080   0.01420   0.01267  Uiso   1.00
H50    H     0.30080   0.28030   0.03430   0.01267  Uiso   1.00
H51    H     0.39900   0.33100   0.87940   0.01267  Uiso   1.00
H52    H     0.39260   0.20640   0.86370   0.01267  Uiso   1.00
H53    H     0.60200   0.89370   0.84480   0.01267  Uiso   1.00
H54    H     0.72210   0.78920   0.86190   0.01267  Uiso   1.00
H55    H     0.20250   0.67450   0.84120   0.01267  Uiso   1.00
H56    H     0.09480   0.78280   0.82610   0.01267  Uiso   1.00
H57    H     0.38140   0.23030   0.75000   0.01267  Uiso   1.00
H58    H     0.24500   0.33670   0.75000   0.01267  Uiso   1.00
H59    H     0.73070   0.20790   0.75000   0.01267  Uiso   1.00
H60    H     0.88470   0.10760   0.75000   0.01267  Uiso   1.00
H61    H     0.61860   0.76970   0.25000   0.01267  Uiso   1.00
H62    H     0.75500   0.66330   0.25000   0.01267  Uiso   1.00
H63    H     0.26930   0.79210   0.25000   0.01267  Uiso   1.00
H64    H     0.11530   0.89240   0.25000   0.01267  Uiso   1.00
C1     C     0.10980   0.82550   0.42250   0.01267  Uiso   1.00
C2     C     0.12280   0.75380   0.40840   0.01267  Uiso   1.00
C3     C     0.15410   0.70350   0.44740   0.01267  Uiso   1.00
C4     C     0.17440   0.72820   0.49970   0.01267  Uiso   1.00
C5     C     0.15920   0.80150   0.51030   0.01267  Uiso   1.00
C6     C     0.17110   0.62480   0.43340   0.01267  Uiso   1.00
C7     C     0.32380   0.19530   0.51350   0.01267  Uiso   1.00
C8     C     0.32190   0.26710   0.50080   0.01267  Uiso   1.00
C9     C     0.35140   0.32090   0.54040   0.01267  Uiso   1.00
C10    C     0.37860   0.29720   0.59250   0.01267  Uiso   1.00
C11    C     0.37460   0.22180   0.60150   0.01267  Uiso   1.00
C12    C     0.35460   0.40160   0.52860   0.01267  Uiso   1.00
C13    C     0.51970   0.84850   0.65590   0.01267  Uiso   1.00
C14    C     0.59370   0.78590   0.64640   0.01267  Uiso   1.00
C15    C     0.47890   0.71780   0.64920   0.01267  Uiso   1.00
C16    C     0.28800   0.71880   0.65840   0.01267  Uiso   1.00
C17    C     0.22400   0.78430   0.66710   0.01267  Uiso   1.00
C18    C     0.55330   0.64700   0.63780   0.01267  Uiso   1.00
C19    C     0.89020   0.17450   0.92250   0.01267  Uiso   1.00
C20    C     0.87720   0.24620   0.90840   0.01267  Uiso   1.00
C21    C     0.84590   0.29650   0.94740   0.01267  Uiso   1.00
C22    C     0.82560   0.27180   0.99970   0.01267  Uiso   1.00
C23    C     0.84080   0.19850   0.01030   0.01267  Uiso   1.00
C24    C     0.82890   0.37520   0.93340   0.01267  Uiso   1.00
C25    C     0.67620   0.80470   0.01350   0.01267  Uiso   1.00
C26    C     0.67810   0.73290   0.00080   0.01267  Uiso   1.00
C27    C     0.64860   0.67910   0.04040   0.01267  Uiso   1.00
C28    C     0.62140   0.70280   0.09250   0.01267  Uiso   1.00
C29    C     0.62540   0.77820   0.10150   0.01267  Uiso   1.00
C30    C     0.64540   0.59840   0.02860   0.01267  Uiso   1.00
C31    C     0.48030   0.15150   0.15590   0.01267  Uiso   1.00
C32    C     0.40630   0.21410   0.14640   0.01267  Uiso   1.00
C33    C     0.52110   0.28220   0.14920   0.01267  Uiso   1.00
C34    C     0.71200   0.28120   0.15840   0.01267  Uiso   1.00
C35    C     0.77600   0.21570   0.16710   0.01267  Uiso   1.00
C36    C     0.44670   0.35300   0.13780   0.01267  Uiso   1.00
C37    C     0.89020   0.17450   0.57750   0.01267  Uiso   1.00
C38    C     0.87720   0.24620   0.59160   0.01267  Uiso   1.00
C39    C     0.84590   0.29650   0.55260   0.01267  Uiso   1.00
C40    C     0.82560   0.27180   0.50030   0.01267  Uiso   1.00
C41    C     0.84080   0.19850   0.48970   0.01267  Uiso   1.00
C42    C     0.82890   0.37520   0.56660   0.01267  Uiso   1.00
C43    C     0.67620   0.80470   0.48650   0.01267  Uiso   1.00
C44    C     0.67810   0.73290   0.49920   0.01267  Uiso   1.00
C45    C     0.64860   0.67910   0.45960   0.01267  Uiso   1.00
C46    C     0.62140   0.70280   0.40750   0.01267  Uiso   1.00
C47    C     0.62540   0.77820   0.39850   0.01267  Uiso   1.00
C48    C     0.64540   0.59840   0.47140   0.01267  Uiso   1.00
C49    C     0.48030   0.15150   0.34410   0.01267  Uiso   1.00
C50    C     0.40630   0.21410   0.35360   0.01267  Uiso   1.00
C51    C     0.52110   0.28220   0.35080   0.01267  Uiso   1.00
C52    C     0.71200   0.28120   0.34160   0.01267  Uiso   1.00
C53    C     0.77600   0.21570   0.33290   0.01267  Uiso   1.00
C54    C     0.44670   0.35300   0.36220   0.01267  Uiso   1.00
C55    C     0.10980   0.82550   0.07750   0.01267  Uiso   1.00
C56    C     0.12280   0.75380   0.09160   0.01267  Uiso   1.00
C57    C     0.15410   0.70350   0.05260   0.01267  Uiso   1.00
C58    C     0.17440   0.72820   0.00030   0.01267  Uiso   1.00
C59    C     0.15920   0.80150   0.98970   0.01267  Uiso   1.00
C60    C     0.17110   0.62480   0.06660   0.01267  Uiso   1.00
C61    C     0.32380   0.19530   0.98650   0.01267  Uiso   1.00
C62    C     0.32190   0.26710   0.99920   0.01267  Uiso   1.00
C63    C     0.35140   0.32090   0.95960   0.01267  Uiso   1.00
C64    C     0.37860   0.29720   0.90750   0.01267  Uiso   1.00
C65    C     0.37460   0.22180   0.89850   0.01267  Uiso   1.00
C66    C     0.35460   0.40160   0.97140   0.01267  Uiso   1.00
C67    C     0.51970   0.84850   0.84410   0.01267  Uiso   1.00
C68    C     0.59370   0.78590   0.85360   0.01267  Uiso   1.00
C69    C     0.47890   0.71780   0.85080   0.01267  Uiso   1.00
C70    C     0.28800   0.71880   0.84160   0.01267  Uiso   1.00
C71    C     0.22400   0.78430   0.83290   0.01267  Uiso   1.00
C72    C     0.55330   0.64700   0.86220   0.01267  Uiso   1.00
C73    C     0.24900   0.22580   0.75000   0.01267  Uiso   1.00
C74    C     0.16700   0.29040   0.75000   0.01267  Uiso   1.00
C75    C     0.97000   0.28540   0.75000   0.01267  Uiso   1.00
C76    C     0.86300   0.21470   0.75000   0.01267  Uiso   1.00
C77    C     0.95800   0.15460   0.75000   0.01267  Uiso   1.00
C78    C     0.87000   0.35400   0.75000   0.01267  Uiso   1.00
C79    C     0.75100   0.77420   0.25000   0.01267  Uiso   1.00
C80    C     0.83300   0.70960   0.25000   0.01267  Uiso   1.00
C81    C     0.03000   0.71460   0.25000   0.01267  Uiso   1.00
C82    C     0.13700   0.78530   0.25000   0.01267  Uiso   1.00
C83    C     0.04200   0.84540   0.25000   0.01267  Uiso   1.00
C84    C     0.13000   0.64600   0.25000   0.01267  Uiso   1.00
I1     I     0.99062   0.97050   0.58917   0.01267  Uiso   1.00
I2     I     0.51700   0.05685   0.67021   0.01267  Uiso   1.00
I3     I     0.00938   0.02950   0.08917   0.01267  Uiso   1.00
I4     I     0.48300   0.94315   0.17021   0.01267  Uiso   1.00
I5     I     0.00938   0.02950   0.41083   0.01267  Uiso   1.00
I6     I     0.48300   0.94315   0.32979   0.01267  Uiso   1.00
I7     I     0.99062   0.97050   0.91083   0.01267  Uiso   1.00
I8     I     0.51700   0.05685   0.82979   0.01267  Uiso   1.00
I9     I     0.97438   0.94137   0.75000   0.01267  Uiso   1.00
I10    I     0.02562   0.05863   0.25000   0.01267  Uiso   1.00
I11    I     0.50000   0.00000   0.50000   0.01267  Uiso   1.00
I12    I     0.50000   0.00000   0.00000   0.01267  Uiso   1.00
N1     N     0.12770   0.84990   0.47280   0.01267  Uiso   1.00
N2     N     0.34660   0.17020   0.56330   0.01267  Uiso   1.00
N3     N     0.33560   0.84900   0.66630   0.01267  Uiso   1.00
N4     N     0.87230   0.15010   0.97280   0.01267  Uiso   1.00
N5     N     0.65340   0.82980   0.06330   0.01267  Uiso   1.00
N6     N     0.66440   0.15100   0.16630   0.01267  Uiso   1.00
N7     N     0.87230   0.15010   0.52720   0.01267  Uiso   1.00
N8     N     0.65340   0.82980   0.43670   0.01267  Uiso   1.00
N9     N     0.66440   0.15100   0.33370   0.01267  Uiso   1.00
N10    N     0.12770   0.84990   0.02720   0.01267  Uiso   1.00
N11    N     0.34660   0.17020   0.93670   0.01267  Uiso   1.00
N12    N     0.33560   0.84900   0.83370   0.01267  Uiso   1.00
N13    N     0.14560   0.15880   0.75000   0.01267  Uiso   1.00
N14    N     0.85440   0.84120   0.25000   0.01267  Uiso   1.00
O1     O     0.16480   0.60740   0.38480   0.01267  Uiso   1.00
O2     O     0.20000   0.58080   0.47000   0.01267  Uiso   1.00
O3     O     0.29060   0.41660   0.48340   0.01267  Uiso   1.00
O4     O     0.41870   0.44880   0.56420   0.01267  Uiso   1.00
O5     O     0.73240   0.65100   0.63610   0.01267  Uiso   1.00
O6     O     0.43930   0.58750   0.63070   0.01267  Uiso   1.00
O7     O     0.93350   0.44130   0.42850   0.01267  Uiso   1.00
O8     O     0.83520   0.39260   0.88480   0.01267  Uiso   1.00
O9     O     0.80000   0.41920   0.97000   0.01267  Uiso   1.00
O10    O     0.70940   0.58340   0.98340   0.01267  Uiso   1.00
O11    O     0.58130   0.55120   0.06420   0.01267  Uiso   1.00
O12    O     0.26760   0.34900   0.13610   0.01267  Uiso   1.00
O13    O     0.56070   0.41250   0.13070   0.01267  Uiso   1.00
O14    O     0.06650   0.55870   0.92850   0.01267  Uiso   1.00
O15    O     0.83520   0.39260   0.61520   0.01267  Uiso   1.00
O16    O     0.80000   0.41920   0.53000   0.01267  Uiso   1.00
O17    O     0.70940   0.58340   0.51660   0.01267  Uiso   1.00
O18    O     0.58130   0.55120   0.43580   0.01267  Uiso   1.00
O19    O     0.26760   0.34900   0.36390   0.01267  Uiso   1.00
O20    O     0.56070   0.41250   0.36930   0.01267  Uiso   1.00
O21    O     0.06650   0.55870   0.57150   0.01267  Uiso   1.00
O22    O     0.16480   0.60740   0.11520   0.01267  Uiso   1.00
O23    O     0.20000   0.58080   0.03000   0.01267  Uiso   1.00
O24    O     0.29060   0.41660   0.01660   0.01267  Uiso   1.00
O25    O     0.41870   0.44880   0.93580   0.01267  Uiso   1.00
O26    O     0.73240   0.65100   0.86390   0.01267  Uiso   1.00
O27    O     0.43930   0.58750   0.86930   0.01267  Uiso   1.00
O28    O     0.93350   0.44130   0.07150   0.01267  Uiso   1.00
O29    O     0.97590   0.41560   0.75000   0.01267  Uiso   1.00
O30    O     0.69290   0.34220   0.75000   0.01267  Uiso   1.00
O31    O     0.02410   0.58440   0.25000   0.01267  Uiso   1.00
O32    O     0.30710   0.65780   0.25000   0.01267  Uiso   1.00
