data_ELEROD_clean
_audit_creation_date              2014-07-02
_audit_creation_method            'Materials Studio'
_symmetry_space_group_name_H-M    'P1'
_symmetry_Int_Tables_number       1
_symmetry_cell_setting            triclinic
loop_
_symmetry_equiv_pos_as_xyz
  x,y,z
_cell_length_a                    7.0328
_cell_length_b                    18.1580
_cell_length_c                    24.6600
_cell_angle_alpha                 90.0000
_cell_angle_beta                  90.0000
_cell_angle_gamma                 99.5400
loop_
_atom_site_label
_atom_site_type_symbol
_atom_site_fract_x
_atom_site_fract_y
_atom_site_fract_z
_atom_site_U_iso_or_equiv
_atom_site_adp_type
_atom_site_occupancy
Eu1    Eu    0.21929   0.01571   0.40171   0.01267  Uiso   1.00
Eu2    Eu    0.78071   0.98429   0.90171   0.01267  Uiso   1.00
Eu3    Eu    0.78071   0.98429   0.59829   0.01267  Uiso   1.00
Eu4    Eu    0.21929   0.01571   0.09829   0.01267  Uiso   1.00
Cu1    Cu    0.75160   0.44615   0.31520   0.01267  Uiso   1.00
Cu2    Cu    0.37900   0.54442   0.49233   0.01267  Uiso   1.00
Cu3    Cu    0.82560   0.55967   0.41930   0.01267  Uiso   1.00
Cu4    Cu    0.24840   0.55385   0.81520   0.01267  Uiso   1.00
Cu5    Cu    0.62100   0.45558   0.99233   0.01267  Uiso   1.00
Cu6    Cu    0.17440   0.44033   0.91930   0.01267  Uiso   1.00
Cu7    Cu    0.24840   0.55385   0.68480   0.01267  Uiso   1.00
Cu8    Cu    0.62100   0.45558   0.50767   0.01267  Uiso   1.00
Cu9    Cu    0.17440   0.44033   0.58070   0.01267  Uiso   1.00
Cu10   Cu    0.75160   0.44615   0.18480   0.01267  Uiso   1.00
Cu11   Cu    0.37900   0.54442   0.00767   0.01267  Uiso   1.00
Cu12   Cu    0.82560   0.55967   0.08070   0.01267  Uiso   1.00
Cu13   Cu    0.77120   0.56582   0.25000   0.01267  Uiso   1.00
Cu14   Cu    0.22880   0.43418   0.75000   0.01267  Uiso   1.00
H1     H     0.22570   0.28050   0.36310   0.01267  Uiso   1.00
H2     H     0.11320   0.39240   0.34640   0.01267  Uiso   1.00
H3     H     0.59420   0.28120   0.32040   0.01267  Uiso   1.00
H4     H     0.69470   0.16860   0.33890   0.01267  Uiso   1.00
H5     H     0.39070   0.76130   0.37060   0.01267  Uiso   1.00
H6     H     0.42180   0.64180   0.39470   0.01267  Uiso   1.00
H7     H     0.31840   0.68290   0.54870   0.01267  Uiso   1.00
H8     H     0.29140   0.80300   0.52810   0.01267  Uiso   1.00
H9     H     0.90550   0.83430   0.37850   0.01267  Uiso   1.00
H10    H     0.90070   0.70870   0.36220   0.01267  Uiso   1.00
H11    H     0.80130   0.65760   0.51630   0.01267  Uiso   1.00
H12    H     0.80670   0.78310   0.53710   0.01267  Uiso   1.00
H13    H     0.77430   0.71950   0.86310   0.01267  Uiso   1.00
H14    H     0.88680   0.60760   0.84640   0.01267  Uiso   1.00
H15    H     0.40580   0.71880   0.82040   0.01267  Uiso   1.00
H16    H     0.30530   0.83140   0.83890   0.01267  Uiso   1.00
H17    H     0.60930   0.23870   0.87060   0.01267  Uiso   1.00
H18    H     0.57820   0.35820   0.89470   0.01267  Uiso   1.00
H19    H     0.68160   0.31710   0.04870   0.01267  Uiso   1.00
H20    H     0.70860   0.19700   0.02810   0.01267  Uiso   1.00
H21    H     0.09450   0.16570   0.87850   0.01267  Uiso   1.00
H22    H     0.09930   0.29130   0.86220   0.01267  Uiso   1.00
H23    H     0.19870   0.34240   0.01630   0.01267  Uiso   1.00
H24    H     0.19330   0.21690   0.03710   0.01267  Uiso   1.00
H25    H     0.77430   0.71950   0.63690   0.01267  Uiso   1.00
H26    H     0.88680   0.60760   0.65360   0.01267  Uiso   1.00
H27    H     0.40580   0.71880   0.67960   0.01267  Uiso   1.00
H28    H     0.30530   0.83140   0.66110   0.01267  Uiso   1.00
H29    H     0.60930   0.23870   0.62940   0.01267  Uiso   1.00
H30    H     0.57820   0.35820   0.60530   0.01267  Uiso   1.00
H31    H     0.68160   0.31710   0.45130   0.01267  Uiso   1.00
H32    H     0.70860   0.19700   0.47190   0.01267  Uiso   1.00
H33    H     0.09450   0.16570   0.62150   0.01267  Uiso   1.00
H34    H     0.09930   0.29130   0.63780   0.01267  Uiso   1.00
H35    H     0.19870   0.34240   0.48370   0.01267  Uiso   1.00
H36    H     0.19330   0.21690   0.46290   0.01267  Uiso   1.00
H37    H     0.22570   0.28050   0.13690   0.01267  Uiso   1.00
H38    H     0.11320   0.39240   0.15360   0.01267  Uiso   1.00
H39    H     0.59420   0.28120   0.17960   0.01267  Uiso   1.00
H40    H     0.69470   0.16860   0.16110   0.01267  Uiso   1.00
H41    H     0.39070   0.76130   0.12940   0.01267  Uiso   1.00
H42    H     0.42180   0.64180   0.10530   0.01267  Uiso   1.00
H43    H     0.31840   0.68290   0.95130   0.01267  Uiso   1.00
H44    H     0.29140   0.80300   0.97190   0.01267  Uiso   1.00
H45    H     0.90550   0.83430   0.12150   0.01267  Uiso   1.00
H46    H     0.90070   0.70870   0.13780   0.01267  Uiso   1.00
H47    H     0.80130   0.65760   0.98370   0.01267  Uiso   1.00
H48    H     0.80670   0.78310   0.96290   0.01267  Uiso   1.00
H49    H     0.22270   0.71060   0.25000   0.01267  Uiso   1.00
H50    H     0.37940   0.60150   0.25000   0.01267  Uiso   1.00
H51    H     0.88620   0.73830   0.25000   0.01267  Uiso   1.00
H52    H     0.74390   0.84120   0.25000   0.01267  Uiso   1.00
H53    H     0.77730   0.28940   0.75000   0.01267  Uiso   1.00
H54    H     0.62060   0.39850   0.75000   0.01267  Uiso   1.00
H55    H     0.11380   0.26170   0.75000   0.01267  Uiso   1.00
H56    H     0.25610   0.15880   0.75000   0.01267  Uiso   1.00
C1     C     0.05100   0.14300   0.36270   0.01267  Uiso   1.00
C2     C     0.97600   0.21460   0.35200   0.01267  Uiso   1.00
C3     C     0.09400   0.27940   0.35450   0.01267  Uiso   1.00
C4     C     0.02500   0.34670   0.34440   0.01267  Uiso   1.00
C5     C     0.72600   0.28220   0.32980   0.01267  Uiso   1.00
C6     C     0.78400   0.21400   0.34010   0.01267  Uiso   1.00
C7     C     0.32600   0.87670   0.43290   0.01267  Uiso   1.00
C8     C     0.34580   0.79800   0.44830   0.01267  Uiso   1.00
C9     C     0.37900   0.74630   0.40750   0.01267  Uiso   1.00
C10    C     0.39450   0.67560   0.42190   0.01267  Uiso   1.00
C11    C     0.33490   0.69930   0.51210   0.01267  Uiso   1.00
C12    C     0.32020   0.77080   0.49990   0.01267  Uiso   1.00
C13    C     0.85910   0.90330   0.47360   0.01267  Uiso   1.00
C14    C     0.85750   0.82070   0.45950   0.01267  Uiso   1.00
C15    C     0.88430   0.79910   0.40730   0.01267  Uiso   1.00
C16    C     0.87900   0.72380   0.39830   0.01267  Uiso   1.00
C17    C     0.82180   0.69360   0.48810   0.01267  Uiso   1.00
C18    C     0.82560   0.76820   0.50080   0.01267  Uiso   1.00
C19    C     0.94900   0.85700   0.86270   0.01267  Uiso   1.00
C20    C     0.02400   0.78540   0.85200   0.01267  Uiso   1.00
C21    C     0.90600   0.72060   0.85450   0.01267  Uiso   1.00
C22    C     0.97500   0.65330   0.84440   0.01267  Uiso   1.00
C23    C     0.27400   0.71780   0.82980   0.01267  Uiso   1.00
C24    C     0.21600   0.78600   0.84010   0.01267  Uiso   1.00
C25    C     0.67400   0.12330   0.93290   0.01267  Uiso   1.00
C26    C     0.65420   0.20200   0.94830   0.01267  Uiso   1.00
C27    C     0.62100   0.25370   0.90750   0.01267  Uiso   1.00
C28    C     0.60550   0.32440   0.92190   0.01267  Uiso   1.00
C29    C     0.66510   0.30070   0.01210   0.01267  Uiso   1.00
C30    C     0.67980   0.22920   0.99990   0.01267  Uiso   1.00
C31    C     0.14090   0.09670   0.97360   0.01267  Uiso   1.00
C32    C     0.14250   0.17930   0.95950   0.01267  Uiso   1.00
C33    C     0.11570   0.20090   0.90730   0.01267  Uiso   1.00
C34    C     0.12100   0.27620   0.89830   0.01267  Uiso   1.00
C35    C     0.17820   0.30640   0.98810   0.01267  Uiso   1.00
C36    C     0.17440   0.23180   0.00080   0.01267  Uiso   1.00
C37    C     0.94900   0.85700   0.63730   0.01267  Uiso   1.00
C38    C     0.02400   0.78540   0.64800   0.01267  Uiso   1.00
C39    C     0.90600   0.72060   0.64550   0.01267  Uiso   1.00
C40    C     0.97500   0.65330   0.65560   0.01267  Uiso   1.00
C41    C     0.27400   0.71780   0.67020   0.01267  Uiso   1.00
C42    C     0.21600   0.78600   0.65990   0.01267  Uiso   1.00
C43    C     0.67400   0.12330   0.56710   0.01267  Uiso   1.00
C44    C     0.65420   0.20200   0.55170   0.01267  Uiso   1.00
C45    C     0.62100   0.25370   0.59250   0.01267  Uiso   1.00
C46    C     0.60550   0.32440   0.57810   0.01267  Uiso   1.00
C47    C     0.66510   0.30070   0.48790   0.01267  Uiso   1.00
C48    C     0.67980   0.22920   0.50010   0.01267  Uiso   1.00
C49    C     0.14090   0.09670   0.52640   0.01267  Uiso   1.00
C50    C     0.14250   0.17930   0.54050   0.01267  Uiso   1.00
C51    C     0.11570   0.20090   0.59270   0.01267  Uiso   1.00
C52    C     0.12100   0.27620   0.60170   0.01267  Uiso   1.00
C53    C     0.17820   0.30640   0.51190   0.01267  Uiso   1.00
C54    C     0.17440   0.23180   0.49920   0.01267  Uiso   1.00
C55    C     0.05100   0.14300   0.13730   0.01267  Uiso   1.00
C56    C     0.97600   0.21460   0.14800   0.01267  Uiso   1.00
C57    C     0.09400   0.27940   0.14550   0.01267  Uiso   1.00
C58    C     0.02500   0.34670   0.15560   0.01267  Uiso   1.00
C59    C     0.72600   0.28220   0.17020   0.01267  Uiso   1.00
C60    C     0.78400   0.21400   0.15990   0.01267  Uiso   1.00
C61    C     0.32600   0.87670   0.06710   0.01267  Uiso   1.00
C62    C     0.34580   0.79800   0.05170   0.01267  Uiso   1.00
C63    C     0.37900   0.74630   0.09250   0.01267  Uiso   1.00
C64    C     0.39450   0.67560   0.07810   0.01267  Uiso   1.00
C65    C     0.33490   0.69930   0.98790   0.01267  Uiso   1.00
C66    C     0.32020   0.77080   0.00010   0.01267  Uiso   1.00
C67    C     0.85910   0.90330   0.02640   0.01267  Uiso   1.00
C68    C     0.85750   0.82070   0.04050   0.01267  Uiso   1.00
C69    C     0.88430   0.79910   0.09270   0.01267  Uiso   1.00
C70    C     0.87900   0.72380   0.10170   0.01267  Uiso   1.00
C71    C     0.82180   0.69360   0.01190   0.01267  Uiso   1.00
C72    C     0.82560   0.76820   0.99920   0.01267  Uiso   1.00
C73    C     0.36200   0.85330   0.25000   0.01267  Uiso   1.00
C74    C     0.47200   0.79040   0.25000   0.01267  Uiso   1.00
C75    C     0.35900   0.71650   0.25000   0.01267  Uiso   1.00
C76    C     0.45300   0.65040   0.25000   0.01267  Uiso   1.00
C77    C     0.74900   0.73180   0.25000   0.01267  Uiso   1.00
C78    C     0.66400   0.79360   0.25000   0.01267  Uiso   1.00
C79    C     0.63800   0.14670   0.75000   0.01267  Uiso   1.00
C80    C     0.52800   0.20960   0.75000   0.01267  Uiso   1.00
C81    C     0.64100   0.28350   0.75000   0.01267  Uiso   1.00
C82    C     0.54700   0.34960   0.75000   0.01267  Uiso   1.00
C83    C     0.25100   0.26820   0.75000   0.01267  Uiso   1.00
C84    C     0.33600   0.20640   0.75000   0.01267  Uiso   1.00
I1     I     0.02427   0.55690   0.32978   0.01267  Uiso   1.00
I2     I     0.48960   0.47047   0.40983   0.01267  Uiso   1.00
I3     I     0.97573   0.44310   0.82978   0.01267  Uiso   1.00
I4     I     0.51040   0.52953   0.90983   0.01267  Uiso   1.00
I5     I     0.97573   0.44310   0.67022   0.01267  Uiso   1.00
I6     I     0.51040   0.52953   0.59017   0.01267  Uiso   1.00
I7     I     0.02427   0.55690   0.17022   0.01267  Uiso   1.00
I8     I     0.48960   0.47047   0.09017   0.01267  Uiso   1.00
I9     I     0.46789   0.44153   0.25000   0.01267  Uiso   1.00
I10    I     0.53211   0.55847   0.75000   0.01267  Uiso   1.00
I11    I     0.00000   0.50000   0.50000   0.01267  Uiso   1.00
I12    I     0.00000   0.50000   0.00000   0.01267  Uiso   1.00
N1     N     0.83770   0.34880   0.33200   0.01267  Uiso   1.00
N2     N     0.37200   0.65120   0.47420   0.01267  Uiso   1.00
N3     N     0.84660   0.67000   0.43630   0.01267  Uiso   1.00
N4     N     0.16230   0.65120   0.83200   0.01267  Uiso   1.00
N5     N     0.62800   0.34880   0.97420   0.01267  Uiso   1.00
N6     N     0.15340   0.33000   0.93630   0.01267  Uiso   1.00
N7     N     0.16230   0.65120   0.66800   0.01267  Uiso   1.00
N8     N     0.62800   0.34880   0.52580   0.01267  Uiso   1.00
N9     N     0.15340   0.33000   0.56370   0.01267  Uiso   1.00
N10    N     0.83770   0.34880   0.16800   0.01267  Uiso   1.00
N11    N     0.37200   0.65120   0.02580   0.01267  Uiso   1.00
N12    N     0.84660   0.67000   0.06370   0.01267  Uiso   1.00
N13    N     0.65000   0.66150   0.25000   0.01267  Uiso   1.00
N14    N     0.35000   0.33850   0.75000   0.01267  Uiso   1.00
O1     O     0.23210   0.14690   0.36430   0.01267  Uiso   1.00
O2     O     0.93800   0.08440   0.37150   0.01267  Uiso   1.00
O3     O     0.33130   0.89640   0.38450   0.01267  Uiso   1.00
O4     O     0.30310   0.92300   0.47030   0.01267  Uiso   1.00
O5     O     0.92600   0.95020   0.43710   0.01267  Uiso   1.00
O6     O     0.79210   0.91680   0.51830   0.01267  Uiso   1.00
O7     O     0.76790   0.85310   0.86430   0.01267  Uiso   1.00
O8     O     0.06200   0.91560   0.87150   0.01267  Uiso   1.00
O9     O     0.66870   0.10360   0.88450   0.01267  Uiso   1.00
O10    O     0.69690   0.07700   0.97030   0.01267  Uiso   1.00
O11    O     0.07400   0.04980   0.93710   0.01267  Uiso   1.00
O12    O     0.20790   0.08320   0.01830   0.01267  Uiso   1.00
O13    O     0.76790   0.85310   0.63570   0.01267  Uiso   1.00
O14    O     0.06200   0.91560   0.62850   0.01267  Uiso   1.00
O15    O     0.66870   0.10360   0.61550   0.01267  Uiso   1.00
O16    O     0.69690   0.07700   0.52970   0.01267  Uiso   1.00
O17    O     0.07400   0.04980   0.56290   0.01267  Uiso   1.00
O18    O     0.20790   0.08320   0.48170   0.01267  Uiso   1.00
O19    O     0.23210   0.14690   0.13570   0.01267  Uiso   1.00
O20    O     0.93800   0.08440   0.12850   0.01267  Uiso   1.00
O21    O     0.33130   0.89640   0.11550   0.01267  Uiso   1.00
O22    O     0.30310   0.92300   0.02970   0.01267  Uiso   1.00
O23    O     0.92600   0.95020   0.06290   0.01267  Uiso   1.00
O24    O     0.79210   0.91680   0.98170   0.01267  Uiso   1.00
O25    O     0.47300   0.91950   0.25000   0.01267  Uiso   1.00
O26    O     0.18690   0.84740   0.25000   0.01267  Uiso   1.00
O27    O     0.52700   0.08050   0.75000   0.01267  Uiso   1.00
O28    O     0.81310   0.15260   0.75000   0.01267  Uiso   1.00
