data_ELIJOZ_clean
_audit_creation_date              2014-07-02
_audit_creation_method            'Materials Studio'
_symmetry_space_group_name_H-M    'P1'
_symmetry_Int_Tables_number       1
_symmetry_cell_setting            triclinic
loop_
_symmetry_equiv_pos_as_xyz
  x,y,z
_cell_length_a                    9.4230
_cell_length_b                    9.9470
_cell_length_c                    11.4190
_cell_angle_alpha                 93.6330
_cell_angle_beta                  98.0920
_cell_angle_gamma                 110.6490
loop_
_atom_site_label
_atom_site_type_symbol
_atom_site_fract_x
_atom_site_fract_y
_atom_site_fract_z
_atom_site_U_iso_or_equiv
_atom_site_adp_type
_atom_site_occupancy
Ce1    Ce    0.28419   0.04592   0.98479   0.01267  Uiso   1.00
Ce2    Ce    0.71581   0.95408   0.01521   0.01267  Uiso   1.00
H1     H     0.68320   0.50650   0.96320   0.01267  Uiso   1.00
H2     H     0.08100   0.63570   0.83630   0.01267  Uiso   1.00
H3     H     0.80300   0.21510   0.78110   0.01267  Uiso   1.00
H4     H     0.82660   0.40260   0.56960   0.01267  Uiso   1.00
H5     H     0.73610   0.27850   0.38240   0.01267  Uiso   1.00
H6     H     0.06090   0.10450   0.42700   0.01267  Uiso   1.00
H7     H     0.15220   0.22740   0.61640   0.01267  Uiso   1.00
H8     H     0.31680   0.49350   0.03680   0.01267  Uiso   1.00
H9     H     0.91900   0.36430   0.16370   0.01267  Uiso   1.00
H10    H     0.19700   0.78490   0.21890   0.01267  Uiso   1.00
H11    H     0.17340   0.59740   0.43040   0.01267  Uiso   1.00
H12    H     0.26390   0.72150   0.61760   0.01267  Uiso   1.00
H13    H     0.93910   0.89550   0.57300   0.01267  Uiso   1.00
H14    H     0.84780   0.77260   0.38360   0.01267  Uiso   1.00
C1     C     0.57930   0.22600   0.89640   0.01267  Uiso   1.00
C2     C     0.72180   0.34270   0.87540   0.01267  Uiso   1.00
C3     C     0.75320   0.48470   0.92310   0.01267  Uiso   1.00
C4     C     0.88820   0.59260   0.91080   0.01267  Uiso   1.00
C5     C     0.98990   0.56300   0.84480   0.01267  Uiso   1.00
C6     C     0.95160   0.42240   0.79250   0.01267  Uiso   1.00
C7     C     0.82210   0.31020   0.81110   0.01267  Uiso   1.00
C8     C     0.92530   0.74430   0.96830   0.01267  Uiso   1.00
C9     C     0.87200   0.34080   0.54130   0.01267  Uiso   1.00
C10    C     0.81870   0.26670   0.42950   0.01267  Uiso   1.00
C11    C     0.88420   0.17420   0.38410   0.01267  Uiso   1.00
C12    C     0.01230   0.16290   0.45630   0.01267  Uiso   1.00
C13    C     0.06750   0.23630   0.56970   0.01267  Uiso   1.00
C14    C     0.99570   0.32260   0.61270   0.01267  Uiso   1.00
C15    C     0.82460   0.09020   0.26560   0.01267  Uiso   1.00
C16    C     0.42070   0.77400   0.10360   0.01267  Uiso   1.00
C17    C     0.27820   0.65730   0.12460   0.01267  Uiso   1.00
C18    C     0.24680   0.51530   0.07690   0.01267  Uiso   1.00
C19    C     0.11180   0.40740   0.08920   0.01267  Uiso   1.00
C20    C     0.01010   0.43700   0.15520   0.01267  Uiso   1.00
C21    C     0.04840   0.57760   0.20750   0.01267  Uiso   1.00
C22    C     0.17790   0.68980   0.18890   0.01267  Uiso   1.00
C23    C     0.07470   0.25570   0.03170   0.01267  Uiso   1.00
C24    C     0.12800   0.65920   0.45870   0.01267  Uiso   1.00
C25    C     0.18130   0.73330   0.57050   0.01267  Uiso   1.00
C26    C     0.11580   0.82580   0.61590   0.01267  Uiso   1.00
C27    C     0.98770   0.83710   0.54370   0.01267  Uiso   1.00
C28    C     0.93250   0.76370   0.43030   0.01267  Uiso   1.00
C29    C     0.00430   0.67740   0.38730   0.01267  Uiso   1.00
C30    C     0.17540   0.90980   0.73440   0.01267  Uiso   1.00
O1     O     0.45620   0.25110   0.88740   0.01267  Uiso   1.00
O2     O     0.58480   0.10750   0.92490   0.01267  Uiso   1.00
O3     O     0.82230   0.76900   0.01350   0.01267  Uiso   1.00
O4     O     0.05550   0.83620   0.96830   0.01267  Uiso   1.00
O5     O     0.71400   0.11030   0.19970   0.01267  Uiso   1.00
O6     O     0.87920   0.00000   0.22840   0.01267  Uiso   1.00
O7     O     0.05450   0.39500   0.72640   0.01267  Uiso   1.00
O8     O     0.54380   0.74890   0.11260   0.01267  Uiso   1.00
O9     O     0.41520   0.89250   0.07510   0.01267  Uiso   1.00
O10    O     0.17770   0.23100   0.98650   0.01267  Uiso   1.00
O11    O     0.94450   0.16380   0.03170   0.01267  Uiso   1.00
O12    O     0.28600   0.88970   0.80030   0.01267  Uiso   1.00
O13    O     0.12080   0.00000   0.77160   0.01267  Uiso   1.00
O14    O     0.94550   0.60500   0.27360   0.01267  Uiso   1.00
