data_ELIJUF_clean
_audit_creation_date              2014-07-02
_audit_creation_method            'Materials Studio'
_symmetry_space_group_name_H-M    'P1'
_symmetry_Int_Tables_number       1
_symmetry_cell_setting            triclinic
loop_
_symmetry_equiv_pos_as_xyz
  x,y,z
_cell_length_a                    9.3530
_cell_length_b                    9.7970
_cell_length_c                    11.3880
_cell_angle_alpha                 94.3400
_cell_angle_beta                  99.4070
_cell_angle_gamma                 111.4550
loop_
_atom_site_label
_atom_site_type_symbol
_atom_site_fract_x
_atom_site_fract_y
_atom_site_fract_z
_atom_site_U_iso_or_equiv
_atom_site_adp_type
_atom_site_occupancy
Y1     Y     0.27654   0.54510   0.48855   0.01267  Uiso   1.00
Y2     Y     0.72346   0.45490   0.51145   0.01267  Uiso   1.00
H1     H     0.27380   0.23310   0.12100   0.01267  Uiso   1.00
H2     H     0.17660   0.10180   0.93620   0.01267  Uiso   1.00
H3     H     0.84510   0.26990   0.88450   0.01267  Uiso   1.00
H4     H     0.93680   0.39710   0.07810   0.01267  Uiso   1.00
H5     H     0.19970   0.29240   0.72280   0.01267  Uiso   1.00
H6     H     0.32210   0.00250   0.54010   0.01267  Uiso   1.00
H7     H     0.92050   0.85950   0.66090   0.01267  Uiso   1.00
H8     H     0.72620   0.76690   0.87900   0.01267  Uiso   1.00
H9     H     0.82340   0.89820   0.06380   0.01267  Uiso   1.00
H10    H     0.15490   0.73010   0.11550   0.01267  Uiso   1.00
H11    H     0.06320   0.60290   0.92190   0.01267  Uiso   1.00
H12    H     0.80030   0.70760   0.27720   0.01267  Uiso   1.00
H13    H     0.67790   0.99750   0.45990   0.01267  Uiso   1.00
H14    H     0.07950   0.14050   0.33910   0.01267  Uiso   1.00
C1     C     0.17510   0.41270   0.24520   0.01267  Uiso   1.00
C2     C     0.11590   0.32770   0.12340   0.01267  Uiso   1.00
C3     C     0.18570   0.23960   0.07450   0.01267  Uiso   1.00
C4     C     0.13100   0.16460   0.96380   0.01267  Uiso   1.00
C5     C     0.00560   0.17950   0.88890   0.01267  Uiso   1.00
C6     C     0.93200   0.26340   0.93290   0.01267  Uiso   1.00
C7     C     0.98630   0.33880   0.04910   0.01267  Uiso   1.00
C8     C     0.04800   0.07750   0.70760   0.01267  Uiso   1.00
C9     C     0.18030   0.19560   0.69100   0.01267  Uiso   1.00
C10    C     0.28110   0.16580   0.62670   0.01267  Uiso   1.00
C11    C     0.25090   0.02250   0.57960   0.01267  Uiso   1.00
C12    C     0.11410   0.90630   0.59040   0.01267  Uiso   1.00
C13    C     0.01260   0.93560   0.65420   0.01267  Uiso   1.00
C14    C     0.41950   0.29100   0.60310   0.01267  Uiso   1.00
C15    C     0.08150   0.75330   0.53320   0.01267  Uiso   1.00
C16    C     0.82490   0.58730   0.75480   0.01267  Uiso   1.00
C17    C     0.88410   0.67230   0.87660   0.01267  Uiso   1.00
C18    C     0.81430   0.76040   0.92550   0.01267  Uiso   1.00
C19    C     0.86900   0.83540   0.03620   0.01267  Uiso   1.00
C20    C     0.99440   0.82050   0.11110   0.01267  Uiso   1.00
C21    C     0.06800   0.73660   0.06710   0.01267  Uiso   1.00
C22    C     0.01370   0.66120   0.95090   0.01267  Uiso   1.00
C23    C     0.95200   0.92250   0.29240   0.01267  Uiso   1.00
C24    C     0.81970   0.80440   0.30900   0.01267  Uiso   1.00
C25    C     0.71890   0.83420   0.37330   0.01267  Uiso   1.00
C26    C     0.74910   0.97750   0.42040   0.01267  Uiso   1.00
C27    C     0.88590   0.09370   0.40960   0.01267  Uiso   1.00
C28    C     0.98740   0.06440   0.34580   0.01267  Uiso   1.00
C29    C     0.58050   0.70900   0.39690   0.01267  Uiso   1.00
C30    C     0.91850   0.24670   0.46680   0.01267  Uiso   1.00
O1     O     0.12220   0.50450   0.28280   0.01267  Uiso   1.00
O2     O     0.28150   0.38930   0.31690   0.01267  Uiso   1.00
O3     O     0.54660   0.27510   0.60580   0.01267  Uiso   1.00
O4     O     0.40230   0.40770   0.57780   0.01267  Uiso   1.00
O5     O     0.18910   0.73070   0.49170   0.01267  Uiso   1.00
O6     O     0.94960   0.65530   0.52850   0.01267  Uiso   1.00
O7     O     0.94520   0.10500   0.77260   0.01267  Uiso   1.00
O8     O     0.87780   0.49550   0.71720   0.01267  Uiso   1.00
O9     O     0.71850   0.61070   0.68310   0.01267  Uiso   1.00
O10    O     0.45340   0.72490   0.39420   0.01267  Uiso   1.00
O11    O     0.59770   0.59230   0.42220   0.01267  Uiso   1.00
O12    O     0.81090   0.26930   0.50830   0.01267  Uiso   1.00
O13    O     0.05040   0.34470   0.47150   0.01267  Uiso   1.00
O14    O     0.05480   0.89500   0.22740   0.01267  Uiso   1.00
