data_ELIKOA_clean
_audit_creation_date              2014-07-02
_audit_creation_method            'Materials Studio'
_symmetry_space_group_name_H-M    'P1'
_symmetry_Int_Tables_number       1
_symmetry_cell_setting            triclinic
loop_
_symmetry_equiv_pos_as_xyz
  x,y,z
_cell_length_a                    9.3410
_cell_length_b                    9.8490
_cell_length_c                    11.4220
_cell_angle_alpha                 94.0760
_cell_angle_beta                  98.5770
_cell_angle_gamma                 110.9270
loop_
_atom_site_label
_atom_site_type_symbol
_atom_site_fract_x
_atom_site_fract_y
_atom_site_fract_z
_atom_site_U_iso_or_equiv
_atom_site_adp_type
_atom_site_occupancy
Eu1    Eu    0.71801   0.45464   0.01471   0.01267  Uiso   1.00
Eu2    Eu    0.28199   0.54536   0.98529   0.01267  Uiso   1.00
H1     H     0.06550   0.60420   0.42290   0.01267  Uiso   1.00
H2     H     0.15440   0.72850   0.61590   0.01267  Uiso   1.00
H3     H     0.82290   0.89780   0.56860   0.01267  Uiso   1.00
H4     H     0.73130   0.77310   0.38030   0.01267  Uiso   1.00
H5     H     0.07960   0.13900   0.83540   0.01267  Uiso   1.00
H6     H     0.67950   0.00300   0.96190   0.01267  Uiso   1.00
H7     H     0.80410   0.71190   0.77930   0.01267  Uiso   1.00
H8     H     0.93450   0.39580   0.57710   0.01267  Uiso   1.00
H9     H     0.84560   0.27150   0.38410   0.01267  Uiso   1.00
H10    H     0.17710   0.10220   0.43140   0.01267  Uiso   1.00
H11    H     0.26870   0.22690   0.61970   0.01267  Uiso   1.00
H12    H     0.92040   0.86100   0.16460   0.01267  Uiso   1.00
H13    H     0.32050   0.99700   0.03810   0.01267  Uiso   1.00
H14    H     0.19590   0.28810   0.22070   0.01267  Uiso   1.00
C1     C     0.82430   0.58830   0.26000   0.01267  Uiso   1.00
C2     C     0.88590   0.67260   0.38040   0.01267  Uiso   1.00
C3     C     0.01510   0.66160   0.45240   0.01267  Uiso   1.00
C4     C     0.06880   0.73660   0.56810   0.01267  Uiso   1.00
C5     C     0.99650   0.82120   0.61120   0.01267  Uiso   1.00
C6     C     0.87000   0.83710   0.53960   0.01267  Uiso   1.00
C7     C     0.81640   0.76320   0.42730   0.01267  Uiso   1.00
C8     C     0.95290   0.92130   0.79210   0.01267  Uiso   1.00
C9     C     0.98880   0.06410   0.84440   0.01267  Uiso   1.00
C10    C     0.88800   0.09330   0.90990   0.01267  Uiso   1.00
C11    C     0.75040   0.98170   0.92210   0.01267  Uiso   1.00
C12    C     0.72020   0.83800   0.87420   0.01267  Uiso   1.00
C13    C     0.82290   0.80790   0.81000   0.01267  Uiso   1.00
C14    C     0.92240   0.24700   0.96730   0.01267  Uiso   1.00
C15    C     0.57990   0.71800   0.89760   0.01267  Uiso   1.00
C16    C     0.17570   0.41170   0.74000   0.01267  Uiso   1.00
C17    C     0.11410   0.32740   0.61960   0.01267  Uiso   1.00
C18    C     0.98490   0.33840   0.54760   0.01267  Uiso   1.00
C19    C     0.93120   0.26340   0.43190   0.01267  Uiso   1.00
C20    C     0.00350   0.17880   0.38880   0.01267  Uiso   1.00
C21    C     0.13000   0.16290   0.46040   0.01267  Uiso   1.00
C22    C     0.18360   0.23680   0.57270   0.01267  Uiso   1.00
C23    C     0.04710   0.07870   0.20790   0.01267  Uiso   1.00
C24    C     0.01120   0.93590   0.15560   0.01267  Uiso   1.00
C25    C     0.11200   0.90670   0.09010   0.01267  Uiso   1.00
C26    C     0.24960   0.01830   0.07790   0.01267  Uiso   1.00
C27    C     0.27980   0.16200   0.12580   0.01267  Uiso   1.00
C28    C     0.17710   0.19210   0.19000   0.01267  Uiso   1.00
C29    C     0.07760   0.75300   0.03270   0.01267  Uiso   1.00
C30    C     0.42010   0.28200   0.10240   0.01267  Uiso   1.00
O1     O     0.71520   0.61020   0.19200   0.01267  Uiso   1.00
O2     O     0.87940   0.49700   0.22260   0.01267  Uiso   1.00
O3     O     0.81740   0.27070   0.01070   0.01267  Uiso   1.00
O4     O     0.05500   0.34100   0.96820   0.01267  Uiso   1.00
O5     O     0.45290   0.73810   0.88880   0.01267  Uiso   1.00
O6     O     0.58990   0.60050   0.92550   0.01267  Uiso   1.00
O7     O     0.05630   0.89490   0.72620   0.01267  Uiso   1.00
O8     O     0.28480   0.38980   0.80800   0.01267  Uiso   1.00
O9     O     0.12060   0.50300   0.77740   0.01267  Uiso   1.00
O10    O     0.18260   0.72930   0.98930   0.01267  Uiso   1.00
O11    O     0.94500   0.65900   0.03180   0.01267  Uiso   1.00
O12    O     0.54710   0.26190   0.11120   0.01267  Uiso   1.00
O13    O     0.41010   0.39950   0.07450   0.01267  Uiso   1.00
O14    O     0.94370   0.10510   0.27380   0.01267  Uiso   1.00
