data_ELIKIU_clean
_audit_creation_date              2014-07-02
_audit_creation_method            'Materials Studio'
_symmetry_space_group_name_H-M    'P1'
_symmetry_Int_Tables_number       1
_symmetry_cell_setting            triclinic
loop_
_symmetry_equiv_pos_as_xyz
  x,y,z
_cell_length_a                    9.3410
_cell_length_b                    9.8650
_cell_length_c                    11.4150
_cell_angle_alpha                 94.0330
_cell_angle_beta                  98.3320
_cell_angle_gamma                 110.8090
loop_
_atom_site_label
_atom_site_type_symbol
_atom_site_fract_x
_atom_site_fract_y
_atom_site_fract_z
_atom_site_U_iso_or_equiv
_atom_site_adp_type
_atom_site_occupancy
Sm1    Sm    0.78261   0.54565   0.48497   0.01267  Uiso   1.00
Sm2    Sm    0.21739   0.45435   0.51503   0.01267  Uiso   1.00
H1     H     0.43450   0.39450   0.07710   0.01267  Uiso   1.00
H2     H     0.34630   0.27340   0.88430   0.01267  Uiso   1.00
H3     H     0.67650   0.10170   0.93110   0.01267  Uiso   1.00
H4     H     0.76730   0.22440   0.11950   0.01267  Uiso   1.00
H5     H     0.69570   0.28640   0.72130   0.01267  Uiso   1.00
H6     H     0.81810   0.99740   0.53580   0.01267  Uiso   1.00
H7     H     0.41950   0.86210   0.66490   0.01267  Uiso   1.00
H8     H     0.56550   0.60550   0.92290   0.01267  Uiso   1.00
H9     H     0.65370   0.72660   0.11570   0.01267  Uiso   1.00
H10    H     0.32350   0.89830   0.06890   0.01267  Uiso   1.00
H11    H     0.23270   0.77560   0.88050   0.01267  Uiso   1.00
H12    H     0.30430   0.71360   0.27870   0.01267  Uiso   1.00
H13    H     0.18190   0.00260   0.46420   0.01267  Uiso   1.00
H14    H     0.58050   0.13790   0.33510   0.01267  Uiso   1.00
C1     C     0.67670   0.41200   0.23910   0.01267  Uiso   1.00
C2     C     0.61650   0.32800   0.11950   0.01267  Uiso   1.00
C3     C     0.48530   0.33780   0.04710   0.01267  Uiso   1.00
C4     C     0.43110   0.26410   0.93190   0.01267  Uiso   1.00
C5     C     0.50330   0.17790   0.88920   0.01267  Uiso   1.00
C6     C     0.62940   0.16240   0.96030   0.01267  Uiso   1.00
C7     C     0.68330   0.23600   0.07260   0.01267  Uiso   1.00
C8     C     0.54730   0.07790   0.70790   0.01267  Uiso   1.00
C9     C     0.67680   0.19070   0.69010   0.01267  Uiso   1.00
C10    C     0.77760   0.16090   0.62600   0.01267  Uiso   1.00
C11    C     0.74770   0.01810   0.57690   0.01267  Uiso   1.00
C12    C     0.61140   0.90670   0.59010   0.01267  Uiso   1.00
C13    C     0.51070   0.93630   0.65580   0.01267  Uiso   1.00
C14    C     0.91980   0.28020   0.60260   0.01267  Uiso   1.00
C15    C     0.57640   0.75380   0.53250   0.01267  Uiso   1.00
C16    C     0.32330   0.58800   0.76090   0.01267  Uiso   1.00
C17    C     0.38350   0.67200   0.88050   0.01267  Uiso   1.00
C18    C     0.51470   0.66220   0.95290   0.01267  Uiso   1.00
C19    C     0.56890   0.73590   0.06810   0.01267  Uiso   1.00
C20    C     0.49670   0.82210   0.11080   0.01267  Uiso   1.00
C21    C     0.37060   0.83760   0.03970   0.01267  Uiso   1.00
C22    C     0.31670   0.76400   0.92740   0.01267  Uiso   1.00
C23    C     0.45270   0.92210   0.29210   0.01267  Uiso   1.00
C24    C     0.32320   0.80930   0.30990   0.01267  Uiso   1.00
C25    C     0.22240   0.83910   0.37400   0.01267  Uiso   1.00
C26    C     0.25230   0.98190   0.42310   0.01267  Uiso   1.00
C27    C     0.38860   0.09330   0.40990   0.01267  Uiso   1.00
C28    C     0.48930   0.06370   0.34420   0.01267  Uiso   1.00
C29    C     0.08020   0.71980   0.39740   0.01267  Uiso   1.00
C30    C     0.42360   0.24620   0.46750   0.01267  Uiso   1.00
O1     O     0.78480   0.39020   0.30640   0.01267  Uiso   1.00
O2     O     0.62200   0.50340   0.27630   0.01267  Uiso   1.00
O3     O     0.04730   0.25890   0.61150   0.01267  Uiso   1.00
O4     O     0.91140   0.39810   0.57430   0.01267  Uiso   1.00
O5     O     0.68180   0.72980   0.48890   0.01267  Uiso   1.00
O6     O     0.44470   0.65970   0.53250   0.01267  Uiso   1.00
O7     O     0.44270   0.10480   0.77410   0.01267  Uiso   1.00
O8     O     0.21520   0.60980   0.69360   0.01267  Uiso   1.00
O9     O     0.37800   0.49660   0.72370   0.01267  Uiso   1.00
O10    O     0.95270   0.74110   0.38850   0.01267  Uiso   1.00
O11    O     0.08860   0.60190   0.42570   0.01267  Uiso   1.00
O12    O     0.31820   0.27020   0.51110   0.01267  Uiso   1.00
O13    O     0.55530   0.34030   0.46750   0.01267  Uiso   1.00
O14    O     0.55730   0.89520   0.22590   0.01267  Uiso   1.00
