data_ELIKAM_clean
_audit_creation_date              2014-07-02
_audit_creation_method            'Materials Studio'
_symmetry_space_group_name_H-M    'P1'
_symmetry_Int_Tables_number       1
_symmetry_cell_setting            triclinic
loop_
_symmetry_equiv_pos_as_xyz
  x,y,z
_cell_length_a                    9.3980
_cell_length_b                    9.9110
_cell_length_c                    11.4220
_cell_angle_alpha                 93.9650
_cell_angle_beta                  98.1310
_cell_angle_gamma                 110.7820
loop_
_atom_site_label
_atom_site_type_symbol
_atom_site_fract_x
_atom_site_fract_y
_atom_site_fract_z
_atom_site_U_iso_or_equiv
_atom_site_adp_type
_atom_site_occupancy
Pr1    Pr    0.28428   0.54560   0.48512   0.01267  Uiso   1.00
Pr2    Pr    0.71572   0.45440   0.51488   0.01267  Uiso   1.00
H1     H     0.94020   0.39780   0.07400   0.01267  Uiso   1.00
H2     H     0.84980   0.27370   0.88250   0.01267  Uiso   1.00
H3     H     0.17010   0.09570   0.93140   0.01267  Uiso   1.00
H4     H     0.26330   0.22190   0.11730   0.01267  Uiso   1.00
H5     H     0.91970   0.86610   0.66370   0.01267  Uiso   1.00
H6     H     0.31940   0.99510   0.53820   0.01267  Uiso   1.00
H7     H     0.19860   0.28640   0.71910   0.01267  Uiso   1.00
H8     H     0.05980   0.60220   0.92600   0.01267  Uiso   1.00
H9     H     0.15020   0.72630   0.11750   0.01267  Uiso   1.00
H10    H     0.82990   0.90430   0.06860   0.01267  Uiso   1.00
H11    H     0.73670   0.77810   0.88270   0.01267  Uiso   1.00
H12    H     0.08030   0.13390   0.33630   0.01267  Uiso   1.00
H13    H     0.68060   0.00490   0.46180   0.01267  Uiso   1.00
H14    H     0.80140   0.71360   0.28090   0.01267  Uiso   1.00
C1     C     0.17660   0.41050   0.23650   0.01267  Uiso   1.00
C2     C     0.11650   0.32650   0.11660   0.01267  Uiso   1.00
C3     C     0.98870   0.33900   0.04460   0.01267  Uiso   1.00
C4     C     0.93410   0.26440   0.92980   0.01267  Uiso   1.00
C5     C     0.00450   0.17780   0.88700   0.01267  Uiso   1.00
C6     C     0.12590   0.15920   0.95920   0.01267  Uiso   1.00
C7     C     0.18020   0.23380   0.07060   0.01267  Uiso   1.00
C8     C     0.04880   0.07860   0.70620   0.01267  Uiso   1.00
C9     C     0.01140   0.93870   0.65490   0.01267  Uiso   1.00
C10    C     0.11150   0.90640   0.58980   0.01267  Uiso   1.00
C11    C     0.07540   0.75540   0.53290   0.01267  Uiso   1.00
C12    C     0.24860   0.01680   0.57760   0.01267  Uiso   1.00
C13    C     0.27840   0.15750   0.62410   0.01267  Uiso   1.00
C14    C     0.17870   0.19080   0.68850   0.01267  Uiso   1.00
C15    C     0.42030   0.27460   0.60240   0.01267  Uiso   1.00
C16    C     0.82340   0.58950   0.76350   0.01267  Uiso   1.00
C17    C     0.88350   0.67350   0.88340   0.01267  Uiso   1.00
C18    C     0.01130   0.66100   0.95540   0.01267  Uiso   1.00
C19    C     0.06590   0.73560   0.07020   0.01267  Uiso   1.00
C20    C     0.99550   0.82220   0.11300   0.01267  Uiso   1.00
C21    C     0.87410   0.84080   0.04080   0.01267  Uiso   1.00
C22    C     0.81980   0.76620   0.92940   0.01267  Uiso   1.00
C23    C     0.95120   0.92140   0.29380   0.01267  Uiso   1.00
C24    C     0.98860   0.06130   0.34510   0.01267  Uiso   1.00
C25    C     0.88850   0.09360   0.41020   0.01267  Uiso   1.00
C26    C     0.92460   0.24460   0.46710   0.01267  Uiso   1.00
C27    C     0.75140   0.98320   0.42240   0.01267  Uiso   1.00
C28    C     0.72160   0.84250   0.37590   0.01267  Uiso   1.00
C29    C     0.82130   0.80920   0.31150   0.01267  Uiso   1.00
C30    C     0.57970   0.72540   0.39760   0.01267  Uiso   1.00
O1     O     0.28490   0.38940   0.30230   0.01267  Uiso   1.00
O2     O     0.12240   0.50030   0.27370   0.01267  Uiso   1.00
O3     O     0.94480   0.66220   0.53160   0.01267  Uiso   1.00
O4     O     0.17870   0.73020   0.48800   0.01267  Uiso   1.00
O5     O     0.41470   0.39410   0.57440   0.01267  Uiso   1.00
O6     O     0.54620   0.25180   0.61130   0.01267  Uiso   1.00
O7     O     0.94440   0.10620   0.77290   0.01267  Uiso   1.00
O8     O     0.71510   0.61060   0.69770   0.01267  Uiso   1.00
O9     O     0.87760   0.49970   0.72630   0.01267  Uiso   1.00
O10    O     0.05520   0.33780   0.46840   0.01267  Uiso   1.00
O11    O     0.82130   0.26980   0.51200   0.01267  Uiso   1.00
O12    O     0.58530   0.60590   0.42560   0.01267  Uiso   1.00
O13    O     0.45380   0.74820   0.38870   0.01267  Uiso   1.00
O14    O     0.05560   0.89380   0.22710   0.01267  Uiso   1.00
