data_ELILER_clean
_audit_creation_date              2014-07-02
_audit_creation_method            'Materials Studio'
_symmetry_space_group_name_H-M    'P1'
_symmetry_Int_Tables_number       1
_symmetry_cell_setting            triclinic
loop_
_symmetry_equiv_pos_as_xyz
  x,y,z
_cell_length_a                    9.3490
_cell_length_b                    9.8000
_cell_length_c                    11.3790
_cell_angle_alpha                 94.4410
_cell_angle_beta                  99.3050
_cell_angle_gamma                 111.5270
loop_
_atom_site_label
_atom_site_type_symbol
_atom_site_fract_x
_atom_site_fract_y
_atom_site_fract_z
_atom_site_U_iso_or_equiv
_atom_site_adp_type
_atom_site_occupancy
Er1    Er    0.72419   0.45490   0.01131   0.01267  Uiso   1.00
Er2    Er    0.27581   0.54510   0.98869   0.01267  Uiso   1.00
H1     H     0.72940   0.77230   0.37580   0.01267  Uiso   1.00
H2     H     0.82320   0.89840   0.56550   0.01267  Uiso   1.00
H3     H     0.15300   0.72560   0.61680   0.01267  Uiso   1.00
H4     H     0.06640   0.60640   0.42080   0.01267  Uiso   1.00
H5     H     0.07680   0.14050   0.83730   0.01267  Uiso   1.00
H6     H     0.67810   0.99640   0.96090   0.01267  Uiso   1.00
H7     H     0.80290   0.70760   0.77690   0.01267  Uiso   1.00
H8     H     0.27060   0.22770   0.62420   0.01267  Uiso   1.00
H9     H     0.17680   0.10160   0.43450   0.01267  Uiso   1.00
H10    H     0.84700   0.27440   0.38320   0.01267  Uiso   1.00
H11    H     0.93360   0.39360   0.57920   0.01267  Uiso   1.00
H12    H     0.92320   0.85950   0.16270   0.01267  Uiso   1.00
H13    H     0.32190   0.00360   0.03910   0.01267  Uiso   1.00
H14    H     0.19710   0.29240   0.22310   0.01267  Uiso   1.00
C1     C     0.82390   0.58700   0.25300   0.01267  Uiso   1.00
C2     C     0.88300   0.66980   0.37410   0.01267  Uiso   1.00
C3     C     0.81490   0.76240   0.42330   0.01267  Uiso   1.00
C4     C     0.86940   0.83690   0.53670   0.01267  Uiso   1.00
C5     C     0.99530   0.82100   0.61020   0.01267  Uiso   1.00
C6     C     0.06840   0.73490   0.56760   0.01267  Uiso   1.00
C7     C     0.01460   0.66220   0.45040   0.01267  Uiso   1.00
C8     C     0.95070   0.92220   0.79350   0.01267  Uiso   1.00
C9     C     0.98570   0.06400   0.84560   0.01267  Uiso   1.00
C10    C     0.88440   0.09290   0.91060   0.01267  Uiso   1.00
C11    C     0.74950   0.97690   0.92110   0.01267  Uiso   1.00
C12    C     0.71890   0.83200   0.87320   0.01267  Uiso   1.00
C13    C     0.82100   0.80410   0.80910   0.01267  Uiso   1.00
C14    C     0.91850   0.24580   0.96640   0.01267  Uiso   1.00
C15    C     0.58310   0.70850   0.89680   0.01267  Uiso   1.00
C16    C     0.17610   0.41300   0.74700   0.01267  Uiso   1.00
C17    C     0.11700   0.33020   0.62590   0.01267  Uiso   1.00
C18    C     0.18510   0.23760   0.57670   0.01267  Uiso   1.00
C19    C     0.13060   0.16310   0.46330   0.01267  Uiso   1.00
C20    C     0.00470   0.17900   0.38980   0.01267  Uiso   1.00
C21    C     0.93160   0.26510   0.43240   0.01267  Uiso   1.00
C22    C     0.98540   0.33780   0.54960   0.01267  Uiso   1.00
C23    C     0.04930   0.07780   0.20650   0.01267  Uiso   1.00
C24    C     0.01430   0.93600   0.15440   0.01267  Uiso   1.00
C25    C     0.11560   0.90710   0.08940   0.01267  Uiso   1.00
C26    C     0.25050   0.02310   0.07890   0.01267  Uiso   1.00
C27    C     0.28110   0.16800   0.12680   0.01267  Uiso   1.00
C28    C     0.17900   0.19590   0.19090   0.01267  Uiso   1.00
C29    C     0.08150   0.75420   0.03360   0.01267  Uiso   1.00
C30    C     0.41690   0.29150   0.10320   0.01267  Uiso   1.00
O1     O     0.87780   0.49480   0.21670   0.01267  Uiso   1.00
O2     O     0.71980   0.61150   0.18260   0.01267  Uiso   1.00
O3     O     0.45240   0.72260   0.89390   0.01267  Uiso   1.00
O4     O     0.60020   0.59060   0.92190   0.01267  Uiso   1.00
O5     O     0.81020   0.26870   0.00900   0.01267  Uiso   1.00
O6     O     0.05030   0.34470   0.97070   0.01267  Uiso   1.00
O7     O     0.05650   0.89560   0.72730   0.01267  Uiso   1.00
O8     O     0.12220   0.50520   0.78330   0.01267  Uiso   1.00
O9     O     0.28020   0.38850   0.81740   0.01267  Uiso   1.00
O10    O     0.54760   0.27740   0.10610   0.01267  Uiso   1.00
O11    O     0.39980   0.40940   0.07810   0.01267  Uiso   1.00
O12    O     0.18980   0.73130   0.99100   0.01267  Uiso   1.00
O13    O     0.94970   0.65530   0.02930   0.01267  Uiso   1.00
O14    O     0.94350   0.10440   0.27270   0.01267  Uiso   1.00
