data_ELILAN_clean
_audit_creation_date              2014-07-02
_audit_creation_method            'Materials Studio'
_symmetry_space_group_name_H-M    'P1'
_symmetry_Int_Tables_number       1
_symmetry_cell_setting            triclinic
loop_
_symmetry_equiv_pos_as_xyz
  x,y,z
_cell_length_a                    9.3410
_cell_length_b                    9.8130
_cell_length_c                    11.3950
_cell_angle_alpha                 94.2470
_cell_angle_beta                  99.0870
_cell_angle_gamma                 111.2590
loop_
_atom_site_label
_atom_site_type_symbol
_atom_site_fract_x
_atom_site_fract_y
_atom_site_fract_z
_atom_site_U_iso_or_equiv
_atom_site_adp_type
_atom_site_occupancy
Dy1    Dy    0.22185   0.45483   0.01271   0.01267  Uiso   1.00
Dy2    Dy    0.77815   0.54517   0.98729   0.01267  Uiso   1.00
H1     H     0.56750   0.60720   0.42150   0.01267  Uiso   1.00
H2     H     0.65420   0.72720   0.61760   0.01267  Uiso   1.00
H3     H     0.32060   0.89690   0.56670   0.01267  Uiso   1.00
H4     H     0.23080   0.77310   0.37720   0.01267  Uiso   1.00
H5     H     0.30300   0.70980   0.77650   0.01267  Uiso   1.00
H6     H     0.17760   0.99880   0.96060   0.01267  Uiso   1.00
H7     H     0.58020   0.14050   0.83720   0.01267  Uiso   1.00
H8     H     0.43250   0.39280   0.57850   0.01267  Uiso   1.00
H9     H     0.34580   0.27280   0.38240   0.01267  Uiso   1.00
H10    H     0.67940   0.10310   0.43330   0.01267  Uiso   1.00
H11    H     0.76920   0.22690   0.62280   0.01267  Uiso   1.00
H12    H     0.69700   0.29020   0.22350   0.01267  Uiso   1.00
H13    H     0.82240   0.00120   0.03940   0.01267  Uiso   1.00
H14    H     0.41980   0.85950   0.16280   0.01267  Uiso   1.00
C1     C     0.32430   0.58830   0.25580   0.01267  Uiso   1.00
C2     C     0.38440   0.67150   0.37660   0.01267  Uiso   1.00
C3     C     0.51560   0.66290   0.45130   0.01267  Uiso   1.00
C4     C     0.56930   0.73610   0.56880   0.01267  Uiso   1.00
C5     C     0.49520   0.82120   0.61130   0.01267  Uiso   1.00
C6     C     0.36830   0.83660   0.53790   0.01267  Uiso   1.00
C7     C     0.31580   0.76290   0.42490   0.01267  Uiso   1.00
C8     C     0.45130   0.92180   0.79270   0.01267  Uiso   1.00
C9     C     0.32200   0.80610   0.80870   0.01267  Uiso   1.00
C10    C     0.22040   0.83540   0.87370   0.01267  Uiso   1.00
C11    C     0.24930   0.97890   0.92120   0.01267  Uiso   1.00
C12    C     0.38480   0.09310   0.91010   0.01267  Uiso   1.00
C13    C     0.48860   0.06490   0.84500   0.01267  Uiso   1.00
C14    C     0.08040   0.71140   0.89700   0.01267  Uiso   1.00
C15    C     0.42120   0.24730   0.96840   0.01267  Uiso   1.00
C16    C     0.67570   0.41170   0.74420   0.01267  Uiso   1.00
C17    C     0.61560   0.32850   0.62340   0.01267  Uiso   1.00
C18    C     0.48440   0.33710   0.54870   0.01267  Uiso   1.00
C19    C     0.43070   0.26390   0.43120   0.01267  Uiso   1.00
C20    C     0.50480   0.17880   0.38870   0.01267  Uiso   1.00
C21    C     0.63170   0.16340   0.46210   0.01267  Uiso   1.00
C22    C     0.68420   0.23710   0.57510   0.01267  Uiso   1.00
C23    C     0.54870   0.07820   0.20730   0.01267  Uiso   1.00
C24    C     0.67800   0.19390   0.19130   0.01267  Uiso   1.00
C25    C     0.77960   0.16460   0.12630   0.01267  Uiso   1.00
C26    C     0.75070   0.02110   0.07880   0.01267  Uiso   1.00
C27    C     0.61520   0.90690   0.08990   0.01267  Uiso   1.00
C28    C     0.51140   0.93510   0.15500   0.01267  Uiso   1.00
C29    C     0.91960   0.28860   0.10300   0.01267  Uiso   1.00
C30    C     0.57880   0.75270   0.03160   0.01267  Uiso   1.00
O1     O     0.37870   0.49520   0.21900   0.01267  Uiso   1.00
O2     O     0.21840   0.61010   0.18550   0.01267  Uiso   1.00
O3     O     0.09640   0.59540   0.92430   0.01267  Uiso   1.00
O4     O     0.95320   0.72940   0.89210   0.01267  Uiso   1.00
O5     O     0.55210   0.34450   0.96970   0.01267  Uiso   1.00
O6     O     0.31300   0.26900   0.00980   0.01267  Uiso   1.00
O7     O     0.55580   0.89490   0.72650   0.01267  Uiso   1.00
O8     O     0.62130   0.50480   0.78100   0.01267  Uiso   1.00
O9     O     0.78160   0.38990   0.81450   0.01267  Uiso   1.00
O10    O     0.90360   0.40460   0.07570   0.01267  Uiso   1.00
O11    O     0.04680   0.27060   0.10790   0.01267  Uiso   1.00
O12    O     0.44790   0.65550   0.03030   0.01267  Uiso   1.00
O13    O     0.68700   0.73100   0.99020   0.01267  Uiso   1.00
O14    O     0.44420   0.10510   0.27350   0.01267  Uiso   1.00
