data_image0
_cell_length_a       26.867
_cell_length_b       20.084
_cell_length_c       13.099
_cell_angle_alpha    90
_cell_angle_beta     90
_cell_angle_gamma    90

_symmetry_space_group_name_H-M    "P 1"
_symmetry_int_tables_number       1

loop_
  _symmetry_equiv_pos_as_xyz
  'x, y, z'

loop_
  _atom_site_label
  _atom_site_occupancy
  _atom_site_fract_x
  _atom_site_fract_y
  _atom_site_fract_z
  _atom_site_thermal_displace_type
  _atom_site_B_iso_or_equiv
  _atom_site_type_symbol
  W1       1.0000 0.65363  0.16622  0.52874  Biso   1.000  W
  W2       1.0000 0.76624  0.16667  0.36822  Biso   1.000  W
  W3       1.0000 0.86864  0.34216  0.68514  Biso   1.000  W
  W4       1.0000 0.76589  0.07493  0.61145  Biso   1.000  W
  W5       1.0000 0.76670  0.15837  0.83299  Biso   1.000  W
  Co1      1.0000 0.74025  0.89045  0.60690  Biso   1.000  Co
  O1       1.0000 0.83720  0.18370  0.35950  Biso   1.000  O
  O2       1.0000 0.62690  0.18280  0.66320  Biso   1.000  O
  O3       1.0000 0.70100  0.18500  0.79920  Biso   1.000  O
  O4       1.0000 0.75570  0.07800  0.75680  Biso   1.000  O
  O5       1.0000 0.87620  0.31740  0.54380  Biso   1.000  O
  O6       1.0000 0.75940  0.11320  0.26760  Biso   1.000  O
  O7       1.0000 0.69920  0.10600  0.59530  Biso   1.000  O
  O8       1.0000 0.77840  0.10600  0.47720  Biso   1.000  O
  O9       1.0000 0.78330  0.31580  0.66200  Biso   1.000  O
  O10      1.0000 0.83710  0.35490  0.81460  Biso   1.000  O
  O11      1.0000 0.69940  0.17060  0.41960  Biso   1.000  O
  O12      1.0000 0.83640  0.42180  0.63840  Biso   1.000  O
  O13      1.0000 0.75790  0.99120  0.59330  Biso   1.000  O
  N1       1.0000 0.81970  0.87760  0.61140  Biso   1.000  N
  N2       1.0000 0.90030  0.88410  0.65380  Biso   1.000  N
  N3       1.0000 0.08010  0.92960  0.85980  Biso   1.000  N
  C1       1.0000 0.02760  0.85850  0.75600  Biso   1.000  C
  H1       1.0000 0.05270  0.82680  0.75060  Biso   1.000  H
  C2       1.0000 0.09010  0.96890  0.94400  Biso   1.000  C
  H2       1.0000 0.06720  0.99450  0.98040  Biso   1.000  H
  C3       1.0000 0.03520  0.91740  0.80980  Biso   1.000  C
  C4       1.0000 0.94460  0.89530  0.70730  Biso   1.000  C
  C5       1.0000 0.89510  0.84390  0.56240  Biso   1.000  C
  H3       1.0000 0.92050  0.82270  0.52660  Biso   1.000  H
  C6       1.0000 0.84770  0.84350  0.54050  Biso   1.000  C
  H4       1.0000 0.83440  0.82250  0.48340  Biso   1.000  H
  C7       1.0000 0.85280  0.90230  0.67600  Biso   1.000  C
  H5       1.0000 0.84440  0.92930  0.73160  Biso   1.000  H
  C8       1.0000 0.98000  0.84850  0.71100  Biso   1.000  C
  H6       1.0000 0.97310  0.80710  0.68220  Biso   1.000  H
  C9       1.0000 0.95240  0.95660  0.75230  Biso   1.000  C
  H7       1.0000 0.92880  0.99040  0.74750  Biso   1.000  H
  C10      1.0000 0.13810  0.96330  0.96470  Biso   1.000  C
  H8       1.0000 0.15460  0.98620  0.01630  Biso   1.000  H
  C11      1.0000 0.99710  0.96600  0.80600  Biso   1.000  C
  H9       1.0000 0.00200  0.00600  0.83960  Biso   1.000  H
  C12      1.0000 0.12640  0.90060  0.83230  Biso   1.000  C
  H10      1.0000 0.13160  0.87330  0.77610  Biso   1.000  H
  N4       1.0000 0.16070  0.91800  0.89780  Biso   1.000  N
  O14      1.0000 0.75900  0.12810  0.95390  Biso   1.000  O
  W6       1.0000 0.84637  0.83378  0.02874  Biso   1.000  W
  W7       1.0000 0.73376  0.83333  0.86822  Biso   1.000  W
  W8       1.0000 0.63136  0.65784  0.18514  Biso   1.000  W
  W9       1.0000 0.73411  0.92507  0.11145  Biso   1.000  W
  W10      1.0000 0.73330  0.84163  0.33299  Biso   1.000  W
  Co2      1.0000 0.75975  0.10955  0.10690  Biso   1.000  Co
  O15      1.0000 0.66280  0.81630  0.85950  Biso   1.000  O
  O16      1.0000 0.87310  0.81720  0.16320  Biso   1.000  O
  O17      1.0000 0.79900  0.81500  0.29920  Biso   1.000  O
  O18      1.0000 0.74430  0.92200  0.25680  Biso   1.000  O
  O19      1.0000 0.62380  0.68260  0.04380  Biso   1.000  O
  O20      1.0000 0.74060  0.88680  0.76760  Biso   1.000  O
  O21      1.0000 0.80080  0.89400  0.09530  Biso   1.000  O
  O22      1.0000 0.72160  0.89400  0.97720  Biso   1.000  O
  O23      1.0000 0.71670  0.68420  0.16200  Biso   1.000  O
  O24      1.0000 0.66290  0.64510  0.31460  Biso   1.000  O
  O25      1.0000 0.80060  0.82940  0.91960  Biso   1.000  O
  O26      1.0000 0.66360  0.57820  0.13840  Biso   1.000  O
  O27      1.0000 0.74210  0.00880  0.09330  Biso   1.000  O
  N5       1.0000 0.68030  0.12240  0.11140  Biso   1.000  N
  N6       1.0000 0.59970  0.11590  0.15380  Biso   1.000  N
  N7       1.0000 0.41990  0.07040  0.35980  Biso   1.000  N
  C13      1.0000 0.47240  0.14150  0.25600  Biso   1.000  C
  H11      1.0000 0.44730  0.17320  0.25060  Biso   1.000  H
  C14      1.0000 0.40990  0.03110  0.44400  Biso   1.000  C
  H12      1.0000 0.43280  0.00550  0.48040  Biso   1.000  H
  C15      1.0000 0.46480  0.08260  0.30980  Biso   1.000  C
  C16      1.0000 0.55540  0.10470  0.20730  Biso   1.000  C
  C17      1.0000 0.60490  0.15610  0.06240  Biso   1.000  C
  H13      1.0000 0.57950  0.17730  0.02660  Biso   1.000  H
  C18      1.0000 0.65230  0.15650  0.04050  Biso   1.000  C
  H14      1.0000 0.66560  0.17750  0.98340  Biso   1.000  H
  C19      1.0000 0.64720  0.09770  0.17600  Biso   1.000  C
  H15      1.0000 0.65560  0.07070  0.23160  Biso   1.000  H
  C20      1.0000 0.52000  0.15150  0.21100  Biso   1.000  C
  H16      1.0000 0.52690  0.19290  0.18220  Biso   1.000  H
  C21      1.0000 0.54760  0.04340  0.25230  Biso   1.000  C
  H17      1.0000 0.57120  0.00960  0.24750  Biso   1.000  H
  C22      1.0000 0.36190  0.03670  0.46470  Biso   1.000  C
  H18      1.0000 0.34540  0.01380  0.51630  Biso   1.000  H
  C23      1.0000 0.50290  0.03400  0.30600  Biso   1.000  C
  H19      1.0000 0.49800  0.99400  0.33960  Biso   1.000  H
  C24      1.0000 0.37360  0.09940  0.33230  Biso   1.000  C
  H20      1.0000 0.36840  0.12670  0.27610  Biso   1.000  H
  N8       1.0000 0.33930  0.08200  0.39780  Biso   1.000  N
  O28      1.0000 0.74100  0.87190  0.45390  Biso   1.000  O
  W11      1.0000 0.34637  0.66622  0.47126  Biso   1.000  W
  W12      1.0000 0.23376  0.66667  0.63178  Biso   1.000  W
  W13      1.0000 0.13136  0.84216  0.31486  Biso   1.000  W
  W14      1.0000 0.23411  0.57493  0.38855  Biso   1.000  W
  W15      1.0000 0.23330  0.65837  0.16701  Biso   1.000  W
  Co3      1.0000 0.25975  0.39045  0.39310  Biso   1.000  Co
  O29      1.0000 0.16280  0.68370  0.64050  Biso   1.000  O
  O30      1.0000 0.37310  0.68280  0.33680  Biso   1.000  O
  O31      1.0000 0.29900  0.68500  0.20080  Biso   1.000  O
  O32      1.0000 0.24430  0.57800  0.24320  Biso   1.000  O
  O33      1.0000 0.12380  0.81740  0.45620  Biso   1.000  O
  O34      1.0000 0.24060  0.61320  0.73240  Biso   1.000  O
  O35      1.0000 0.30080  0.60600  0.40470  Biso   1.000  O
  O36      1.0000 0.22160  0.60600  0.52280  Biso   1.000  O
  O37      1.0000 0.21670  0.81580  0.33800  Biso   1.000  O
  O38      1.0000 0.16290  0.85490  0.18540  Biso   1.000  O
  O39      1.0000 0.30060  0.67060  0.58040  Biso   1.000  O
  O40      1.0000 0.16360  0.92180  0.36160  Biso   1.000  O
  O41      1.0000 0.24210  0.49120  0.40670  Biso   1.000  O
  N9       1.0000 0.18030  0.37760  0.38860  Biso   1.000  N
  N10      1.0000 0.09970  0.38410  0.34620  Biso   1.000  N
  N11      1.0000 0.91990  0.42960  0.14020  Biso   1.000  N
  C25      1.0000 0.97240  0.35850  0.24400  Biso   1.000  C
  H21      1.0000 0.94730  0.32680  0.24940  Biso   1.000  H
  C26      1.0000 0.90990  0.46890  0.05600  Biso   1.000  C
  H22      1.0000 0.93280  0.49450  0.01960  Biso   1.000  H
  C27      1.0000 0.96480  0.41740  0.19020  Biso   1.000  C
  C28      1.0000 0.05540  0.39530  0.29270  Biso   1.000  C
  C29      1.0000 0.10490  0.34390  0.43760  Biso   1.000  C
  H23      1.0000 0.07950  0.32270  0.47340  Biso   1.000  H
  C30      1.0000 0.15230  0.34350  0.45950  Biso   1.000  C
  H24      1.0000 0.16560  0.32250  0.51660  Biso   1.000  H
  C31      1.0000 0.14720  0.40230  0.32400  Biso   1.000  C
  H25      1.0000 0.15560  0.42930  0.26840  Biso   1.000  H
  C32      1.0000 0.02000  0.34850  0.28900  Biso   1.000  C
  H26      1.0000 0.02690  0.30710  0.31780  Biso   1.000  H
  C33      1.0000 0.04760  0.45660  0.24770  Biso   1.000  C
  H27      1.0000 0.07120  0.49040  0.25250  Biso   1.000  H
  C34      1.0000 0.86190  0.46330  0.03530  Biso   1.000  C
  H28      1.0000 0.84540  0.48620  0.98370  Biso   1.000  H
  C35      1.0000 0.00290  0.46600  0.19400  Biso   1.000  C
  H29      1.0000 0.99800  0.50600  0.16040  Biso   1.000  H
  C36      1.0000 0.87360  0.40060  0.16770  Biso   1.000  C
  H30      1.0000 0.86840  0.37330  0.22390  Biso   1.000  H
  N12      1.0000 0.83930  0.41800  0.10220  Biso   1.000  N
  O42      1.0000 0.24100  0.62810  0.04610  Biso   1.000  O
  W16      1.0000 0.15363  0.33378  0.97126  Biso   1.000  W
  W17      1.0000 0.26624  0.33333  0.13178  Biso   1.000  W
  W18      1.0000 0.36864  0.15784  0.81486  Biso   1.000  W
  W19      1.0000 0.26589  0.42507  0.88855  Biso   1.000  W
  W20      1.0000 0.26670  0.34163  0.66701  Biso   1.000  W
  Co4      1.0000 0.24025  0.60955  0.89310  Biso   1.000  Co
  O43      1.0000 0.33720  0.31630  0.14050  Biso   1.000  O
  O44      1.0000 0.12690  0.31720  0.83680  Biso   1.000  O
  O45      1.0000 0.20100  0.31500  0.70080  Biso   1.000  O
  O46      1.0000 0.25570  0.42200  0.74320  Biso   1.000  O
  O47      1.0000 0.37620  0.18260  0.95620  Biso   1.000  O
  O48      1.0000 0.25940  0.38680  0.23240  Biso   1.000  O
  O49      1.0000 0.19920  0.39400  0.90470  Biso   1.000  O
  O50      1.0000 0.27840  0.39400  0.02280  Biso   1.000  O
  O51      1.0000 0.28330  0.18420  0.83800  Biso   1.000  O
  O52      1.0000 0.33710  0.14510  0.68540  Biso   1.000  O
  O53      1.0000 0.19940  0.32940  0.08040  Biso   1.000  O
  O54      1.0000 0.33640  0.07820  0.86160  Biso   1.000  O
  O55      1.0000 0.25790  0.50880  0.90670  Biso   1.000  O
  N13      1.0000 0.31970  0.62240  0.88860  Biso   1.000  N
  N14      1.0000 0.40030  0.61590  0.84620  Biso   1.000  N
  N15      1.0000 0.58010  0.57040  0.64020  Biso   1.000  N
  C37      1.0000 0.52760  0.64150  0.74400  Biso   1.000  C
  H31      1.0000 0.55270  0.67320  0.74940  Biso   1.000  H
  C38      1.0000 0.59010  0.53110  0.55600  Biso   1.000  C
  H32      1.0000 0.56720  0.50550  0.51960  Biso   1.000  H
  C39      1.0000 0.53520  0.58260  0.69020  Biso   1.000  C
  C40      1.0000 0.44460  0.60470  0.79270  Biso   1.000  C
  C41      1.0000 0.39510  0.65610  0.93760  Biso   1.000  C
  H33      1.0000 0.42050  0.67730  0.97340  Biso   1.000  H
  C42      1.0000 0.34770  0.65650  0.95950  Biso   1.000  C
  H34      1.0000 0.33440  0.67750  0.01660  Biso   1.000  H
  C43      1.0000 0.35280  0.59770  0.82400  Biso   1.000  C
  H35      1.0000 0.34440  0.57070  0.76840  Biso   1.000  H
  C44      1.0000 0.48000  0.65150  0.78900  Biso   1.000  C
  H36      1.0000 0.47310  0.69290  0.81780  Biso   1.000  H
  C45      1.0000 0.45240  0.54340  0.74770  Biso   1.000  C
  H37      1.0000 0.42880  0.50960  0.75250  Biso   1.000  H
  C46      1.0000 0.63810  0.53670  0.53530  Biso   1.000  C
  H38      1.0000 0.65460  0.51380  0.48370  Biso   1.000  H
  C47      1.0000 0.49710  0.53400  0.69400  Biso   1.000  C
  H39      1.0000 0.50200  0.49400  0.66040  Biso   1.000  H
  C48      1.0000 0.62640  0.59940  0.66770  Biso   1.000  C
  H40      1.0000 0.63160  0.62670  0.72390  Biso   1.000  H
  N16      1.0000 0.66070  0.58200  0.60220  Biso   1.000  N
  O56      1.0000 0.25900  0.37190  0.54610  Biso   1.000  O
  W21      1.0000 0.34637  0.83378  0.47126  Biso   1.000  W
  W22      1.0000 0.23376  0.83333  0.63178  Biso   1.000  W
  W23      1.0000 0.13136  0.65784  0.31486  Biso   1.000  W
  W24      1.0000 0.23411  0.92507  0.38855  Biso   1.000  W
  W25      1.0000 0.23330  0.84163  0.16701  Biso   1.000  W
  Co5      1.0000 0.25975  0.10955  0.39310  Biso   1.000  Co
  O57      1.0000 0.16280  0.81630  0.64050  Biso   1.000  O
  O58      1.0000 0.37310  0.81720  0.33680  Biso   1.000  O
  O59      1.0000 0.29900  0.81500  0.20080  Biso   1.000  O
  O60      1.0000 0.24430  0.92200  0.24320  Biso   1.000  O
  O61      1.0000 0.12380  0.68260  0.45620  Biso   1.000  O
  O62      1.0000 0.24060  0.88680  0.73240  Biso   1.000  O
  O63      1.0000 0.30080  0.89400  0.40470  Biso   1.000  O
  O64      1.0000 0.22160  0.89400  0.52280  Biso   1.000  O
  O65      1.0000 0.21670  0.68420  0.33800  Biso   1.000  O
  O66      1.0000 0.16290  0.64510  0.18540  Biso   1.000  O
  O67      1.0000 0.30060  0.82940  0.58040  Biso   1.000  O
  O68      1.0000 0.16360  0.57820  0.36160  Biso   1.000  O
  O69      1.0000 0.24210  0.00880  0.40670  Biso   1.000  O
  N17      1.0000 0.18030  0.12240  0.38860  Biso   1.000  N
  N18      1.0000 0.09970  0.11590  0.34620  Biso   1.000  N
  N19      1.0000 0.91990  0.07040  0.14020  Biso   1.000  N
  C49      1.0000 0.97240  0.14150  0.24400  Biso   1.000  C
  H41      1.0000 0.94730  0.17320  0.24940  Biso   1.000  H
  C50      1.0000 0.90990  0.03110  0.05600  Biso   1.000  C
  H42      1.0000 0.93280  0.00550  0.01960  Biso   1.000  H
  C51      1.0000 0.96480  0.08260  0.19020  Biso   1.000  C
  C52      1.0000 0.05540  0.10470  0.29270  Biso   1.000  C
  C53      1.0000 0.10490  0.15610  0.43760  Biso   1.000  C
  H43      1.0000 0.07950  0.17730  0.47340  Biso   1.000  H
  C54      1.0000 0.15230  0.15650  0.45950  Biso   1.000  C
  H44      1.0000 0.16560  0.17750  0.51660  Biso   1.000  H
  C55      1.0000 0.14720  0.09770  0.32400  Biso   1.000  C
  H45      1.0000 0.15560  0.07070  0.26840  Biso   1.000  H
  C56      1.0000 0.02000  0.15150  0.28900  Biso   1.000  C
  H46      1.0000 0.02690  0.19290  0.31780  Biso   1.000  H
  C57      1.0000 0.04760  0.04340  0.24770  Biso   1.000  C
  H47      1.0000 0.07120  0.00960  0.25250  Biso   1.000  H
  C58      1.0000 0.86190  0.03670  0.03530  Biso   1.000  C
  H48      1.0000 0.84540  0.01380  0.98370  Biso   1.000  H
  C59      1.0000 0.00290  0.03400  0.19400  Biso   1.000  C
  H49      1.0000 0.99800  0.99400  0.16040  Biso   1.000  H
  C60      1.0000 0.87360  0.09940  0.16770  Biso   1.000  C
  H50      1.0000 0.86840  0.12670  0.22390  Biso   1.000  H
  N20      1.0000 0.83930  0.08200  0.10220  Biso   1.000  N
  O70      1.0000 0.24100  0.87190  0.04610  Biso   1.000  O
  W26      1.0000 0.15363  0.16622  0.97126  Biso   1.000  W
  W27      1.0000 0.26624  0.16667  0.13178  Biso   1.000  W
  W28      1.0000 0.36864  0.34216  0.81486  Biso   1.000  W
  W29      1.0000 0.26589  0.07493  0.88855  Biso   1.000  W
  W30      1.0000 0.26670  0.15837  0.66701  Biso   1.000  W
  Co6      1.0000 0.24025  0.89045  0.89310  Biso   1.000  Co
  O71      1.0000 0.33720  0.18370  0.14050  Biso   1.000  O
  O72      1.0000 0.12690  0.18280  0.83680  Biso   1.000  O
  O73      1.0000 0.20100  0.18500  0.70080  Biso   1.000  O
  O74      1.0000 0.25570  0.07800  0.74320  Biso   1.000  O
  O75      1.0000 0.37620  0.31740  0.95620  Biso   1.000  O
  O76      1.0000 0.25940  0.11320  0.23240  Biso   1.000  O
  O77      1.0000 0.19920  0.10600  0.90470  Biso   1.000  O
  O78      1.0000 0.27840  0.10600  0.02280  Biso   1.000  O
  O79      1.0000 0.28330  0.31580  0.83800  Biso   1.000  O
  O80      1.0000 0.33710  0.35490  0.68540  Biso   1.000  O
  O81      1.0000 0.19940  0.17060  0.08040  Biso   1.000  O
  O82      1.0000 0.33640  0.42180  0.86160  Biso   1.000  O
  O83      1.0000 0.25790  0.99120  0.90670  Biso   1.000  O
  N21      1.0000 0.31970  0.87760  0.88860  Biso   1.000  N
  N22      1.0000 0.40030  0.88410  0.84620  Biso   1.000  N
  N23      1.0000 0.58010  0.92960  0.64020  Biso   1.000  N
  C61      1.0000 0.52760  0.85850  0.74400  Biso   1.000  C
  H51      1.0000 0.55270  0.82680  0.74940  Biso   1.000  H
  C62      1.0000 0.59010  0.96890  0.55600  Biso   1.000  C
  H52      1.0000 0.56720  0.99450  0.51960  Biso   1.000  H
  C63      1.0000 0.53520  0.91740  0.69020  Biso   1.000  C
  C64      1.0000 0.44460  0.89530  0.79270  Biso   1.000  C
  C65      1.0000 0.39510  0.84390  0.93760  Biso   1.000  C
  H53      1.0000 0.42050  0.82270  0.97340  Biso   1.000  H
  C66      1.0000 0.34770  0.84350  0.95950  Biso   1.000  C
  H54      1.0000 0.33440  0.82250  0.01660  Biso   1.000  H
  C67      1.0000 0.35280  0.90230  0.82400  Biso   1.000  C
  H55      1.0000 0.34440  0.92930  0.76840  Biso   1.000  H
  C68      1.0000 0.48000  0.84850  0.78900  Biso   1.000  C
  H56      1.0000 0.47310  0.80710  0.81780  Biso   1.000  H
  C69      1.0000 0.45240  0.95660  0.74770  Biso   1.000  C
  H57      1.0000 0.42880  0.99040  0.75250  Biso   1.000  H
  C70      1.0000 0.63810  0.96330  0.53530  Biso   1.000  C
  H58      1.0000 0.65460  0.98620  0.48370  Biso   1.000  H
  C71      1.0000 0.49710  0.96600  0.69400  Biso   1.000  C
  H59      1.0000 0.50200  0.00600  0.66040  Biso   1.000  H
  C72      1.0000 0.62640  0.90060  0.66770  Biso   1.000  C
  H60      1.0000 0.63160  0.87330  0.72390  Biso   1.000  H
  N24      1.0000 0.66070  0.91800  0.60220  Biso   1.000  N
  O84      1.0000 0.25900  0.12810  0.54610  Biso   1.000  O
  W31      1.0000 0.65363  0.33378  0.52874  Biso   1.000  W
  W32      1.0000 0.76624  0.33333  0.36822  Biso   1.000  W
  W33      1.0000 0.86864  0.15784  0.68514  Biso   1.000  W
  W34      1.0000 0.76589  0.42507  0.61145  Biso   1.000  W
  W35      1.0000 0.76670  0.34163  0.83299  Biso   1.000  W
  Co7      1.0000 0.74025  0.60955  0.60690  Biso   1.000  Co
  O85      1.0000 0.83720  0.31630  0.35950  Biso   1.000  O
  O86      1.0000 0.62690  0.31720  0.66320  Biso   1.000  O
  O87      1.0000 0.70100  0.31500  0.79920  Biso   1.000  O
  O88      1.0000 0.75570  0.42200  0.75680  Biso   1.000  O
  O89      1.0000 0.87620  0.18260  0.54380  Biso   1.000  O
  O90      1.0000 0.75940  0.38680  0.26760  Biso   1.000  O
  O91      1.0000 0.69920  0.39400  0.59530  Biso   1.000  O
  O92      1.0000 0.77840  0.39400  0.47720  Biso   1.000  O
  O93      1.0000 0.78330  0.18420  0.66200  Biso   1.000  O
  O94      1.0000 0.83710  0.14510  0.81460  Biso   1.000  O
  O95      1.0000 0.69940  0.32940  0.41960  Biso   1.000  O
  O96      1.0000 0.83640  0.07820  0.63840  Biso   1.000  O
  O97      1.0000 0.75790  0.50880  0.59330  Biso   1.000  O
  N25      1.0000 0.81970  0.62240  0.61140  Biso   1.000  N
  N26      1.0000 0.90030  0.61590  0.65380  Biso   1.000  N
  N27      1.0000 0.08010  0.57040  0.85980  Biso   1.000  N
  C73      1.0000 0.02760  0.64150  0.75600  Biso   1.000  C
  H61      1.0000 0.05270  0.67320  0.75060  Biso   1.000  H
  C74      1.0000 0.09010  0.53110  0.94400  Biso   1.000  C
  H62      1.0000 0.06720  0.50550  0.98040  Biso   1.000  H
  C75      1.0000 0.03520  0.58260  0.80980  Biso   1.000  C
  C76      1.0000 0.94460  0.60470  0.70730  Biso   1.000  C
  C77      1.0000 0.89510  0.65610  0.56240  Biso   1.000  C
  H63      1.0000 0.92050  0.67730  0.52660  Biso   1.000  H
  C78      1.0000 0.84770  0.65650  0.54050  Biso   1.000  C
  H64      1.0000 0.83440  0.67750  0.48340  Biso   1.000  H
  C79      1.0000 0.85280  0.59770  0.67600  Biso   1.000  C
  H65      1.0000 0.84440  0.57070  0.73160  Biso   1.000  H
  C80      1.0000 0.98000  0.65150  0.71100  Biso   1.000  C
  H66      1.0000 0.97310  0.69290  0.68220  Biso   1.000  H
  C81      1.0000 0.95240  0.54340  0.75230  Biso   1.000  C
  H67      1.0000 0.92880  0.50960  0.74750  Biso   1.000  H
  C82      1.0000 0.13810  0.53670  0.96470  Biso   1.000  C
  H68      1.0000 0.15460  0.51380  0.01630  Biso   1.000  H
  C83      1.0000 0.99710  0.53400  0.80600  Biso   1.000  C
  H69      1.0000 0.00200  0.49400  0.83960  Biso   1.000  H
  C84      1.0000 0.12640  0.59940  0.83230  Biso   1.000  C
  H70      1.0000 0.13160  0.62670  0.77610  Biso   1.000  H
  N28      1.0000 0.16070  0.58200  0.89780  Biso   1.000  N
  O98      1.0000 0.75900  0.37190  0.95390  Biso   1.000  O
  W36      1.0000 0.84637  0.66622  0.02874  Biso   1.000  W
  W37      1.0000 0.73376  0.66667  0.86822  Biso   1.000  W
  W38      1.0000 0.63136  0.84216  0.18514  Biso   1.000  W
  W39      1.0000 0.73411  0.57493  0.11145  Biso   1.000  W
  W40      1.0000 0.73330  0.65837  0.33299  Biso   1.000  W
  Co8      1.0000 0.75975  0.39045  0.10690  Biso   1.000  Co
  O99      1.0000 0.66280  0.68370  0.85950  Biso   1.000  O
  O100     1.0000 0.87310  0.68280  0.16320  Biso   1.000  O
  O101     1.0000 0.79900  0.68500  0.29920  Biso   1.000  O
  O102     1.0000 0.74430  0.57800  0.25680  Biso   1.000  O
  O103     1.0000 0.62380  0.81740  0.04380  Biso   1.000  O
  O104     1.0000 0.74060  0.61320  0.76760  Biso   1.000  O
  O105     1.0000 0.80080  0.60600  0.09530  Biso   1.000  O
  O106     1.0000 0.72160  0.60600  0.97720  Biso   1.000  O
  O107     1.0000 0.71670  0.81580  0.16200  Biso   1.000  O
  O108     1.0000 0.66290  0.85490  0.31460  Biso   1.000  O
  O109     1.0000 0.80060  0.67060  0.91960  Biso   1.000  O
  O110     1.0000 0.66360  0.92180  0.13840  Biso   1.000  O
  O111     1.0000 0.74210  0.49120  0.09330  Biso   1.000  O
  N29      1.0000 0.68030  0.37760  0.11140  Biso   1.000  N
  N30      1.0000 0.59970  0.38410  0.15380  Biso   1.000  N
  N31      1.0000 0.41990  0.42960  0.35980  Biso   1.000  N
  C85      1.0000 0.47240  0.35850  0.25600  Biso   1.000  C
  H71      1.0000 0.44730  0.32680  0.25060  Biso   1.000  H
  C86      1.0000 0.40990  0.46890  0.44400  Biso   1.000  C
  H72      1.0000 0.43280  0.49450  0.48040  Biso   1.000  H
  C87      1.0000 0.46480  0.41740  0.30980  Biso   1.000  C
  C88      1.0000 0.55540  0.39530  0.20730  Biso   1.000  C
  C89      1.0000 0.60490  0.34390  0.06240  Biso   1.000  C
  H73      1.0000 0.57950  0.32270  0.02660  Biso   1.000  H
  C90      1.0000 0.65230  0.34350  0.04050  Biso   1.000  C
  H74      1.0000 0.66560  0.32250  0.98340  Biso   1.000  H
  C91      1.0000 0.64720  0.40230  0.17600  Biso   1.000  C
  H75      1.0000 0.65560  0.42930  0.23160  Biso   1.000  H
  C92      1.0000 0.52000  0.34850  0.21100  Biso   1.000  C
  H76      1.0000 0.52690  0.30710  0.18220  Biso   1.000  H
  C93      1.0000 0.54760  0.45660  0.25230  Biso   1.000  C
  H77      1.0000 0.57120  0.49040  0.24750  Biso   1.000  H
  C94      1.0000 0.36190  0.46330  0.46470  Biso   1.000  C
  H78      1.0000 0.34540  0.48620  0.51630  Biso   1.000  H
  C95      1.0000 0.50290  0.46600  0.30600  Biso   1.000  C
  H79      1.0000 0.49800  0.50600  0.33960  Biso   1.000  H
  C96      1.0000 0.37360  0.40060  0.33230  Biso   1.000  C
  H80      1.0000 0.36840  0.37330  0.27610  Biso   1.000  H
  N32      1.0000 0.33930  0.41800  0.39780  Biso   1.000  N
  O112     1.0000 0.74100  0.62810  0.45390  Biso   1.000  O
  W41      1.0000 0.65380  0.25000  0.75134  Biso   1.000  W
  W42      1.0000 0.86842  0.25000  0.44110  Biso   1.000  W
  V1       1.0000 0.76358  0.25000  0.60340  Biso   1.000  V
  O113     1.0000 0.87610  0.25000  0.71930  Biso   1.000  O
  O114     1.0000 0.75520  0.25000  0.29810  Biso   1.000  O
  O115     1.0000 0.70210  0.25000  0.60300  Biso   1.000  O
  O116     1.0000 0.62610  0.25000  0.48800  Biso   1.000  O
  O117     1.0000 0.77890  0.25000  0.85820  Biso   1.000  O
  O118     1.0000 0.78460  0.25000  0.48660  Biso   1.000  O
  W43      1.0000 0.84620  0.75000  0.25134  Biso   1.000  W
  W44      1.0000 0.63158  0.75000  0.94110  Biso   1.000  W
  V2       1.0000 0.73642  0.75000  0.10340  Biso   1.000  V
  O119     1.0000 0.62390  0.75000  0.21930  Biso   1.000  O
  O120     1.0000 0.74480  0.75000  0.79810  Biso   1.000  O
  O121     1.0000 0.79790  0.75000  0.10300  Biso   1.000  O
  O122     1.0000 0.87390  0.75000  0.98800  Biso   1.000  O
  O123     1.0000 0.72110  0.75000  0.35820  Biso   1.000  O
  O124     1.0000 0.71540  0.75000  0.98660  Biso   1.000  O
  W45      1.0000 0.34620  0.75000  0.24866  Biso   1.000  W
  W46      1.0000 0.13158  0.75000  0.55890  Biso   1.000  W
  V3       1.0000 0.23642  0.75000  0.39660  Biso   1.000  V
  O125     1.0000 0.12390  0.75000  0.28070  Biso   1.000  O
  O126     1.0000 0.24480  0.75000  0.70190  Biso   1.000  O
  O127     1.0000 0.29790  0.75000  0.39700  Biso   1.000  O
  O128     1.0000 0.37390  0.75000  0.51200  Biso   1.000  O
  O129     1.0000 0.22110  0.75000  0.14180  Biso   1.000  O
  O130     1.0000 0.21540  0.75000  0.51340  Biso   1.000  O
  W47      1.0000 0.15380  0.25000  0.74866  Biso   1.000  W
  W48      1.0000 0.36842  0.25000  0.05890  Biso   1.000  W
  V4       1.0000 0.26358  0.25000  0.89660  Biso   1.000  V
  O131     1.0000 0.37610  0.25000  0.78070  Biso   1.000  O
  O132     1.0000 0.25520  0.25000  0.20190  Biso   1.000  O
  O133     1.0000 0.20210  0.25000  0.89700  Biso   1.000  O
  O134     1.0000 0.12610  0.25000  0.01200  Biso   1.000  O
  O135     1.0000 0.27890  0.25000  0.64180  Biso   1.000  O
  O136     1.0000 0.28460  0.25000  0.01340  Biso   1.000  O
