data_image0
_cell_length_a       11.4607
_cell_length_b       18.7956
_cell_length_c       22.7213
_cell_angle_alpha    90
_cell_angle_beta     96.863
_cell_angle_gamma    90

_symmetry_space_group_name_H-M    "P 1"
_symmetry_int_tables_number       1

loop_
  _symmetry_equiv_pos_as_xyz
  'x, y, z'

loop_
  _atom_site_label
  _atom_site_occupancy
  _atom_site_fract_x
  _atom_site_fract_y
  _atom_site_fract_z
  _atom_site_thermal_displace_type
  _atom_site_B_iso_or_equiv
  _atom_site_type_symbol
  Cd1      1.0000 0.64678  0.02444  0.05696  Biso   1.000  Cd
  N1       1.0000 0.76170  0.07880  0.99111  Biso   1.000  N
  N2       1.0000 0.52420  0.03960  0.61394  Biso   1.000  N
  N3       1.0000 0.11660  0.56630  0.94400  Biso   1.000  N
  C1       1.0000 0.75190  0.14760  0.97760  Biso   1.000  C
  H1       1.0000 0.69240  0.17360  0.99190  Biso   1.000  H
  C2       1.0000 0.82550  0.18200  0.94320  Biso   1.000  C
  H2       1.0000 0.81520  0.23020  0.93500  Biso   1.000  H
  C3       1.0000 0.91480  0.14480  0.92100  Biso   1.000  C
  C4       1.0000 0.92460  0.07500  0.93510  Biso   1.000  C
  H3       1.0000 0.98400  0.04790  0.92170  Biso   1.000  H
  C5       1.0000 0.84790  0.04380  0.96890  Biso   1.000  C
  H4       1.0000 0.85620  0.99540  0.97690  Biso   1.000  H
  C6       1.0000 0.99850  0.17780  0.88470  Biso   1.000  C
  H5       1.0000 0.05800  0.14870  0.87390  Biso   1.000  H
  C7       1.0000 0.99790  0.24310  0.86630  Biso   1.000  C
  H6       1.0000 0.93990  0.27270  0.87800  Biso   1.000  H
  C8       1.0000 0.08040  0.27480  0.82870  Biso   1.000  C
  C9       1.0000 0.08340  0.34700  0.82320  Biso   1.000  C
  H7       1.0000 0.03430  0.37470  0.84370  Biso   1.000  H
  C10      1.0000 0.15740  0.38000  0.78820  Biso   1.000  C
  H8       1.0000 0.15900  0.42940  0.78600  Biso   1.000  H
  C11      1.0000 0.22850  0.34050  0.75660  Biso   1.000  C
  H9       1.0000 0.27700  0.36280  0.73220  Biso   1.000  H
  C12      1.0000 0.22780  0.26850  0.76100  Biso   1.000  C
  C13      1.0000 0.15330  0.23610  0.79740  Biso   1.000  C
  H10      1.0000 0.15330  0.18680  0.80050  Biso   1.000  H
  C14      1.0000 0.30410  0.22770  0.72590  Biso   1.000  C
  H11      1.0000 0.35950  0.25380  0.70840  Biso   1.000  H
  C15      1.0000 0.30390  0.15920  0.71630  Biso   1.000  C
  H12      1.0000 0.24800  0.13290  0.73330  Biso   1.000  H
  C16      1.0000 0.38150  0.11930  0.68200  Biso   1.000  C
  C17      1.0000 0.36080  0.04890  0.66940  Biso   1.000  C
  H13      1.0000 0.29760  0.02610  0.68340  Biso   1.000  H
  C18      1.0000 0.43220  0.01180  0.63630  Biso   1.000  C
  H14      1.0000 0.41550  0.96400  0.62900  Biso   1.000  H
  C19      1.0000 0.54530  0.10730  0.62670  Biso   1.000  C
  H15      1.0000 0.60980  0.12850  0.61260  Biso   1.000  H
  C20      1.0000 0.47740  0.14840  0.65980  Biso   1.000  C
  H16      1.0000 0.49660  0.19600  0.66710  Biso   1.000  H
  C21      1.0000 0.12050  0.63590  0.94430  Biso   1.000  C
  H17      1.0000 0.07550  0.66180  0.96810  Biso   1.000  H
  C22      1.0000 0.19820  0.67330  0.90560  Biso   1.000  C
  H18      1.0000 0.20210  0.72270  0.90600  Biso   1.000  H
  C23      1.0000 0.26170  0.63650  0.87060  Biso   1.000  C
  C24      1.0000 0.25340  0.56710  0.87290  Biso   1.000  C
  H19      1.0000 0.29630  0.53940  0.84920  Biso   1.000  H
  C25      1.0000 0.18360  0.53490  0.90910  Biso   1.000  C
  H20      1.0000 0.18330  0.48540  0.90910  Biso   1.000  H
  C26      1.0000 0.34060  0.67380  0.83100  Biso   1.000  C
  H21      1.0000 0.38820  0.64410  0.81140  Biso   1.000  H
  C27      1.0000 0.34980  0.73580  0.82170  Biso   1.000  C
  H22      1.0000 0.30140  0.76580  0.84050  Biso   1.000  H
  C28      1.0000 0.42710  0.76990  0.78460  Biso   1.000  C
  C29      1.0000 0.42930  0.84300  0.78380  Biso   1.000  C
  H23      1.0000 0.38180  0.86870  0.80660  Biso   1.000  H
  C30      1.0000 0.20560  0.39610  0.03360  Biso   1.000  C
  C31      1.0000 0.26160  0.32330  0.03220  Biso   1.000  C
  C32      1.0000 0.20860  0.27230  0.99630  Biso   1.000  C
  H24      1.0000 0.13810  0.28240  0.97310  Biso   1.000  H
  C33      1.0000 0.25840  0.20490  0.99360  Biso   1.000  C
  H25      1.0000 0.22030  0.16970  0.96980  Biso   1.000  H
  C34      1.0000 0.36410  0.19110  0.02650  Biso   1.000  C
  C35      1.0000 0.41670  0.24280  0.06170  Biso   1.000  C
  H26      1.0000 0.48840  0.23330  0.08410  Biso   1.000  H
  C36      1.0000 0.36700  0.30900  0.06530  Biso   1.000  C
  H27      1.0000 0.40450  0.34370  0.08990  Biso   1.000  H
  C37      1.0000 0.42090  0.11900  0.02430  Biso   1.000  C
  C38      1.0000 0.82420  0.03270  0.14790  Biso   1.000  C
  C39      1.0000 0.91500  0.03280  0.20090  Biso   1.000  C
  C40      1.0000 0.95970  0.97380  0.22540  Biso   1.000  C
  H28      1.0000 0.93540  0.93040  0.20840  Biso   1.000  H
  C41      1.0000 0.95730  0.09510  0.22510  Biso   1.000  C
  H29      1.0000 0.92960  0.13800  0.20860  Biso   1.000  H
  O1       1.0000 0.24890  0.43860  0.07170  Biso   1.000  O
  O2       1.0000 0.11610  0.40610  0.99850  Biso   1.000  O
  O3       1.0000 0.35850  0.06903  0.00317  Biso   1.000  O
  O4       1.0000 0.52540  0.11564  0.04569  Biso   1.000  O
  O5       1.0000 0.80760  0.97620  0.11937  Biso   1.000  O
  O6       1.0000 0.76560  0.08620  0.13425  Biso   1.000  O
  Cd2      1.0000 0.35322  0.02444  0.44304  Biso   1.000  Cd
  N4       1.0000 0.23830  0.07880  0.50889  Biso   1.000  N
  N5       1.0000 0.47580  0.03960  0.88606  Biso   1.000  N
  N6       1.0000 0.88340  0.56630  0.55600  Biso   1.000  N
  C42      1.0000 0.24810  0.14760  0.52240  Biso   1.000  C
  H30      1.0000 0.30760  0.17360  0.50810  Biso   1.000  H
  C43      1.0000 0.17450  0.18200  0.55680  Biso   1.000  C
  H31      1.0000 0.18480  0.23020  0.56500  Biso   1.000  H
  C44      1.0000 0.08520  0.14480  0.57900  Biso   1.000  C
  C45      1.0000 0.07540  0.07500  0.56490  Biso   1.000  C
  H32      1.0000 0.01600  0.04790  0.57830  Biso   1.000  H
  C46      1.0000 0.15210  0.04380  0.53110  Biso   1.000  C
  H33      1.0000 0.14380  0.99540  0.52310  Biso   1.000  H
  C47      1.0000 0.00150  0.17780  0.61530  Biso   1.000  C
  H34      1.0000 0.94200  0.14870  0.62610  Biso   1.000  H
  C48      1.0000 0.00210  0.24310  0.63370  Biso   1.000  C
  H35      1.0000 0.06010  0.27270  0.62200  Biso   1.000  H
  C49      1.0000 0.91960  0.27480  0.67130  Biso   1.000  C
  C50      1.0000 0.91660  0.34700  0.67680  Biso   1.000  C
  H36      1.0000 0.96570  0.37470  0.65630  Biso   1.000  H
  C51      1.0000 0.84260  0.38000  0.71180  Biso   1.000  C
  H37      1.0000 0.84100  0.42940  0.71400  Biso   1.000  H
  C52      1.0000 0.77150  0.34050  0.74340  Biso   1.000  C
  H38      1.0000 0.72300  0.36280  0.76780  Biso   1.000  H
  C53      1.0000 0.77220  0.26850  0.73900  Biso   1.000  C
  C54      1.0000 0.84670  0.23610  0.70260  Biso   1.000  C
  H39      1.0000 0.84670  0.18680  0.69950  Biso   1.000  H
  C55      1.0000 0.69590  0.22770  0.77410  Biso   1.000  C
  H40      1.0000 0.64050  0.25380  0.79160  Biso   1.000  H
  C56      1.0000 0.69610  0.15920  0.78370  Biso   1.000  C
  H41      1.0000 0.75200  0.13290  0.76670  Biso   1.000  H
  C57      1.0000 0.61850  0.11930  0.81800  Biso   1.000  C
  C58      1.0000 0.63920  0.04890  0.83060  Biso   1.000  C
  H42      1.0000 0.70240  0.02610  0.81660  Biso   1.000  H
  C59      1.0000 0.56780  0.01180  0.86370  Biso   1.000  C
  H43      1.0000 0.58450  0.96400  0.87100  Biso   1.000  H
  C60      1.0000 0.45470  0.10730  0.87330  Biso   1.000  C
  H44      1.0000 0.39020  0.12850  0.88740  Biso   1.000  H
  C61      1.0000 0.52260  0.14840  0.84020  Biso   1.000  C
  H45      1.0000 0.50340  0.19600  0.83290  Biso   1.000  H
  C62      1.0000 0.87950  0.63590  0.55570  Biso   1.000  C
  H46      1.0000 0.92450  0.66180  0.53190  Biso   1.000  H
  C63      1.0000 0.80180  0.67330  0.59440  Biso   1.000  C
  H47      1.0000 0.79790  0.72270  0.59400  Biso   1.000  H
  C64      1.0000 0.73830  0.63650  0.62940  Biso   1.000  C
  C65      1.0000 0.74660  0.56710  0.62710  Biso   1.000  C
  H48      1.0000 0.70370  0.53940  0.65080  Biso   1.000  H
  C66      1.0000 0.81640  0.53490  0.59090  Biso   1.000  C
  H49      1.0000 0.81670  0.48540  0.59090  Biso   1.000  H
  C67      1.0000 0.65940  0.67380  0.66900  Biso   1.000  C
  H50      1.0000 0.61180  0.64410  0.68860  Biso   1.000  H
  C68      1.0000 0.65020  0.73580  0.67830  Biso   1.000  C
  H51      1.0000 0.69860  0.76580  0.65950  Biso   1.000  H
  C69      1.0000 0.57290  0.76990  0.71540  Biso   1.000  C
  C70      1.0000 0.57070  0.84300  0.71620  Biso   1.000  C
  H52      1.0000 0.61820  0.86870  0.69340  Biso   1.000  H
  C71      1.0000 0.79440  0.39610  0.46640  Biso   1.000  C
  C72      1.0000 0.73840  0.32330  0.46780  Biso   1.000  C
  C73      1.0000 0.79140  0.27230  0.50370  Biso   1.000  C
  H53      1.0000 0.86190  0.28240  0.52690  Biso   1.000  H
  C74      1.0000 0.74160  0.20490  0.50640  Biso   1.000  C
  H54      1.0000 0.77970  0.16970  0.53020  Biso   1.000  H
  C75      1.0000 0.63590  0.19110  0.47350  Biso   1.000  C
  C76      1.0000 0.58330  0.24280  0.43830  Biso   1.000  C
  H55      1.0000 0.51160  0.23330  0.41590  Biso   1.000  H
  C77      1.0000 0.63300  0.30900  0.43470  Biso   1.000  C
  H56      1.0000 0.59550  0.34370  0.41010  Biso   1.000  H
  C78      1.0000 0.57910  0.11900  0.47570  Biso   1.000  C
  C79      1.0000 0.17580  0.03270  0.35210  Biso   1.000  C
  C80      1.0000 0.08500  0.03280  0.29910  Biso   1.000  C
  C81      1.0000 0.04030  0.97380  0.27460  Biso   1.000  C
  H57      1.0000 0.06460  0.93040  0.29160  Biso   1.000  H
  C82      1.0000 0.04270  0.09510  0.27490  Biso   1.000  C
  H58      1.0000 0.07040  0.13800  0.29140  Biso   1.000  H
  O7       1.0000 0.75110  0.43860  0.42830  Biso   1.000  O
  O8       1.0000 0.88390  0.40610  0.50150  Biso   1.000  O
  O9       1.0000 0.64150  0.06903  0.49683  Biso   1.000  O
  O10      1.0000 0.47460  0.11564  0.45431  Biso   1.000  O
  O11      1.0000 0.19240  0.97620  0.38063  Biso   1.000  O
  O12      1.0000 0.23440  0.08620  0.36575  Biso   1.000  O
  Cd3      1.0000 0.35322  0.97556  0.94304  Biso   1.000  Cd
  N7       1.0000 0.23830  0.92120  0.00889  Biso   1.000  N
  N8       1.0000 0.47580  0.96040  0.38606  Biso   1.000  N
  N9       1.0000 0.88340  0.43370  0.05600  Biso   1.000  N
  C83      1.0000 0.24810  0.85240  0.02240  Biso   1.000  C
  H59      1.0000 0.30760  0.82640  0.00810  Biso   1.000  H
  C84      1.0000 0.17450  0.81800  0.05680  Biso   1.000  C
  H60      1.0000 0.18480  0.76980  0.06500  Biso   1.000  H
  C85      1.0000 0.08520  0.85520  0.07900  Biso   1.000  C
  C86      1.0000 0.07540  0.92500  0.06490  Biso   1.000  C
  H61      1.0000 0.01600  0.95210  0.07830  Biso   1.000  H
  C87      1.0000 0.15210  0.95620  0.03110  Biso   1.000  C
  H62      1.0000 0.14380  0.00460  0.02310  Biso   1.000  H
  C88      1.0000 0.00150  0.82220  0.11530  Biso   1.000  C
  H63      1.0000 0.94200  0.85130  0.12610  Biso   1.000  H
  C89      1.0000 0.00210  0.75690  0.13370  Biso   1.000  C
  H64      1.0000 0.06010  0.72730  0.12200  Biso   1.000  H
  C90      1.0000 0.91960  0.72520  0.17130  Biso   1.000  C
  C91      1.0000 0.91660  0.65300  0.17680  Biso   1.000  C
  H65      1.0000 0.96570  0.62530  0.15630  Biso   1.000  H
  C92      1.0000 0.84260  0.62000  0.21180  Biso   1.000  C
  H66      1.0000 0.84100  0.57060  0.21400  Biso   1.000  H
  C93      1.0000 0.77150  0.65950  0.24340  Biso   1.000  C
  H67      1.0000 0.72300  0.63720  0.26780  Biso   1.000  H
  C94      1.0000 0.77220  0.73150  0.23900  Biso   1.000  C
  C95      1.0000 0.84670  0.76390  0.20260  Biso   1.000  C
  H68      1.0000 0.84670  0.81320  0.19950  Biso   1.000  H
  C96      1.0000 0.69590  0.77230  0.27410  Biso   1.000  C
  H69      1.0000 0.64050  0.74620  0.29160  Biso   1.000  H
  C97      1.0000 0.69610  0.84080  0.28370  Biso   1.000  C
  H70      1.0000 0.75200  0.86710  0.26670  Biso   1.000  H
  C98      1.0000 0.61850  0.88070  0.31800  Biso   1.000  C
  C99      1.0000 0.63920  0.95110  0.33060  Biso   1.000  C
  H71      1.0000 0.70240  0.97390  0.31660  Biso   1.000  H
  C100     1.0000 0.56780  0.98820  0.36370  Biso   1.000  C
  H72      1.0000 0.58450  0.03600  0.37100  Biso   1.000  H
  C101     1.0000 0.45470  0.89270  0.37330  Biso   1.000  C
  H73      1.0000 0.39020  0.87150  0.38740  Biso   1.000  H
  C102     1.0000 0.52260  0.85160  0.34020  Biso   1.000  C
  H74      1.0000 0.50340  0.80400  0.33290  Biso   1.000  H
  C103     1.0000 0.87950  0.36410  0.05570  Biso   1.000  C
  H75      1.0000 0.92450  0.33820  0.03190  Biso   1.000  H
  C104     1.0000 0.80180  0.32670  0.09440  Biso   1.000  C
  H76      1.0000 0.79790  0.27730  0.09400  Biso   1.000  H
  C105     1.0000 0.73830  0.36350  0.12940  Biso   1.000  C
  C106     1.0000 0.74660  0.43290  0.12710  Biso   1.000  C
  H77      1.0000 0.70370  0.46060  0.15080  Biso   1.000  H
  C107     1.0000 0.81640  0.46510  0.09090  Biso   1.000  C
  H78      1.0000 0.81670  0.51460  0.09090  Biso   1.000  H
  C108     1.0000 0.65940  0.32620  0.16900  Biso   1.000  C
  H79      1.0000 0.61180  0.35590  0.18860  Biso   1.000  H
  C109     1.0000 0.65020  0.26420  0.17830  Biso   1.000  C
  H80      1.0000 0.69860  0.23420  0.15950  Biso   1.000  H
  C110     1.0000 0.57290  0.23010  0.21540  Biso   1.000  C
  C111     1.0000 0.57070  0.15700  0.21620  Biso   1.000  C
  H81      1.0000 0.61820  0.13130  0.19340  Biso   1.000  H
  C112     1.0000 0.79440  0.60390  0.96640  Biso   1.000  C
  C113     1.0000 0.73840  0.67670  0.96780  Biso   1.000  C
  C114     1.0000 0.79140  0.72770  0.00370  Biso   1.000  C
  H82      1.0000 0.86190  0.71760  0.02690  Biso   1.000  H
  C115     1.0000 0.74160  0.79510  0.00640  Biso   1.000  C
  H83      1.0000 0.77970  0.83030  0.03020  Biso   1.000  H
  C116     1.0000 0.63590  0.80890  0.97350  Biso   1.000  C
  C117     1.0000 0.58330  0.75720  0.93830  Biso   1.000  C
  H84      1.0000 0.51160  0.76670  0.91590  Biso   1.000  H
  C118     1.0000 0.63300  0.69100  0.93470  Biso   1.000  C
  H85      1.0000 0.59550  0.65630  0.91010  Biso   1.000  H
  C119     1.0000 0.57910  0.88100  0.97570  Biso   1.000  C
  C120     1.0000 0.17580  0.96730  0.85210  Biso   1.000  C
  C121     1.0000 0.08500  0.96720  0.79910  Biso   1.000  C
  C122     1.0000 0.04030  0.02620  0.77460  Biso   1.000  C
  H86      1.0000 0.06460  0.06960  0.79160  Biso   1.000  H
  C123     1.0000 0.04270  0.90490  0.77490  Biso   1.000  C
  H87      1.0000 0.07040  0.86200  0.79140  Biso   1.000  H
  O13      1.0000 0.75110  0.56140  0.92830  Biso   1.000  O
  O14      1.0000 0.88390  0.59390  0.00150  Biso   1.000  O
  O15      1.0000 0.64150  0.93097  0.99683  Biso   1.000  O
  O16      1.0000 0.47460  0.88436  0.95431  Biso   1.000  O
  O17      1.0000 0.19240  0.02380  0.88063  Biso   1.000  O
  O18      1.0000 0.23440  0.91380  0.86575  Biso   1.000  O
  Cd4      1.0000 0.64678  0.97556  0.55696  Biso   1.000  Cd
  N10      1.0000 0.76170  0.92120  0.49111  Biso   1.000  N
  N11      1.0000 0.52420  0.96040  0.11394  Biso   1.000  N
  N12      1.0000 0.11660  0.43370  0.44400  Biso   1.000  N
  C124     1.0000 0.75190  0.85240  0.47760  Biso   1.000  C
  H88      1.0000 0.69240  0.82640  0.49190  Biso   1.000  H
  C125     1.0000 0.82550  0.81800  0.44320  Biso   1.000  C
  H89      1.0000 0.81520  0.76980  0.43500  Biso   1.000  H
  C126     1.0000 0.91480  0.85520  0.42100  Biso   1.000  C
  C127     1.0000 0.92460  0.92500  0.43510  Biso   1.000  C
  H90      1.0000 0.98400  0.95210  0.42170  Biso   1.000  H
  C128     1.0000 0.84790  0.95620  0.46890  Biso   1.000  C
  H91      1.0000 0.85620  0.00460  0.47690  Biso   1.000  H
  C129     1.0000 0.99850  0.82220  0.38470  Biso   1.000  C
  H92      1.0000 0.05800  0.85130  0.37390  Biso   1.000  H
  C130     1.0000 0.99790  0.75690  0.36630  Biso   1.000  C
  H93      1.0000 0.93990  0.72730  0.37800  Biso   1.000  H
  C131     1.0000 0.08040  0.72520  0.32870  Biso   1.000  C
  C132     1.0000 0.08340  0.65300  0.32320  Biso   1.000  C
  H94      1.0000 0.03430  0.62530  0.34370  Biso   1.000  H
  C133     1.0000 0.15740  0.62000  0.28820  Biso   1.000  C
  H95      1.0000 0.15900  0.57060  0.28600  Biso   1.000  H
  C134     1.0000 0.22850  0.65950  0.25660  Biso   1.000  C
  H96      1.0000 0.27700  0.63720  0.23220  Biso   1.000  H
  C135     1.0000 0.22780  0.73150  0.26100  Biso   1.000  C
  C136     1.0000 0.15330  0.76390  0.29740  Biso   1.000  C
  H97      1.0000 0.15330  0.81320  0.30050  Biso   1.000  H
  C137     1.0000 0.30410  0.77230  0.22590  Biso   1.000  C
  H98      1.0000 0.35950  0.74620  0.20840  Biso   1.000  H
  C138     1.0000 0.30390  0.84080  0.21630  Biso   1.000  C
  H99      1.0000 0.24800  0.86710  0.23330  Biso   1.000  H
  C139     1.0000 0.38150  0.88070  0.18200  Biso   1.000  C
  C140     1.0000 0.36080  0.95110  0.16940  Biso   1.000  C
  H100     1.0000 0.29760  0.97390  0.18340  Biso   1.000  H
  C141     1.0000 0.43220  0.98820  0.13630  Biso   1.000  C
  H101     1.0000 0.41550  0.03600  0.12900  Biso   1.000  H
  C142     1.0000 0.54530  0.89270  0.12670  Biso   1.000  C
  H102     1.0000 0.60980  0.87150  0.11260  Biso   1.000  H
  C143     1.0000 0.47740  0.85160  0.15980  Biso   1.000  C
  H103     1.0000 0.49660  0.80400  0.16710  Biso   1.000  H
  C144     1.0000 0.12050  0.36410  0.44430  Biso   1.000  C
  H104     1.0000 0.07550  0.33820  0.46810  Biso   1.000  H
  C145     1.0000 0.19820  0.32670  0.40560  Biso   1.000  C
  H105     1.0000 0.20210  0.27730  0.40600  Biso   1.000  H
  C146     1.0000 0.26170  0.36350  0.37060  Biso   1.000  C
  C147     1.0000 0.25340  0.43290  0.37290  Biso   1.000  C
  H106     1.0000 0.29630  0.46060  0.34920  Biso   1.000  H
  C148     1.0000 0.18360  0.46510  0.40910  Biso   1.000  C
  H107     1.0000 0.18330  0.51460  0.40910  Biso   1.000  H
  C149     1.0000 0.34060  0.32620  0.33100  Biso   1.000  C
  H108     1.0000 0.38820  0.35590  0.31140  Biso   1.000  H
  C150     1.0000 0.34980  0.26420  0.32170  Biso   1.000  C
  H109     1.0000 0.30140  0.23420  0.34050  Biso   1.000  H
  C151     1.0000 0.42710  0.23010  0.28460  Biso   1.000  C
  C152     1.0000 0.42930  0.15700  0.28380  Biso   1.000  C
  H110     1.0000 0.38180  0.13130  0.30660  Biso   1.000  H
  C153     1.0000 0.20560  0.60390  0.53360  Biso   1.000  C
  C154     1.0000 0.26160  0.67670  0.53220  Biso   1.000  C
  C155     1.0000 0.20860  0.72770  0.49630  Biso   1.000  C
  H111     1.0000 0.13810  0.71760  0.47310  Biso   1.000  H
  C156     1.0000 0.25840  0.79510  0.49360  Biso   1.000  C
  H112     1.0000 0.22030  0.83030  0.46980  Biso   1.000  H
  C157     1.0000 0.36410  0.80890  0.52650  Biso   1.000  C
  C158     1.0000 0.41670  0.75720  0.56170  Biso   1.000  C
  H113     1.0000 0.48840  0.76670  0.58410  Biso   1.000  H
  C159     1.0000 0.36700  0.69100  0.56530  Biso   1.000  C
  H114     1.0000 0.40450  0.65630  0.58990  Biso   1.000  H
  C160     1.0000 0.42090  0.88100  0.52430  Biso   1.000  C
  C161     1.0000 0.82420  0.96730  0.64790  Biso   1.000  C
  C162     1.0000 0.91500  0.96720  0.70090  Biso   1.000  C
  C163     1.0000 0.95970  0.02620  0.72540  Biso   1.000  C
  H115     1.0000 0.93540  0.06960  0.70840  Biso   1.000  H
  C164     1.0000 0.95730  0.90490  0.72510  Biso   1.000  C
  H116     1.0000 0.92960  0.86200  0.70860  Biso   1.000  H
  O19      1.0000 0.24890  0.56140  0.57170  Biso   1.000  O
  O20      1.0000 0.11610  0.59390  0.49850  Biso   1.000  O
  O21      1.0000 0.35850  0.93097  0.50317  Biso   1.000  O
  O22      1.0000 0.52540  0.88436  0.54569  Biso   1.000  O
  O23      1.0000 0.80760  0.02380  0.61937  Biso   1.000  O
  O24      1.0000 0.76560  0.91380  0.63425  Biso   1.000  O
  Cd5      1.0000 0.00000  0.50000  0.00000  Biso   1.000  Cd
  Cd6      1.0000 0.00000  0.50000  0.50000  Biso   1.000  Cd
  C165     1.0000 0.50000  0.73340  0.75000  Biso   1.000  C
  H117     1.0000 0.50000  0.68390  0.75000  Biso   1.000  H
  C166     1.0000 0.50000  0.87760  0.75000  Biso   1.000  C
  H118     1.0000 0.50000  0.92700  0.75000  Biso   1.000  H
  C167     1.0000 0.50000  0.26660  0.25000  Biso   1.000  C
  H119     1.0000 0.50000  0.31610  0.25000  Biso   1.000  H
  C168     1.0000 0.50000  0.12240  0.25000  Biso   1.000  C
  H120     1.0000 0.50000  0.07300  0.25000  Biso   1.000  H
