data_image0
_cell_length_a       17.758
_cell_length_b       8.281
_cell_length_c       13.993
_cell_angle_alpha    90
_cell_angle_beta     107.21
_cell_angle_gamma    90

_symmetry_space_group_name_H-M    "P 1"
_symmetry_int_tables_number       1

loop_
  _symmetry_equiv_pos_as_xyz
  'x, y, z'

loop_
  _atom_site_label
  _atom_site_occupancy
  _atom_site_fract_x
  _atom_site_fract_y
  _atom_site_fract_z
  _atom_site_thermal_displace_type
  _atom_site_B_iso_or_equiv
  _atom_site_type_symbol
  Sr1      1.0000 0.06664  0.90497  0.15704  Biso   1.000  Sr
  O1       1.0000 0.18251  0.71460  0.23633  Biso   1.000  O
  O2       1.0000 0.29609  0.57790  0.27620  Biso   1.000  O
  O3       1.0000 0.41752  0.44490  0.15827  Biso   1.000  O
  O4       1.0000 0.41621  0.53700  0.00932  Biso   1.000  O
  N1       1.0000 0.25412  0.42000  0.09458  Biso   1.000  N
  H1       1.0000 0.29000  0.37340  0.14770  Biso   1.000  H
  C1       1.0000 0.19216  0.49730  0.13230  Biso   1.000  C
  H2       1.0000 0.16070  0.41370  0.15060  Biso   1.000  H
  H3       1.0000 0.15750  0.56120  0.07920  Biso   1.000  H
  C2       1.0000 0.22769  0.60550  0.22290  Biso   1.000  C
  C3       1.0000 0.29662  0.54250  0.05130  Biso   1.000  C
  H4       1.0000 0.29070  0.64800  0.07840  Biso   1.000  H
  H5       1.0000 0.27280  0.54690  0.97940  Biso   1.000  H
  C4       1.0000 0.38372  0.50480  0.07370  Biso   1.000  C
  C5       1.0000 0.21902  0.28830  0.02040  Biso   1.000  C
  H6       1.0000 0.17720  0.33310  0.96550  Biso   1.000  H
  H7       1.0000 0.19610  0.20610  0.05270  Biso   1.000  H
  H8       1.0000 0.96160  0.61260  0.24110  Biso   1.000  H
  Sr2      1.0000 0.56664  0.40497  0.15704  Biso   1.000  Sr
  O5       1.0000 0.68251  0.21460  0.23633  Biso   1.000  O
  O6       1.0000 0.79609  0.07790  0.27620  Biso   1.000  O
  O7       1.0000 0.91752  0.94490  0.15827  Biso   1.000  O
  O8       1.0000 0.91621  0.03700  0.00932  Biso   1.000  O
  N2       1.0000 0.75412  0.92000  0.09458  Biso   1.000  N
  H9       1.0000 0.79000  0.87340  0.14770  Biso   1.000  H
  C6       1.0000 0.69216  0.99730  0.13230  Biso   1.000  C
  H10      1.0000 0.66070  0.91370  0.15060  Biso   1.000  H
  H11      1.0000 0.65750  0.06120  0.07920  Biso   1.000  H
  C7       1.0000 0.72769  0.10550  0.22290  Biso   1.000  C
  C8       1.0000 0.79662  0.04250  0.05130  Biso   1.000  C
  H12      1.0000 0.79070  0.14800  0.07840  Biso   1.000  H
  H13      1.0000 0.77280  0.04690  0.97940  Biso   1.000  H
  C9       1.0000 0.88372  0.00480  0.07370  Biso   1.000  C
  C10      1.0000 0.71902  0.78830  0.02040  Biso   1.000  C
  H14      1.0000 0.67720  0.83310  0.96550  Biso   1.000  H
  H15      1.0000 0.69610  0.70610  0.05270  Biso   1.000  H
  H16      1.0000 0.46160  0.11260  0.24110  Biso   1.000  H
  Sr3      1.0000 0.93336  0.90497  0.34296  Biso   1.000  Sr
  O9       1.0000 0.81749  0.71460  0.26367  Biso   1.000  O
  O10      1.0000 0.70391  0.57790  0.22380  Biso   1.000  O
  O11      1.0000 0.58248  0.44490  0.34173  Biso   1.000  O
  O12      1.0000 0.58379  0.53700  0.49068  Biso   1.000  O
  N3       1.0000 0.74588  0.42000  0.40542  Biso   1.000  N
  H17      1.0000 0.71000  0.37340  0.35230  Biso   1.000  H
  C11      1.0000 0.80784  0.49730  0.36770  Biso   1.000  C
  H18      1.0000 0.83930  0.41370  0.34940  Biso   1.000  H
  H19      1.0000 0.84250  0.56120  0.42080  Biso   1.000  H
  C12      1.0000 0.77231  0.60550  0.27710  Biso   1.000  C
  C13      1.0000 0.70338  0.54250  0.44870  Biso   1.000  C
  H20      1.0000 0.70930  0.64800  0.42160  Biso   1.000  H
  H21      1.0000 0.72720  0.54690  0.52060  Biso   1.000  H
  C14      1.0000 0.61628  0.50480  0.42630  Biso   1.000  C
  C15      1.0000 0.78098  0.28830  0.47960  Biso   1.000  C
  H22      1.0000 0.82280  0.33310  0.53450  Biso   1.000  H
  H23      1.0000 0.80390  0.20610  0.44730  Biso   1.000  H
  H24      1.0000 0.03840  0.61260  0.25890  Biso   1.000  H
  Sr4      1.0000 0.43336  0.40497  0.34296  Biso   1.000  Sr
  O13      1.0000 0.31749  0.21460  0.26367  Biso   1.000  O
  O14      1.0000 0.20391  0.07790  0.22380  Biso   1.000  O
  O15      1.0000 0.08248  0.94490  0.34173  Biso   1.000  O
  O16      1.0000 0.08379  0.03700  0.49068  Biso   1.000  O
  N4       1.0000 0.24588  0.92000  0.40542  Biso   1.000  N
  H25      1.0000 0.21000  0.87340  0.35230  Biso   1.000  H
  C16      1.0000 0.30784  0.99730  0.36770  Biso   1.000  C
  H26      1.0000 0.33930  0.91370  0.34940  Biso   1.000  H
  H27      1.0000 0.34250  0.06120  0.42080  Biso   1.000  H
  C17      1.0000 0.27231  0.10550  0.27710  Biso   1.000  C
  C18      1.0000 0.20338  0.04250  0.44870  Biso   1.000  C
  H28      1.0000 0.20930  0.14800  0.42160  Biso   1.000  H
  H29      1.0000 0.22720  0.04690  0.52060  Biso   1.000  H
  C19      1.0000 0.11628  0.00480  0.42630  Biso   1.000  C
  C20      1.0000 0.28098  0.78830  0.47960  Biso   1.000  C
  H30      1.0000 0.32280  0.83310  0.53450  Biso   1.000  H
  H31      1.0000 0.30390  0.70610  0.44730  Biso   1.000  H
  H32      1.0000 0.53840  0.11260  0.25890  Biso   1.000  H
  Sr5      1.0000 0.93336  0.09503  0.84296  Biso   1.000  Sr
  O17      1.0000 0.81749  0.28540  0.76367  Biso   1.000  O
  O18      1.0000 0.70391  0.42210  0.72380  Biso   1.000  O
  O19      1.0000 0.58248  0.55510  0.84173  Biso   1.000  O
  O20      1.0000 0.58379  0.46300  0.99068  Biso   1.000  O
  N5       1.0000 0.74588  0.58000  0.90542  Biso   1.000  N
  H33      1.0000 0.71000  0.62660  0.85230  Biso   1.000  H
  C21      1.0000 0.80784  0.50270  0.86770  Biso   1.000  C
  H34      1.0000 0.83930  0.58630  0.84940  Biso   1.000  H
  H35      1.0000 0.84250  0.43880  0.92080  Biso   1.000  H
  C22      1.0000 0.77231  0.39450  0.77710  Biso   1.000  C
  C23      1.0000 0.70338  0.45750  0.94870  Biso   1.000  C
  H36      1.0000 0.70930  0.35200  0.92160  Biso   1.000  H
  H37      1.0000 0.72720  0.45310  0.02060  Biso   1.000  H
  C24      1.0000 0.61628  0.49520  0.92630  Biso   1.000  C
  C25      1.0000 0.78098  0.71170  0.97960  Biso   1.000  C
  H38      1.0000 0.82280  0.66690  0.03450  Biso   1.000  H
  H39      1.0000 0.80390  0.79390  0.94730  Biso   1.000  H
  H40      1.0000 0.03840  0.38740  0.75890  Biso   1.000  H
  Sr6      1.0000 0.43336  0.59503  0.84296  Biso   1.000  Sr
  O21      1.0000 0.31749  0.78540  0.76367  Biso   1.000  O
  O22      1.0000 0.20391  0.92210  0.72380  Biso   1.000  O
  O23      1.0000 0.08248  0.05510  0.84173  Biso   1.000  O
  O24      1.0000 0.08379  0.96300  0.99068  Biso   1.000  O
  N6       1.0000 0.24588  0.08000  0.90542  Biso   1.000  N
  H41      1.0000 0.21000  0.12660  0.85230  Biso   1.000  H
  C26      1.0000 0.30784  0.00270  0.86770  Biso   1.000  C
  H42      1.0000 0.33930  0.08630  0.84940  Biso   1.000  H
  H43      1.0000 0.34250  0.93880  0.92080  Biso   1.000  H
  C27      1.0000 0.27231  0.89450  0.77710  Biso   1.000  C
  C28      1.0000 0.20338  0.95750  0.94870  Biso   1.000  C
  H44      1.0000 0.20930  0.85200  0.92160  Biso   1.000  H
  H45      1.0000 0.22720  0.95310  0.02060  Biso   1.000  H
  C29      1.0000 0.11628  0.99520  0.92630  Biso   1.000  C
  C30      1.0000 0.28098  0.21170  0.97960  Biso   1.000  C
  H46      1.0000 0.32280  0.16690  0.03450  Biso   1.000  H
  H47      1.0000 0.30390  0.29390  0.94730  Biso   1.000  H
  H48      1.0000 0.53840  0.88740  0.75890  Biso   1.000  H
  Sr7      1.0000 0.06664  0.09503  0.65704  Biso   1.000  Sr
  O25      1.0000 0.18251  0.28540  0.73633  Biso   1.000  O
  O26      1.0000 0.29609  0.42210  0.77620  Biso   1.000  O
  O27      1.0000 0.41752  0.55510  0.65827  Biso   1.000  O
  O28      1.0000 0.41621  0.46300  0.50932  Biso   1.000  O
  N7       1.0000 0.25412  0.58000  0.59458  Biso   1.000  N
  H49      1.0000 0.29000  0.62660  0.64770  Biso   1.000  H
  C31      1.0000 0.19216  0.50270  0.63230  Biso   1.000  C
  H50      1.0000 0.16070  0.58630  0.65060  Biso   1.000  H
  H51      1.0000 0.15750  0.43880  0.57920  Biso   1.000  H
  C32      1.0000 0.22769  0.39450  0.72290  Biso   1.000  C
  C33      1.0000 0.29662  0.45750  0.55130  Biso   1.000  C
  H52      1.0000 0.29070  0.35200  0.57840  Biso   1.000  H
  H53      1.0000 0.27280  0.45310  0.47940  Biso   1.000  H
  C34      1.0000 0.38372  0.49520  0.57370  Biso   1.000  C
  C35      1.0000 0.21902  0.71170  0.52040  Biso   1.000  C
  H54      1.0000 0.17720  0.66690  0.46550  Biso   1.000  H
  H55      1.0000 0.19610  0.79390  0.55270  Biso   1.000  H
  H56      1.0000 0.96160  0.38740  0.74110  Biso   1.000  H
  Sr8      1.0000 0.56664  0.59503  0.65704  Biso   1.000  Sr
  O29      1.0000 0.68251  0.78540  0.73633  Biso   1.000  O
  O30      1.0000 0.79609  0.92210  0.77620  Biso   1.000  O
  O31      1.0000 0.91752  0.05510  0.65827  Biso   1.000  O
  O32      1.0000 0.91621  0.96300  0.50932  Biso   1.000  O
  N8       1.0000 0.75412  0.08000  0.59458  Biso   1.000  N
  H57      1.0000 0.79000  0.12660  0.64770  Biso   1.000  H
  C36      1.0000 0.69216  0.00270  0.63230  Biso   1.000  C
  H58      1.0000 0.66070  0.08630  0.65060  Biso   1.000  H
  H59      1.0000 0.65750  0.93880  0.57920  Biso   1.000  H
  C37      1.0000 0.72769  0.89450  0.72290  Biso   1.000  C
  C38      1.0000 0.79662  0.95750  0.55130  Biso   1.000  C
  H60      1.0000 0.79070  0.85200  0.57840  Biso   1.000  H
  H61      1.0000 0.77280  0.95310  0.47940  Biso   1.000  H
  C39      1.0000 0.88372  0.99520  0.57370  Biso   1.000  C
  C40      1.0000 0.71902  0.21170  0.52040  Biso   1.000  C
  H62      1.0000 0.67720  0.16690  0.46550  Biso   1.000  H
  H63      1.0000 0.69610  0.29390  0.55270  Biso   1.000  H
  H64      1.0000 0.46160  0.88740  0.74110  Biso   1.000  H
  O33      1.0000 0.00000  0.67790  0.25000  Biso   1.000  O
  O34      1.0000 0.50000  0.17790  0.25000  Biso   1.000  O
  O35      1.0000 0.00000  0.32210  0.75000  Biso   1.000  O
  O36      1.0000 0.50000  0.82210  0.75000  Biso   1.000  O
