data_image0
_cell_length_a       13.368
_cell_length_b       23.922
_cell_length_c       13.092
_cell_angle_alpha    90
_cell_angle_beta     90
_cell_angle_gamma    90

_symmetry_space_group_name_H-M    "P 1"
_symmetry_int_tables_number       1

loop_
  _symmetry_equiv_pos_as_xyz
  'x, y, z'

loop_
  _atom_site_label
  _atom_site_occupancy
  _atom_site_fract_x
  _atom_site_fract_y
  _atom_site_fract_z
  _atom_site_thermal_displace_type
  _atom_site_B_iso_or_equiv
  _atom_site_type_symbol
  O1       1.0000 0.07060  0.42470  0.99720  Biso   1.000  O
  O2       1.0000 0.19640  0.36430  0.99330  Biso   1.000  O
  C1       1.0000 0.15780  0.41080  0.96500  Biso   1.000  C
  O3       1.0000 0.86930  0.53340  0.58410  Biso   1.000  O
  O4       1.0000 0.64500  0.75950  0.60920  Biso   1.000  O
  O5       1.0000 0.48390  0.73990  0.61820  Biso   1.000  O
  C2       1.0000 0.57320  0.72500  0.61110  Biso   1.000  C
  C3       1.0000 0.60150  0.66350  0.60110  Biso   1.000  C
  Tb1      1.0000 0.05756  0.65650  0.61083  Biso   1.000  Tb
  O6       1.0000 0.06570  0.56170  0.70630  Biso   1.000  O
  C4       1.0000 0.66280  0.55230  0.58200  Biso   1.000  C
  H1       1.0000 0.68370  0.51560  0.57200  Biso   1.000  H
  C5       1.0000 0.73200  0.59450  0.59390  Biso   1.000  C
  C6       1.0000 0.70030  0.65030  0.60030  Biso   1.000  C
  H2       1.0000 0.74760  0.67870  0.60400  Biso   1.000  H
  C7       1.0000 0.84360  0.58300  0.59560  Biso   1.000  C
  C8       1.0000 0.56060  0.56520  0.58510  Biso   1.000  C
  O7       1.0000 0.19590  0.61600  0.70470  Biso   1.000  O
  C9       1.0000 0.31980  0.52730  0.78250  Biso   1.000  C
  H3       1.0000 0.35490  0.55550  0.74910  Biso   1.000  H
  C10      1.0000 0.16340  0.48920  0.84510  Biso   1.000  C
  H4       1.0000 0.09400  0.49120  0.84850  Biso   1.000  H
  O8       1.0000 0.89910  0.62390  0.60490  Biso   1.000  O
  C11      1.0000 0.52950  0.62080  0.59920  Biso   1.000  C
  H5       1.0000 0.46200  0.62910  0.60710  Biso   1.000  H
  N1       1.0000 0.47670  0.47780  0.83060  Biso   1.000  N
  N2       1.0000 0.48310  0.52400  0.58110  Biso   1.000  N
  C12      1.0000 0.21620  0.52760  0.78430  Biso   1.000  C
  C13      1.0000 0.21310  0.44850  0.89990  Biso   1.000  C
  C14      1.0000 0.37100  0.48350  0.83210  Biso   1.000  C
  C15      1.0000 0.31770  0.44380  0.88650  Biso   1.000  C
  H6       1.0000 0.35130  0.41350  0.91480  Biso   1.000  H
  C16      1.0000 0.15590  0.57170  0.72610  Biso   1.000  C
  O9       1.0000 0.57060  0.92470  0.49720  Biso   1.000  O
  O10      1.0000 0.69640  0.86430  0.49330  Biso   1.000  O
  C17      1.0000 0.65780  0.91080  0.46500  Biso   1.000  C
  O11      1.0000 0.36930  0.03340  0.08410  Biso   1.000  O
  O12      1.0000 0.14500  0.25950  0.10920  Biso   1.000  O
  O13      1.0000 0.98390  0.23990  0.11820  Biso   1.000  O
  C18      1.0000 0.07320  0.22500  0.11110  Biso   1.000  C
  C19      1.0000 0.10150  0.16350  0.10110  Biso   1.000  C
  Tb2      1.0000 0.55756  0.15650  0.11083  Biso   1.000  Tb
  O14      1.0000 0.56570  0.06170  0.20630  Biso   1.000  O
  C20      1.0000 0.16280  0.05230  0.08200  Biso   1.000  C
  H7       1.0000 0.18370  0.01560  0.07200  Biso   1.000  H
  C21      1.0000 0.23200  0.09450  0.09390  Biso   1.000  C
  C22      1.0000 0.20030  0.15030  0.10030  Biso   1.000  C
  H8       1.0000 0.24760  0.17870  0.10400  Biso   1.000  H
  C23      1.0000 0.34360  0.08300  0.09560  Biso   1.000  C
  C24      1.0000 0.06060  0.06520  0.08510  Biso   1.000  C
  O15      1.0000 0.69590  0.11600  0.20470  Biso   1.000  O
  C25      1.0000 0.81980  0.02730  0.28250  Biso   1.000  C
  H9       1.0000 0.85490  0.05550  0.24910  Biso   1.000  H
  C26      1.0000 0.66340  0.98920  0.34510  Biso   1.000  C
  H10      1.0000 0.59400  0.99120  0.34850  Biso   1.000  H
  O16      1.0000 0.39910  0.12390  0.10490  Biso   1.000  O
  C27      1.0000 0.02950  0.12080  0.09920  Biso   1.000  C
  H11      1.0000 0.96200  0.12910  0.10710  Biso   1.000  H
  N3       1.0000 0.97670  0.97780  0.33060  Biso   1.000  N
  N4       1.0000 0.98310  0.02400  0.08110  Biso   1.000  N
  C28      1.0000 0.71620  0.02760  0.28430  Biso   1.000  C
  C29      1.0000 0.71310  0.94850  0.39990  Biso   1.000  C
  C30      1.0000 0.87100  0.98350  0.33210  Biso   1.000  C
  C31      1.0000 0.81770  0.94380  0.38650  Biso   1.000  C
  H12      1.0000 0.85130  0.91350  0.41480  Biso   1.000  H
  C32      1.0000 0.65590  0.07170  0.22610  Biso   1.000  C
  O17      1.0000 0.92940  0.57530  0.99720  Biso   1.000  O
  O18      1.0000 0.80360  0.63570  0.99330  Biso   1.000  O
  C33      1.0000 0.84220  0.58920  0.96500  Biso   1.000  C
  O19      1.0000 0.13070  0.46660  0.58410  Biso   1.000  O
  O20      1.0000 0.35500  0.24050  0.60920  Biso   1.000  O
  O21      1.0000 0.51610  0.26010  0.61820  Biso   1.000  O
  C34      1.0000 0.42680  0.27500  0.61110  Biso   1.000  C
  C35      1.0000 0.39850  0.33650  0.60110  Biso   1.000  C
  Tb3      1.0000 0.94244  0.34350  0.61083  Biso   1.000  Tb
  O22      1.0000 0.93430  0.43830  0.70630  Biso   1.000  O
  C36      1.0000 0.33720  0.44770  0.58200  Biso   1.000  C
  H13      1.0000 0.31630  0.48440  0.57200  Biso   1.000  H
  C37      1.0000 0.26800  0.40550  0.59390  Biso   1.000  C
  C38      1.0000 0.29970  0.34970  0.60030  Biso   1.000  C
  H14      1.0000 0.25240  0.32130  0.60400  Biso   1.000  H
  C39      1.0000 0.15640  0.41700  0.59560  Biso   1.000  C
  C40      1.0000 0.43940  0.43480  0.58510  Biso   1.000  C
  O23      1.0000 0.80410  0.38400  0.70470  Biso   1.000  O
  C41      1.0000 0.68020  0.47270  0.78250  Biso   1.000  C
  H15      1.0000 0.64510  0.44450  0.74910  Biso   1.000  H
  C42      1.0000 0.83660  0.51080  0.84510  Biso   1.000  C
  H16      1.0000 0.90600  0.50880  0.84850  Biso   1.000  H
  O24      1.0000 0.10090  0.37610  0.60490  Biso   1.000  O
  C43      1.0000 0.47050  0.37920  0.59920  Biso   1.000  C
  H17      1.0000 0.53800  0.37090  0.60710  Biso   1.000  H
  N5       1.0000 0.52330  0.52220  0.83060  Biso   1.000  N
  N6       1.0000 0.51690  0.47600  0.58110  Biso   1.000  N
  C44      1.0000 0.78380  0.47240  0.78430  Biso   1.000  C
  C45      1.0000 0.78690  0.55150  0.89990  Biso   1.000  C
  C46      1.0000 0.62900  0.51650  0.83210  Biso   1.000  C
  C47      1.0000 0.68230  0.55620  0.88650  Biso   1.000  C
  H18      1.0000 0.64870  0.58650  0.91480  Biso   1.000  H
  C48      1.0000 0.84410  0.42830  0.72610  Biso   1.000  C
  O25      1.0000 0.42940  0.07530  0.49720  Biso   1.000  O
  O26      1.0000 0.30360  0.13570  0.49330  Biso   1.000  O
  C49      1.0000 0.34220  0.08920  0.46500  Biso   1.000  C
  O27      1.0000 0.63070  0.96660  0.08410  Biso   1.000  O
  O28      1.0000 0.85500  0.74050  0.10920  Biso   1.000  O
  O29      1.0000 0.01610  0.76010  0.11820  Biso   1.000  O
  C50      1.0000 0.92680  0.77500  0.11110  Biso   1.000  C
  C51      1.0000 0.89850  0.83650  0.10110  Biso   1.000  C
  Tb4      1.0000 0.44244  0.84350  0.11083  Biso   1.000  Tb
  O30      1.0000 0.43430  0.93830  0.20630  Biso   1.000  O
  C52      1.0000 0.83720  0.94770  0.08200  Biso   1.000  C
  H19      1.0000 0.81630  0.98440  0.07200  Biso   1.000  H
  C53      1.0000 0.76800  0.90550  0.09390  Biso   1.000  C
  C54      1.0000 0.79970  0.84970  0.10030  Biso   1.000  C
  H20      1.0000 0.75240  0.82130  0.10400  Biso   1.000  H
  C55      1.0000 0.65640  0.91700  0.09560  Biso   1.000  C
  C56      1.0000 0.93940  0.93480  0.08510  Biso   1.000  C
  O31      1.0000 0.30410  0.88400  0.20470  Biso   1.000  O
  C57      1.0000 0.18020  0.97270  0.28250  Biso   1.000  C
  H21      1.0000 0.14510  0.94450  0.24910  Biso   1.000  H
  C58      1.0000 0.33660  0.01080  0.34510  Biso   1.000  C
  H22      1.0000 0.40600  0.00880  0.34850  Biso   1.000  H
  O32      1.0000 0.60090  0.87610  0.10490  Biso   1.000  O
  C59      1.0000 0.97050  0.87920  0.09920  Biso   1.000  C
  H23      1.0000 0.03800  0.87090  0.10710  Biso   1.000  H
  N7       1.0000 0.02330  0.02220  0.33060  Biso   1.000  N
  N8       1.0000 0.01690  0.97600  0.08110  Biso   1.000  N
  C60      1.0000 0.28380  0.97240  0.28430  Biso   1.000  C
  C61      1.0000 0.28690  0.05150  0.39990  Biso   1.000  C
  C62      1.0000 0.12900  0.01650  0.33210  Biso   1.000  C
  C63      1.0000 0.18230  0.05620  0.38650  Biso   1.000  C
  H24      1.0000 0.14870  0.08650  0.41480  Biso   1.000  H
  C64      1.0000 0.34410  0.92830  0.22610  Biso   1.000  C
  O33      1.0000 0.57060  0.07530  0.99720  Biso   1.000  O
  O34      1.0000 0.69640  0.13570  0.99330  Biso   1.000  O
  C65      1.0000 0.65780  0.08920  0.96500  Biso   1.000  C
  O35      1.0000 0.36930  0.96660  0.58410  Biso   1.000  O
  O36      1.0000 0.14500  0.74050  0.60920  Biso   1.000  O
  O37      1.0000 0.98390  0.76010  0.61820  Biso   1.000  O
  C66      1.0000 0.07320  0.77500  0.61110  Biso   1.000  C
  C67      1.0000 0.10150  0.83650  0.60110  Biso   1.000  C
  Tb5      1.0000 0.55756  0.84350  0.61083  Biso   1.000  Tb
  O38      1.0000 0.56570  0.93830  0.70630  Biso   1.000  O
  C68      1.0000 0.16280  0.94770  0.58200  Biso   1.000  C
  H25      1.0000 0.18370  0.98440  0.57200  Biso   1.000  H
  C69      1.0000 0.23200  0.90550  0.59390  Biso   1.000  C
  C70      1.0000 0.20030  0.84970  0.60030  Biso   1.000  C
  H26      1.0000 0.24760  0.82130  0.60400  Biso   1.000  H
  C71      1.0000 0.34360  0.91700  0.59560  Biso   1.000  C
  C72      1.0000 0.06060  0.93480  0.58510  Biso   1.000  C
  O39      1.0000 0.69590  0.88400  0.70470  Biso   1.000  O
  C73      1.0000 0.81980  0.97270  0.78250  Biso   1.000  C
  H27      1.0000 0.85490  0.94450  0.74910  Biso   1.000  H
  C74      1.0000 0.66340  0.01080  0.84510  Biso   1.000  C
  H28      1.0000 0.59400  0.00880  0.84850  Biso   1.000  H
  O40      1.0000 0.39910  0.87610  0.60490  Biso   1.000  O
  C75      1.0000 0.02950  0.87920  0.59920  Biso   1.000  C
  H29      1.0000 0.96200  0.87090  0.60710  Biso   1.000  H
  N9       1.0000 0.97670  0.02220  0.83060  Biso   1.000  N
  N10      1.0000 0.98310  0.97600  0.58110  Biso   1.000  N
  C76      1.0000 0.71620  0.97240  0.78430  Biso   1.000  C
  C77      1.0000 0.71310  0.05150  0.89990  Biso   1.000  C
  C78      1.0000 0.87100  0.01650  0.83210  Biso   1.000  C
  C79      1.0000 0.81770  0.05620  0.88650  Biso   1.000  C
  H30      1.0000 0.85130  0.08650  0.91480  Biso   1.000  H
  C80      1.0000 0.65590  0.92830  0.72610  Biso   1.000  C
  O41      1.0000 0.07060  0.57530  0.49720  Biso   1.000  O
  O42      1.0000 0.19640  0.63570  0.49330  Biso   1.000  O
  C81      1.0000 0.15780  0.58920  0.46500  Biso   1.000  C
  O43      1.0000 0.86930  0.46660  0.08410  Biso   1.000  O
  O44      1.0000 0.64500  0.24050  0.10920  Biso   1.000  O
  O45      1.0000 0.48390  0.26010  0.11820  Biso   1.000  O
  C82      1.0000 0.57320  0.27500  0.11110  Biso   1.000  C
  C83      1.0000 0.60150  0.33650  0.10110  Biso   1.000  C
  Tb6      1.0000 0.05756  0.34350  0.11083  Biso   1.000  Tb
  O46      1.0000 0.06570  0.43830  0.20630  Biso   1.000  O
  C84      1.0000 0.66280  0.44770  0.08200  Biso   1.000  C
  H31      1.0000 0.68370  0.48440  0.07200  Biso   1.000  H
  C85      1.0000 0.73200  0.40550  0.09390  Biso   1.000  C
  C86      1.0000 0.70030  0.34970  0.10030  Biso   1.000  C
  H32      1.0000 0.74760  0.32130  0.10400  Biso   1.000  H
  C87      1.0000 0.84360  0.41700  0.09560  Biso   1.000  C
  C88      1.0000 0.56060  0.43480  0.08510  Biso   1.000  C
  O47      1.0000 0.19590  0.38400  0.20470  Biso   1.000  O
  C89      1.0000 0.31980  0.47270  0.28250  Biso   1.000  C
  H33      1.0000 0.35490  0.44450  0.24910  Biso   1.000  H
  C90      1.0000 0.16340  0.51080  0.34510  Biso   1.000  C
  H34      1.0000 0.09400  0.50880  0.34850  Biso   1.000  H
  O48      1.0000 0.89910  0.37610  0.10490  Biso   1.000  O
  C91      1.0000 0.52950  0.37920  0.09920  Biso   1.000  C
  H35      1.0000 0.46200  0.37090  0.10710  Biso   1.000  H
  N11      1.0000 0.47670  0.52220  0.33060  Biso   1.000  N
  N12      1.0000 0.48310  0.47600  0.08110  Biso   1.000  N
  C92      1.0000 0.21620  0.47240  0.28430  Biso   1.000  C
  C93      1.0000 0.21310  0.55150  0.39990  Biso   1.000  C
  C94      1.0000 0.37100  0.51650  0.33210  Biso   1.000  C
  C95      1.0000 0.31770  0.55620  0.38650  Biso   1.000  C
  H36      1.0000 0.35130  0.58650  0.41480  Biso   1.000  H
  C96      1.0000 0.15590  0.42830  0.22610  Biso   1.000  C
  O49      1.0000 0.42940  0.92470  0.99720  Biso   1.000  O
  O50      1.0000 0.30360  0.86430  0.99330  Biso   1.000  O
  C97      1.0000 0.34220  0.91080  0.96500  Biso   1.000  C
  O51      1.0000 0.63070  0.03340  0.58410  Biso   1.000  O
  O52      1.0000 0.85500  0.25950  0.60920  Biso   1.000  O
  O53      1.0000 0.01610  0.23990  0.61820  Biso   1.000  O
  C98      1.0000 0.92680  0.22500  0.61110  Biso   1.000  C
  C99      1.0000 0.89850  0.16350  0.60110  Biso   1.000  C
  Tb7      1.0000 0.44244  0.15650  0.61083  Biso   1.000  Tb
  O54      1.0000 0.43430  0.06170  0.70630  Biso   1.000  O
  C100     1.0000 0.83720  0.05230  0.58200  Biso   1.000  C
  H37      1.0000 0.81630  0.01560  0.57200  Biso   1.000  H
  C101     1.0000 0.76800  0.09450  0.59390  Biso   1.000  C
  C102     1.0000 0.79970  0.15030  0.60030  Biso   1.000  C
  H38      1.0000 0.75240  0.17870  0.60400  Biso   1.000  H
  C103     1.0000 0.65640  0.08300  0.59560  Biso   1.000  C
  C104     1.0000 0.93940  0.06520  0.58510  Biso   1.000  C
  O55      1.0000 0.30410  0.11600  0.70470  Biso   1.000  O
  C105     1.0000 0.18020  0.02730  0.78250  Biso   1.000  C
  H39      1.0000 0.14510  0.05550  0.74910  Biso   1.000  H
  C106     1.0000 0.33660  0.98920  0.84510  Biso   1.000  C
  H40      1.0000 0.40600  0.99120  0.84850  Biso   1.000  H
  O56      1.0000 0.60090  0.12390  0.60490  Biso   1.000  O
  C107     1.0000 0.97050  0.12080  0.59920  Biso   1.000  C
  H41      1.0000 0.03800  0.12910  0.60710  Biso   1.000  H
  N13      1.0000 0.02330  0.97780  0.83060  Biso   1.000  N
  N14      1.0000 0.01690  0.02400  0.58110  Biso   1.000  N
  C108     1.0000 0.28380  0.02760  0.78430  Biso   1.000  C
  C109     1.0000 0.28690  0.94850  0.89990  Biso   1.000  C
  C110     1.0000 0.12900  0.98350  0.83210  Biso   1.000  C
  C111     1.0000 0.18230  0.94380  0.88650  Biso   1.000  C
  H42      1.0000 0.14870  0.91350  0.91480  Biso   1.000  H
  C112     1.0000 0.34410  0.07170  0.72610  Biso   1.000  C
  O57      1.0000 0.92940  0.42470  0.49720  Biso   1.000  O
  O58      1.0000 0.80360  0.36430  0.49330  Biso   1.000  O
  C113     1.0000 0.84220  0.41080  0.46500  Biso   1.000  C
  O59      1.0000 0.13070  0.53340  0.08410  Biso   1.000  O
  O60      1.0000 0.35500  0.75950  0.10920  Biso   1.000  O
  O61      1.0000 0.51610  0.73990  0.11820  Biso   1.000  O
  C114     1.0000 0.42680  0.72500  0.11110  Biso   1.000  C
  C115     1.0000 0.39850  0.66350  0.10110  Biso   1.000  C
  Tb8      1.0000 0.94244  0.65650  0.11083  Biso   1.000  Tb
  O62      1.0000 0.93430  0.56170  0.20630  Biso   1.000  O
  C116     1.0000 0.33720  0.55230  0.08200  Biso   1.000  C
  H43      1.0000 0.31630  0.51560  0.07200  Biso   1.000  H
  C117     1.0000 0.26800  0.59450  0.09390  Biso   1.000  C
  C118     1.0000 0.29970  0.65030  0.10030  Biso   1.000  C
  H44      1.0000 0.25240  0.67870  0.10400  Biso   1.000  H
  C119     1.0000 0.15640  0.58300  0.09560  Biso   1.000  C
  C120     1.0000 0.43940  0.56520  0.08510  Biso   1.000  C
  O63      1.0000 0.80410  0.61600  0.20470  Biso   1.000  O
  C121     1.0000 0.68020  0.52730  0.28250  Biso   1.000  C
  H45      1.0000 0.64510  0.55550  0.24910  Biso   1.000  H
  C122     1.0000 0.83660  0.48920  0.34510  Biso   1.000  C
  H46      1.0000 0.90600  0.49120  0.34850  Biso   1.000  H
  O64      1.0000 0.10090  0.62390  0.10490  Biso   1.000  O
  C123     1.0000 0.47050  0.62080  0.09920  Biso   1.000  C
  H47      1.0000 0.53800  0.62910  0.10710  Biso   1.000  H
  N15      1.0000 0.52330  0.47780  0.33060  Biso   1.000  N
  N16      1.0000 0.51690  0.52400  0.08110  Biso   1.000  N
  C124     1.0000 0.78380  0.52760  0.28430  Biso   1.000  C
  C125     1.0000 0.78690  0.44850  0.39990  Biso   1.000  C
  C126     1.0000 0.62900  0.48350  0.33210  Biso   1.000  C
  C127     1.0000 0.68230  0.44380  0.38650  Biso   1.000  C
  H48      1.0000 0.64870  0.41350  0.41480  Biso   1.000  H
  C128     1.0000 0.84410  0.57170  0.22610  Biso   1.000  C
  Zn1      1.0000 0.00000  0.50000  0.60940  Biso   1.000  Zn
  Zn2      1.0000 0.50000  0.00000  0.10940  Biso   1.000  Zn
  Zn3      1.0000 0.50000  0.00000  0.60940  Biso   1.000  Zn
  Zn4      1.0000 0.00000  0.50000  0.10940  Biso   1.000  Zn
