data_image0
_cell_length_a       13.39
_cell_length_b       24.074
_cell_length_c       13.179
_cell_angle_alpha    90
_cell_angle_beta     90
_cell_angle_gamma    90

_symmetry_space_group_name_H-M    "P 1"
_symmetry_int_tables_number       1

loop_
  _symmetry_equiv_pos_as_xyz
  'x, y, z'

loop_
  _atom_site_label
  _atom_site_occupancy
  _atom_site_fract_x
  _atom_site_fract_y
  _atom_site_fract_z
  _atom_site_thermal_displace_type
  _atom_site_B_iso_or_equiv
  _atom_site_type_symbol
  O1       1.0000 0.29860  0.11240  0.20860  Biso   1.000  O
  O2       1.0000 0.43250  0.06120  0.21180  Biso   1.000  O
  C1       1.0000 0.34130  0.06990  0.23150  Biso   1.000  C
  Sm1      1.0000 0.44108  0.84298  0.61653  Biso   1.000  Sm
  O3       1.0000 0.51300  0.73880  0.62590  Biso   1.000  O
  O4       1.0000 0.35360  0.75740  0.61030  Biso   1.000  O
  C2       1.0000 0.33550  0.55230  0.58450  Biso   1.000  C
  H1       1.0000 0.31590  0.51580  0.57290  Biso   1.000  H
  C3       1.0000 0.39710  0.66150  0.60980  Biso   1.000  C
  C4       1.0000 0.26310  0.59330  0.59660  Biso   1.000  C
  C5       1.0000 0.29860  0.64760  0.60430  Biso   1.000  C
  H2       1.0000 0.25190  0.67620  0.60580  Biso   1.000  H
  O5       1.0000 0.13130  0.53230  0.58800  Biso   1.000  O
  C6       1.0000 0.15650  0.58160  0.59980  Biso   1.000  C
  C7       1.0000 0.46900  0.61920  0.60310  Biso   1.000  C
  H3       1.0000 0.53660  0.62770  0.60770  Biso   1.000  H
  C8       1.0000 0.43920  0.56560  0.58970  Biso   1.000  C
  C9       1.0000 0.42680  0.72300  0.62150  Biso   1.000  C
  C10      1.0000 0.34060  0.90950  0.46730  Biso   1.000  C
  C11      1.0000 0.33810  0.98890  0.34850  Biso   1.000  C
  H4       1.0000 0.40730  0.99100  0.35330  Biso   1.000  H
  O6       1.0000 0.09920  0.62210  0.61500  Biso   1.000  O
  N1       1.0000 0.51520  0.52390  0.58500  Biso   1.000  N
  C12      1.0000 0.28340  0.02730  0.28900  Biso   1.000  C
  C13      1.0000 0.28430  0.94760  0.40020  Biso   1.000  C
  O7       1.0000 0.30260  0.86360  0.49610  Biso   1.000  O
  O8       1.0000 0.42890  0.92550  0.50050  Biso   1.000  O
  C14      1.0000 0.17920  0.94340  0.39040  Biso   1.000  C
  H5       1.0000 0.14510  0.91380  0.41980  Biso   1.000  H
  C15      1.0000 0.17930  0.02680  0.28870  Biso   1.000  C
  H6       1.0000 0.14370  0.05500  0.25670  Biso   1.000  H
  C16      1.0000 0.12870  0.98280  0.33770  Biso   1.000  C
  N2       1.0000 0.02410  0.97690  0.33630  Biso   1.000  N
  O9       1.0000 0.79860  0.61240  0.70860  Biso   1.000  O
  O10      1.0000 0.93250  0.56120  0.71180  Biso   1.000  O
  C17      1.0000 0.84130  0.56990  0.73150  Biso   1.000  C
  Sm2      1.0000 0.94108  0.34298  0.11653  Biso   1.000  Sm
  O11      1.0000 0.01300  0.23880  0.12590  Biso   1.000  O
  O12      1.0000 0.85360  0.25740  0.11030  Biso   1.000  O
  C18      1.0000 0.83550  0.05230  0.08450  Biso   1.000  C
  H7       1.0000 0.81590  0.01580  0.07290  Biso   1.000  H
  C19      1.0000 0.89710  0.16150  0.10980  Biso   1.000  C
  C20      1.0000 0.76310  0.09330  0.09660  Biso   1.000  C
  C21      1.0000 0.79860  0.14760  0.10430  Biso   1.000  C
  H8       1.0000 0.75190  0.17620  0.10580  Biso   1.000  H
  O13      1.0000 0.63130  0.03230  0.08800  Biso   1.000  O
  C22      1.0000 0.65650  0.08160  0.09980  Biso   1.000  C
  C23      1.0000 0.96900  0.11920  0.10310  Biso   1.000  C
  H9       1.0000 0.03660  0.12770  0.10770  Biso   1.000  H
  C24      1.0000 0.93920  0.06560  0.08970  Biso   1.000  C
  C25      1.0000 0.92680  0.22300  0.12150  Biso   1.000  C
  C26      1.0000 0.84060  0.40950  0.96730  Biso   1.000  C
  C27      1.0000 0.83810  0.48890  0.84850  Biso   1.000  C
  H10      1.0000 0.90730  0.49100  0.85330  Biso   1.000  H
  O14      1.0000 0.59920  0.12210  0.11500  Biso   1.000  O
  N3       1.0000 0.01520  0.02390  0.08500  Biso   1.000  N
  C28      1.0000 0.78340  0.52730  0.78900  Biso   1.000  C
  C29      1.0000 0.78430  0.44760  0.90020  Biso   1.000  C
  O15      1.0000 0.80260  0.36360  0.99610  Biso   1.000  O
  O16      1.0000 0.92890  0.42550  0.00050  Biso   1.000  O
  C30      1.0000 0.67920  0.44340  0.89040  Biso   1.000  C
  H11      1.0000 0.64510  0.41380  0.91980  Biso   1.000  H
  C31      1.0000 0.67930  0.52680  0.78870  Biso   1.000  C
  H12      1.0000 0.64370  0.55500  0.75670  Biso   1.000  H
  C32      1.0000 0.62870  0.48280  0.83770  Biso   1.000  C
  N4       1.0000 0.52410  0.47690  0.83630  Biso   1.000  N
  O17      1.0000 0.70140  0.88760  0.20860  Biso   1.000  O
  O18      1.0000 0.56750  0.93880  0.21180  Biso   1.000  O
  C33      1.0000 0.65870  0.93010  0.23150  Biso   1.000  C
  Sm3      1.0000 0.55892  0.15702  0.61653  Biso   1.000  Sm
  O19      1.0000 0.48700  0.26120  0.62590  Biso   1.000  O
  O20      1.0000 0.64640  0.24260  0.61030  Biso   1.000  O
  C34      1.0000 0.66450  0.44770  0.58450  Biso   1.000  C
  H13      1.0000 0.68410  0.48420  0.57290  Biso   1.000  H
  C35      1.0000 0.60290  0.33850  0.60980  Biso   1.000  C
  C36      1.0000 0.73690  0.40670  0.59660  Biso   1.000  C
  C37      1.0000 0.70140  0.35240  0.60430  Biso   1.000  C
  H14      1.0000 0.74810  0.32380  0.60580  Biso   1.000  H
  O21      1.0000 0.86870  0.46770  0.58800  Biso   1.000  O
  C38      1.0000 0.84350  0.41840  0.59980  Biso   1.000  C
  C39      1.0000 0.53100  0.38080  0.60310  Biso   1.000  C
  H15      1.0000 0.46340  0.37230  0.60770  Biso   1.000  H
  C40      1.0000 0.56080  0.43440  0.58970  Biso   1.000  C
  C41      1.0000 0.57320  0.27700  0.62150  Biso   1.000  C
  C42      1.0000 0.65940  0.09050  0.46730  Biso   1.000  C
  C43      1.0000 0.66190  0.01110  0.34850  Biso   1.000  C
  H16      1.0000 0.59270  0.00900  0.35330  Biso   1.000  H
  O22      1.0000 0.90080  0.37790  0.61500  Biso   1.000  O
  N5       1.0000 0.48480  0.47610  0.58500  Biso   1.000  N
  C44      1.0000 0.71660  0.97270  0.28900  Biso   1.000  C
  C45      1.0000 0.71570  0.05240  0.40020  Biso   1.000  C
  O23      1.0000 0.69740  0.13640  0.49610  Biso   1.000  O
  O24      1.0000 0.57110  0.07450  0.50050  Biso   1.000  O
  C46      1.0000 0.82080  0.05660  0.39040  Biso   1.000  C
  H17      1.0000 0.85490  0.08620  0.41980  Biso   1.000  H
  C47      1.0000 0.82070  0.97320  0.28870  Biso   1.000  C
  H18      1.0000 0.85630  0.94500  0.25670  Biso   1.000  H
  C48      1.0000 0.87130  0.01720  0.33770  Biso   1.000  C
  N6       1.0000 0.97590  0.02310  0.33630  Biso   1.000  N
  O25      1.0000 0.20140  0.38760  0.70860  Biso   1.000  O
  O26      1.0000 0.06750  0.43880  0.71180  Biso   1.000  O
  C49      1.0000 0.15870  0.43010  0.73150  Biso   1.000  C
  Sm4      1.0000 0.05892  0.65702  0.11653  Biso   1.000  Sm
  O27      1.0000 0.98700  0.76120  0.12590  Biso   1.000  O
  O28      1.0000 0.14640  0.74260  0.11030  Biso   1.000  O
  C50      1.0000 0.16450  0.94770  0.08450  Biso   1.000  C
  H19      1.0000 0.18410  0.98420  0.07290  Biso   1.000  H
  C51      1.0000 0.10290  0.83850  0.10980  Biso   1.000  C
  C52      1.0000 0.23690  0.90670  0.09660  Biso   1.000  C
  C53      1.0000 0.20140  0.85240  0.10430  Biso   1.000  C
  H20      1.0000 0.24810  0.82380  0.10580  Biso   1.000  H
  O29      1.0000 0.36870  0.96770  0.08800  Biso   1.000  O
  C54      1.0000 0.34350  0.91840  0.09980  Biso   1.000  C
  C55      1.0000 0.03100  0.88080  0.10310  Biso   1.000  C
  H21      1.0000 0.96340  0.87230  0.10770  Biso   1.000  H
  C56      1.0000 0.06080  0.93440  0.08970  Biso   1.000  C
  C57      1.0000 0.07320  0.77700  0.12150  Biso   1.000  C
  C58      1.0000 0.15940  0.59050  0.96730  Biso   1.000  C
  C59      1.0000 0.16190  0.51110  0.84850  Biso   1.000  C
  H22      1.0000 0.09270  0.50900  0.85330  Biso   1.000  H
  O30      1.0000 0.40080  0.87790  0.11500  Biso   1.000  O
  N7       1.0000 0.98480  0.97610  0.08500  Biso   1.000  N
  C60      1.0000 0.21660  0.47270  0.78900  Biso   1.000  C
  C61      1.0000 0.21570  0.55240  0.90020  Biso   1.000  C
  O31      1.0000 0.19740  0.63640  0.99610  Biso   1.000  O
  O32      1.0000 0.07110  0.57450  0.00050  Biso   1.000  O
  C62      1.0000 0.32080  0.55660  0.89040  Biso   1.000  C
  H23      1.0000 0.35490  0.58620  0.91980  Biso   1.000  H
  C63      1.0000 0.32070  0.47320  0.78870  Biso   1.000  C
  H24      1.0000 0.35630  0.44500  0.75670  Biso   1.000  H
  C64      1.0000 0.37130  0.51720  0.83770  Biso   1.000  C
  N8       1.0000 0.47590  0.52310  0.83630  Biso   1.000  N
  O33      1.0000 0.79860  0.38760  0.20860  Biso   1.000  O
  O34      1.0000 0.93250  0.43880  0.21180  Biso   1.000  O
  C65      1.0000 0.84130  0.43010  0.23150  Biso   1.000  C
  Sm5      1.0000 0.94108  0.65702  0.61653  Biso   1.000  Sm
  O35      1.0000 0.01300  0.76120  0.62590  Biso   1.000  O
  O36      1.0000 0.85360  0.74260  0.61030  Biso   1.000  O
  C66      1.0000 0.83550  0.94770  0.58450  Biso   1.000  C
  H25      1.0000 0.81590  0.98420  0.57290  Biso   1.000  H
  C67      1.0000 0.89710  0.83850  0.60980  Biso   1.000  C
  C68      1.0000 0.76310  0.90670  0.59660  Biso   1.000  C
  C69      1.0000 0.79860  0.85240  0.60430  Biso   1.000  C
  H26      1.0000 0.75190  0.82380  0.60580  Biso   1.000  H
  O37      1.0000 0.63130  0.96770  0.58800  Biso   1.000  O
  C70      1.0000 0.65650  0.91840  0.59980  Biso   1.000  C
  C71      1.0000 0.96900  0.88080  0.60310  Biso   1.000  C
  H27      1.0000 0.03660  0.87230  0.60770  Biso   1.000  H
  C72      1.0000 0.93920  0.93440  0.58970  Biso   1.000  C
  C73      1.0000 0.92680  0.77700  0.62150  Biso   1.000  C
  C74      1.0000 0.84060  0.59050  0.46730  Biso   1.000  C
  C75      1.0000 0.83810  0.51110  0.34850  Biso   1.000  C
  H28      1.0000 0.90730  0.50900  0.35330  Biso   1.000  H
  O38      1.0000 0.59920  0.87790  0.61500  Biso   1.000  O
  N9       1.0000 0.01520  0.97610  0.58500  Biso   1.000  N
  C76      1.0000 0.78340  0.47270  0.28900  Biso   1.000  C
  C77      1.0000 0.78430  0.55240  0.40020  Biso   1.000  C
  O39      1.0000 0.80260  0.63640  0.49610  Biso   1.000  O
  O40      1.0000 0.92890  0.57450  0.50050  Biso   1.000  O
  C78      1.0000 0.67920  0.55660  0.39040  Biso   1.000  C
  H29      1.0000 0.64510  0.58620  0.41980  Biso   1.000  H
  C79      1.0000 0.67930  0.47320  0.28870  Biso   1.000  C
  H30      1.0000 0.64370  0.44500  0.25670  Biso   1.000  H
  C80      1.0000 0.62870  0.51720  0.33770  Biso   1.000  C
  N10      1.0000 0.52410  0.52310  0.33630  Biso   1.000  N
  O41      1.0000 0.29860  0.88760  0.70860  Biso   1.000  O
  O42      1.0000 0.43250  0.93880  0.71180  Biso   1.000  O
  C81      1.0000 0.34130  0.93010  0.73150  Biso   1.000  C
  Sm6      1.0000 0.44108  0.15702  0.11653  Biso   1.000  Sm
  O43      1.0000 0.51300  0.26120  0.12590  Biso   1.000  O
  O44      1.0000 0.35360  0.24260  0.11030  Biso   1.000  O
  C82      1.0000 0.33550  0.44770  0.08450  Biso   1.000  C
  H31      1.0000 0.31590  0.48420  0.07290  Biso   1.000  H
  C83      1.0000 0.39710  0.33850  0.10980  Biso   1.000  C
  C84      1.0000 0.26310  0.40670  0.09660  Biso   1.000  C
  C85      1.0000 0.29860  0.35240  0.10430  Biso   1.000  C
  H32      1.0000 0.25190  0.32380  0.10580  Biso   1.000  H
  O45      1.0000 0.13130  0.46770  0.08800  Biso   1.000  O
  C86      1.0000 0.15650  0.41840  0.09980  Biso   1.000  C
  C87      1.0000 0.46900  0.38080  0.10310  Biso   1.000  C
  H33      1.0000 0.53660  0.37230  0.10770  Biso   1.000  H
  C88      1.0000 0.43920  0.43440  0.08970  Biso   1.000  C
  C89      1.0000 0.42680  0.27700  0.12150  Biso   1.000  C
  C90      1.0000 0.34060  0.09050  0.96730  Biso   1.000  C
  C91      1.0000 0.33810  0.01110  0.84850  Biso   1.000  C
  H34      1.0000 0.40730  0.00900  0.85330  Biso   1.000  H
  O46      1.0000 0.09920  0.37790  0.11500  Biso   1.000  O
  N11      1.0000 0.51520  0.47610  0.08500  Biso   1.000  N
  C92      1.0000 0.28340  0.97270  0.78900  Biso   1.000  C
  C93      1.0000 0.28430  0.05240  0.90020  Biso   1.000  C
  O47      1.0000 0.30260  0.13640  0.99610  Biso   1.000  O
  O48      1.0000 0.42890  0.07450  0.00050  Biso   1.000  O
  C94      1.0000 0.17920  0.05660  0.89040  Biso   1.000  C
  H35      1.0000 0.14510  0.08620  0.91980  Biso   1.000  H
  C95      1.0000 0.17930  0.97320  0.78870  Biso   1.000  C
  H36      1.0000 0.14370  0.94500  0.75670  Biso   1.000  H
  C96      1.0000 0.12870  0.01720  0.83770  Biso   1.000  C
  N12      1.0000 0.02410  0.02310  0.83630  Biso   1.000  N
  O49      1.0000 0.20140  0.61240  0.20860  Biso   1.000  O
  O50      1.0000 0.06750  0.56120  0.21180  Biso   1.000  O
  C97      1.0000 0.15870  0.56990  0.23150  Biso   1.000  C
  Sm7      1.0000 0.05892  0.34298  0.61653  Biso   1.000  Sm
  O51      1.0000 0.98700  0.23880  0.62590  Biso   1.000  O
  O52      1.0000 0.14640  0.25740  0.61030  Biso   1.000  O
  C98      1.0000 0.16450  0.05230  0.58450  Biso   1.000  C
  H37      1.0000 0.18410  0.01580  0.57290  Biso   1.000  H
  C99      1.0000 0.10290  0.16150  0.60980  Biso   1.000  C
  C100     1.0000 0.23690  0.09330  0.59660  Biso   1.000  C
  C101     1.0000 0.20140  0.14760  0.60430  Biso   1.000  C
  H38      1.0000 0.24810  0.17620  0.60580  Biso   1.000  H
  O53      1.0000 0.36870  0.03230  0.58800  Biso   1.000  O
  C102     1.0000 0.34350  0.08160  0.59980  Biso   1.000  C
  C103     1.0000 0.03100  0.11920  0.60310  Biso   1.000  C
  H39      1.0000 0.96340  0.12770  0.60770  Biso   1.000  H
  C104     1.0000 0.06080  0.06560  0.58970  Biso   1.000  C
  C105     1.0000 0.07320  0.22300  0.62150  Biso   1.000  C
  C106     1.0000 0.15940  0.40950  0.46730  Biso   1.000  C
  C107     1.0000 0.16190  0.48890  0.34850  Biso   1.000  C
  H40      1.0000 0.09270  0.49100  0.35330  Biso   1.000  H
  O54      1.0000 0.40080  0.12210  0.61500  Biso   1.000  O
  N13      1.0000 0.98480  0.02390  0.58500  Biso   1.000  N
  C108     1.0000 0.21660  0.52730  0.28900  Biso   1.000  C
  C109     1.0000 0.21570  0.44760  0.40020  Biso   1.000  C
  O55      1.0000 0.19740  0.36360  0.49610  Biso   1.000  O
  O56      1.0000 0.07110  0.42550  0.50050  Biso   1.000  O
  C110     1.0000 0.32080  0.44340  0.39040  Biso   1.000  C
  H41      1.0000 0.35490  0.41380  0.41980  Biso   1.000  H
  C111     1.0000 0.32070  0.52680  0.28870  Biso   1.000  C
  H42      1.0000 0.35630  0.55500  0.25670  Biso   1.000  H
  C112     1.0000 0.37130  0.48280  0.33770  Biso   1.000  C
  N14      1.0000 0.47590  0.47690  0.33630  Biso   1.000  N
  O57      1.0000 0.70140  0.11240  0.70860  Biso   1.000  O
  O58      1.0000 0.56750  0.06120  0.71180  Biso   1.000  O
  C113     1.0000 0.65870  0.06990  0.73150  Biso   1.000  C
  Sm8      1.0000 0.55892  0.84298  0.11653  Biso   1.000  Sm
  O59      1.0000 0.48700  0.73880  0.12590  Biso   1.000  O
  O60      1.0000 0.64640  0.75740  0.11030  Biso   1.000  O
  C114     1.0000 0.66450  0.55230  0.08450  Biso   1.000  C
  H43      1.0000 0.68410  0.51580  0.07290  Biso   1.000  H
  C115     1.0000 0.60290  0.66150  0.10980  Biso   1.000  C
  C116     1.0000 0.73690  0.59330  0.09660  Biso   1.000  C
  C117     1.0000 0.70140  0.64760  0.10430  Biso   1.000  C
  H44      1.0000 0.74810  0.67620  0.10580  Biso   1.000  H
  O61      1.0000 0.86870  0.53230  0.08800  Biso   1.000  O
  C118     1.0000 0.84350  0.58160  0.09980  Biso   1.000  C
  C119     1.0000 0.53100  0.61920  0.10310  Biso   1.000  C
  H45      1.0000 0.46340  0.62770  0.10770  Biso   1.000  H
  C120     1.0000 0.56080  0.56560  0.08970  Biso   1.000  C
  C121     1.0000 0.57320  0.72300  0.12150  Biso   1.000  C
  C122     1.0000 0.65940  0.90950  0.96730  Biso   1.000  C
  C123     1.0000 0.66190  0.98890  0.84850  Biso   1.000  C
  H46      1.0000 0.59270  0.99100  0.85330  Biso   1.000  H
  O62      1.0000 0.90080  0.62210  0.11500  Biso   1.000  O
  N15      1.0000 0.48480  0.52390  0.08500  Biso   1.000  N
  C124     1.0000 0.71660  0.02730  0.78900  Biso   1.000  C
  C125     1.0000 0.71570  0.94760  0.90020  Biso   1.000  C
  O63      1.0000 0.69740  0.86360  0.99610  Biso   1.000  O
  O64      1.0000 0.57110  0.92550  0.00050  Biso   1.000  O
  C126     1.0000 0.82080  0.94340  0.89040  Biso   1.000  C
  H47      1.0000 0.85490  0.91380  0.91980  Biso   1.000  H
  C127     1.0000 0.82070  0.02680  0.78870  Biso   1.000  C
  H48      1.0000 0.85630  0.05500  0.75670  Biso   1.000  H
  C128     1.0000 0.87130  0.98280  0.83770  Biso   1.000  C
  N16      1.0000 0.97590  0.97690  0.83630  Biso   1.000  N
  Zn1      1.0000 0.00000  0.50000  0.61790  Biso   1.000  Zn
  Zn2      1.0000 0.50000  0.00000  0.11790  Biso   1.000  Zn
  Zn3      1.0000 0.50000  0.00000  0.61790  Biso   1.000  Zn
  Zn4      1.0000 0.00000  0.50000  0.11790  Biso   1.000  Zn
