data_image0
_cell_length_a       16.2798
_cell_length_b       13.9248
_cell_length_c       18.0439
_cell_angle_alpha    90
_cell_angle_beta     106.082
_cell_angle_gamma    90

_symmetry_space_group_name_H-M    "P 1"
_symmetry_int_tables_number       1

loop_
  _symmetry_equiv_pos_as_xyz
  'x, y, z'

loop_
  _atom_site_label
  _atom_site_occupancy
  _atom_site_fract_x
  _atom_site_fract_y
  _atom_site_fract_z
  _atom_site_thermal_displace_type
  _atom_site_B_iso_or_equiv
  _atom_site_type_symbol
  Cd1      1.0000 0.18856  0.29811  0.15835  Biso   1.000  Cd
  N1       1.0000 0.23377  0.36799  0.27650  Biso   1.000  N
  C1       1.0000 0.24464  0.40816  0.33350  Biso   1.000  C
  Ag1      1.0000 0.25097  0.49162  0.42973  Biso   1.000  Ag
  C2       1.0000 0.24325  0.57060  0.52439  Biso   1.000  C
  N2       1.0000 0.23361  0.61587  0.57412  Biso   1.000  N
  N3       1.0000 0.11421  0.16754  0.09809  Biso   1.000  N
  C3       1.0000 0.07535  0.10636  0.06337  Biso   1.000  C
  Ag2      1.0000 0.92795  0.52520  0.17695  Biso   1.000  Ag
  C4       1.0000 0.01142  0.42440  0.15564  Biso   1.000  C
  N4       1.0000 0.06325  0.37263  0.14924  Biso   1.000  N
  C5       1.0000 0.84994  0.63636  0.19195  Biso   1.000  C
  N5       1.0000 0.80265  0.69592  0.19322  Biso   1.000  N
  Cd2      1.0000 0.68856  0.79811  0.15835  Biso   1.000  Cd
  N6       1.0000 0.73377  0.86799  0.27650  Biso   1.000  N
  C6       1.0000 0.74464  0.90816  0.33350  Biso   1.000  C
  Ag3      1.0000 0.75097  0.99162  0.42973  Biso   1.000  Ag
  C7       1.0000 0.74325  0.07060  0.52439  Biso   1.000  C
  N7       1.0000 0.73361  0.11587  0.57412  Biso   1.000  N
  N8       1.0000 0.61421  0.66754  0.09809  Biso   1.000  N
  C8       1.0000 0.57535  0.60636  0.06337  Biso   1.000  C
  Ag4      1.0000 0.42795  0.02520  0.17695  Biso   1.000  Ag
  C9       1.0000 0.51142  0.92440  0.15564  Biso   1.000  C
  N9       1.0000 0.56325  0.87263  0.14924  Biso   1.000  N
  C10      1.0000 0.34994  0.13636  0.19195  Biso   1.000  C
  N10      1.0000 0.30265  0.19592  0.19322  Biso   1.000  N
  Cd3      1.0000 0.81144  0.29811  0.34165  Biso   1.000  Cd
  N11      1.0000 0.76623  0.36799  0.22350  Biso   1.000  N
  C11      1.0000 0.75536  0.40816  0.16650  Biso   1.000  C
  Ag5      1.0000 0.74903  0.49162  0.07027  Biso   1.000  Ag
  C12      1.0000 0.75675  0.57060  0.97561  Biso   1.000  C
  N12      1.0000 0.76639  0.61587  0.92588  Biso   1.000  N
  N13      1.0000 0.88579  0.16754  0.40191  Biso   1.000  N
  C13      1.0000 0.92465  0.10636  0.43663  Biso   1.000  C
  Ag6      1.0000 0.07205  0.52520  0.32305  Biso   1.000  Ag
  C14      1.0000 0.98858  0.42440  0.34436  Biso   1.000  C
  N14      1.0000 0.93675  0.37263  0.35076  Biso   1.000  N
  C15      1.0000 0.15006  0.63636  0.30805  Biso   1.000  C
  N15      1.0000 0.19735  0.69592  0.30678  Biso   1.000  N
  Cd4      1.0000 0.31144  0.79811  0.34165  Biso   1.000  Cd
  N16      1.0000 0.26623  0.86799  0.22350  Biso   1.000  N
  C16      1.0000 0.25536  0.90816  0.16650  Biso   1.000  C
  Ag7      1.0000 0.24903  0.99162  0.07027  Biso   1.000  Ag
  C17      1.0000 0.25675  0.07060  0.97561  Biso   1.000  C
  N17      1.0000 0.26639  0.11587  0.92588  Biso   1.000  N
  N18      1.0000 0.38579  0.66754  0.40191  Biso   1.000  N
  C18      1.0000 0.42465  0.60636  0.43663  Biso   1.000  C
  Ag8      1.0000 0.57205  0.02520  0.32305  Biso   1.000  Ag
  C19      1.0000 0.48858  0.92440  0.34436  Biso   1.000  C
  N19      1.0000 0.43675  0.87263  0.35076  Biso   1.000  N
  C20      1.0000 0.65006  0.13636  0.30805  Biso   1.000  C
  N20      1.0000 0.69735  0.19592  0.30678  Biso   1.000  N
  Cd5      1.0000 0.81144  0.70189  0.84165  Biso   1.000  Cd
  N21      1.0000 0.76623  0.63201  0.72350  Biso   1.000  N
  C21      1.0000 0.75536  0.59184  0.66650  Biso   1.000  C
  Ag9      1.0000 0.74903  0.50838  0.57027  Biso   1.000  Ag
  C22      1.0000 0.75675  0.42940  0.47561  Biso   1.000  C
  N22      1.0000 0.76639  0.38413  0.42588  Biso   1.000  N
  N23      1.0000 0.88579  0.83246  0.90191  Biso   1.000  N
  C23      1.0000 0.92465  0.89364  0.93663  Biso   1.000  C
  Ag10     1.0000 0.07205  0.47480  0.82305  Biso   1.000  Ag
  C24      1.0000 0.98858  0.57560  0.84436  Biso   1.000  C
  N24      1.0000 0.93675  0.62737  0.85076  Biso   1.000  N
  C25      1.0000 0.15006  0.36364  0.80805  Biso   1.000  C
  N25      1.0000 0.19735  0.30408  0.80678  Biso   1.000  N
  Cd6      1.0000 0.31144  0.20189  0.84165  Biso   1.000  Cd
  N26      1.0000 0.26623  0.13201  0.72350  Biso   1.000  N
  C26      1.0000 0.25536  0.09184  0.66650  Biso   1.000  C
  Ag11     1.0000 0.24903  0.00838  0.57027  Biso   1.000  Ag
  C27      1.0000 0.25675  0.92940  0.47561  Biso   1.000  C
  N27      1.0000 0.26639  0.88413  0.42588  Biso   1.000  N
  N28      1.0000 0.38579  0.33246  0.90191  Biso   1.000  N
  C28      1.0000 0.42465  0.39364  0.93663  Biso   1.000  C
  Ag12     1.0000 0.57205  0.97480  0.82305  Biso   1.000  Ag
  C29      1.0000 0.48858  0.07560  0.84436  Biso   1.000  C
  N29      1.0000 0.43675  0.12737  0.85076  Biso   1.000  N
  C30      1.0000 0.65006  0.86364  0.80805  Biso   1.000  C
  N30      1.0000 0.69735  0.80408  0.80678  Biso   1.000  N
  Cd7      1.0000 0.18856  0.70189  0.65835  Biso   1.000  Cd
  N31      1.0000 0.23377  0.63201  0.77650  Biso   1.000  N
  C31      1.0000 0.24464  0.59184  0.83350  Biso   1.000  C
  Ag13     1.0000 0.25097  0.50838  0.92973  Biso   1.000  Ag
  C32      1.0000 0.24325  0.42940  0.02439  Biso   1.000  C
  N32      1.0000 0.23361  0.38413  0.07412  Biso   1.000  N
  N33      1.0000 0.11421  0.83246  0.59809  Biso   1.000  N
  C33      1.0000 0.07535  0.89364  0.56337  Biso   1.000  C
  Ag14     1.0000 0.92795  0.47480  0.67695  Biso   1.000  Ag
  C34      1.0000 0.01142  0.57560  0.65564  Biso   1.000  C
  N34      1.0000 0.06325  0.62737  0.64924  Biso   1.000  N
  C35      1.0000 0.84994  0.36364  0.69195  Biso   1.000  C
  N35      1.0000 0.80265  0.30408  0.69322  Biso   1.000  N
  Cd8      1.0000 0.68856  0.20189  0.65835  Biso   1.000  Cd
  N36      1.0000 0.73377  0.13201  0.77650  Biso   1.000  N
  C36      1.0000 0.74464  0.09184  0.83350  Biso   1.000  C
  Ag15     1.0000 0.75097  0.00838  0.92973  Biso   1.000  Ag
  C37      1.0000 0.74325  0.92940  0.02439  Biso   1.000  C
  N37      1.0000 0.73361  0.88413  0.07412  Biso   1.000  N
  N38      1.0000 0.61421  0.33246  0.59809  Biso   1.000  N
  C38      1.0000 0.57535  0.39364  0.56337  Biso   1.000  C
  Ag16     1.0000 0.42795  0.97480  0.67695  Biso   1.000  Ag
  C39      1.0000 0.51142  0.07560  0.65564  Biso   1.000  C
  N39      1.0000 0.56325  0.12737  0.64924  Biso   1.000  N
  C40      1.0000 0.34994  0.86364  0.69195  Biso   1.000  C
  N40      1.0000 0.30265  0.80408  0.69322  Biso   1.000  N
  Ag17     1.0000 0.00000  0.00000  0.00000  Biso   1.000  Ag
  Ag18     1.0000 0.50000  0.50000  0.00000  Biso   1.000  Ag
  Ag19     1.0000 0.00000  0.00000  0.50000  Biso   1.000  Ag
  Ag20     1.0000 0.50000  0.50000  0.50000  Biso   1.000  Ag
