data_image0
_cell_length_a       37.06
_cell_length_b       13.328
_cell_length_c       9.373
_cell_angle_alpha    90
_cell_angle_beta     102.153
_cell_angle_gamma    90

_symmetry_space_group_name_H-M    "P 1"
_symmetry_int_tables_number       1

loop_
  _symmetry_equiv_pos_as_xyz
  'x, y, z'

loop_
  _atom_site_label
  _atom_site_occupancy
  _atom_site_fract_x
  _atom_site_fract_y
  _atom_site_fract_z
  _atom_site_thermal_displace_type
  _atom_site_B_iso_or_equiv
  _atom_site_type_symbol
  Ni1      1.0000 0.86212  0.21647  0.16563  Biso   1.000  Ni
  O1       1.0000 0.82072  0.12860  0.21990  Biso   1.000  O
  O2       1.0000 0.66651  0.83760  0.28420  Biso   1.000  O
  O3       1.0000 0.85203  0.05630  0.42490  Biso   1.000  O
  N1       1.0000 0.83158  0.22430  0.95490  Biso   1.000  N
  O4       1.0000 0.64046  0.86330  0.05090  Biso   1.000  O
  N2       1.0000 0.90326  0.30860  0.11190  Biso   1.000  N
  C1       1.0000 0.77385  0.25450  0.79170  Biso   1.000  C
  H1       1.0000 0.74900  0.27060  0.77960  Biso   1.000  H
  C2       1.0000 0.79562  0.24710  0.92840  Biso   1.000  C
  H2       1.0000 0.78480  0.25870  0.00780  Biso   1.000  H
  C3       1.0000 0.72616  0.95710  0.25360  Biso   1.000  C
  H3       1.0000 0.72580  0.92750  0.34320  Biso   1.000  H
  C4       1.0000 0.69654  0.94530  0.14860  Biso   1.000  C
  H4       1.0000 0.69520  0.98030  0.06190  Biso   1.000  H
  C5       1.0000 0.82650  0.21500  0.69780  Biso   1.000  C
  H5       1.0000 0.83820  0.20450  0.62030  Biso   1.000  H
  C6       1.0000 0.75888  0.01180  0.24170  Biso   1.000  C
  H6       1.0000 0.75840  0.04740  0.15610  Biso   1.000  H
  C7       1.0000 0.78928  0.01500  0.34260  Biso   1.000  C
  H7       1.0000 0.78970  0.98060  0.42920  Biso   1.000  H
  C8       1.0000 0.76786  0.24330  0.51880  Biso   1.000  C
  H8       1.0000 0.78080  0.23670  0.44430  Biso   1.000  H
  C9       1.0000 0.78930  0.23780  0.67050  Biso   1.000  C
  C10      1.0000 0.66524  0.87850  0.16230  Biso   1.000  C
  C11      1.0000 0.82317  0.07040  0.32720  Biso   1.000  C
  C12      1.0000 0.84620  0.20790  0.83780  Biso   1.000  C
  H9       1.0000 0.87100  0.19080  0.85270  Biso   1.000  H
  C13      1.0000 0.96460  0.33870  0.08500  Biso   1.000  C
  H10      1.0000 0.98830  0.31370  0.09050  Biso   1.000  H
  C14      1.0000 0.93739  0.27770  0.12030  Biso   1.000  C
  H11      1.0000 0.94350  0.21240  0.15100  Biso   1.000  H
  C15      1.0000 0.95630  0.43790  0.04120  Biso   1.000  C
  C16      1.0000 0.98310  0.50870  0.99880  Biso   1.000  C
  H12      1.0000 0.97430  0.57200  0.96750  Biso   1.000  H
  C17      1.0000 0.92140  0.46720  0.03390  Biso   1.000  C
  H13      1.0000 0.91430  0.53200  0.00380  Biso   1.000  H
  C18      1.0000 0.89603  0.40260  0.07030  Biso   1.000  C
  H14      1.0000 0.87220  0.42630  0.06550  Biso   1.000  H
  Ni2      1.0000 0.36212  0.71647  0.16563  Biso   1.000  Ni
  O5       1.0000 0.32072  0.62860  0.21990  Biso   1.000  O
  O6       1.0000 0.16651  0.33760  0.28420  Biso   1.000  O
  O7       1.0000 0.35203  0.55630  0.42490  Biso   1.000  O
  N3       1.0000 0.33158  0.72430  0.95490  Biso   1.000  N
  O8       1.0000 0.14046  0.36330  0.05090  Biso   1.000  O
  N4       1.0000 0.40326  0.80860  0.11190  Biso   1.000  N
  C19      1.0000 0.27385  0.75450  0.79170  Biso   1.000  C
  H15      1.0000 0.24900  0.77060  0.77960  Biso   1.000  H
  C20      1.0000 0.29562  0.74710  0.92840  Biso   1.000  C
  H16      1.0000 0.28480  0.75870  0.00780  Biso   1.000  H
  C21      1.0000 0.22616  0.45710  0.25360  Biso   1.000  C
  H17      1.0000 0.22580  0.42750  0.34320  Biso   1.000  H
  C22      1.0000 0.19654  0.44530  0.14860  Biso   1.000  C
  H18      1.0000 0.19520  0.48030  0.06190  Biso   1.000  H
  C23      1.0000 0.32650  0.71500  0.69780  Biso   1.000  C
  H19      1.0000 0.33820  0.70450  0.62030  Biso   1.000  H
  C24      1.0000 0.25888  0.51180  0.24170  Biso   1.000  C
  H20      1.0000 0.25840  0.54740  0.15610  Biso   1.000  H
  C25      1.0000 0.28928  0.51500  0.34260  Biso   1.000  C
  H21      1.0000 0.28970  0.48060  0.42920  Biso   1.000  H
  C26      1.0000 0.26786  0.74330  0.51880  Biso   1.000  C
  H22      1.0000 0.28080  0.73670  0.44430  Biso   1.000  H
  C27      1.0000 0.28930  0.73780  0.67050  Biso   1.000  C
  C28      1.0000 0.16524  0.37850  0.16230  Biso   1.000  C
  C29      1.0000 0.32317  0.57040  0.32720  Biso   1.000  C
  C30      1.0000 0.34620  0.70790  0.83780  Biso   1.000  C
  H23      1.0000 0.37100  0.69080  0.85270  Biso   1.000  H
  C31      1.0000 0.46460  0.83870  0.08500  Biso   1.000  C
  H24      1.0000 0.48830  0.81370  0.09050  Biso   1.000  H
  C32      1.0000 0.43739  0.77770  0.12030  Biso   1.000  C
  H25      1.0000 0.44350  0.71240  0.15100  Biso   1.000  H
  C33      1.0000 0.45630  0.93790  0.04120  Biso   1.000  C
  C34      1.0000 0.48310  0.00870  0.99880  Biso   1.000  C
  H26      1.0000 0.47430  0.07200  0.96750  Biso   1.000  H
  C35      1.0000 0.42140  0.96720  0.03390  Biso   1.000  C
  H27      1.0000 0.41430  0.03200  0.00380  Biso   1.000  H
  C36      1.0000 0.39603  0.90260  0.07030  Biso   1.000  C
  H28      1.0000 0.37220  0.92630  0.06550  Biso   1.000  H
  Ni3      1.0000 0.13788  0.21647  0.33437  Biso   1.000  Ni
  O9       1.0000 0.17928  0.12860  0.28010  Biso   1.000  O
  O10      1.0000 0.33349  0.83760  0.21580  Biso   1.000  O
  O11      1.0000 0.14797  0.05630  0.07510  Biso   1.000  O
  N5       1.0000 0.16842  0.22430  0.54510  Biso   1.000  N
  O12      1.0000 0.35954  0.86330  0.44910  Biso   1.000  O
  N6       1.0000 0.09674  0.30860  0.38810  Biso   1.000  N
  C37      1.0000 0.22615  0.25450  0.70830  Biso   1.000  C
  H29      1.0000 0.25100  0.27060  0.72040  Biso   1.000  H
  C38      1.0000 0.20438  0.24710  0.57160  Biso   1.000  C
  H30      1.0000 0.21520  0.25870  0.49220  Biso   1.000  H
  C39      1.0000 0.27384  0.95710  0.24640  Biso   1.000  C
  H31      1.0000 0.27420  0.92750  0.15680  Biso   1.000  H
  C40      1.0000 0.30346  0.94530  0.35140  Biso   1.000  C
  H32      1.0000 0.30480  0.98030  0.43810  Biso   1.000  H
  C41      1.0000 0.17350  0.21500  0.80220  Biso   1.000  C
  H33      1.0000 0.16180  0.20450  0.87970  Biso   1.000  H
  C42      1.0000 0.24112  0.01180  0.25830  Biso   1.000  C
  H34      1.0000 0.24160  0.04740  0.34390  Biso   1.000  H
  C43      1.0000 0.21072  0.01500  0.15740  Biso   1.000  C
  H35      1.0000 0.21030  0.98060  0.07080  Biso   1.000  H
  C44      1.0000 0.23214  0.24330  0.98120  Biso   1.000  C
  H36      1.0000 0.21920  0.23670  0.05570  Biso   1.000  H
  C45      1.0000 0.21070  0.23780  0.82950  Biso   1.000  C
  C46      1.0000 0.33476  0.87850  0.33770  Biso   1.000  C
  C47      1.0000 0.17683  0.07040  0.17280  Biso   1.000  C
  C48      1.0000 0.15380  0.20790  0.66220  Biso   1.000  C
  H37      1.0000 0.12900  0.19080  0.64730  Biso   1.000  H
  C49      1.0000 0.03540  0.33870  0.41500  Biso   1.000  C
  H38      1.0000 0.01170  0.31370  0.40950  Biso   1.000  H
  C50      1.0000 0.06261  0.27770  0.37970  Biso   1.000  C
  H39      1.0000 0.05650  0.21240  0.34900  Biso   1.000  H
  C51      1.0000 0.04370  0.43790  0.45880  Biso   1.000  C
  C52      1.0000 0.01690  0.50870  0.50120  Biso   1.000  C
  H40      1.0000 0.02570  0.57200  0.53250  Biso   1.000  H
  C53      1.0000 0.07860  0.46720  0.46610  Biso   1.000  C
  H41      1.0000 0.08570  0.53200  0.49620  Biso   1.000  H
  C54      1.0000 0.10397  0.40260  0.42970  Biso   1.000  C
  H42      1.0000 0.12780  0.42630  0.43450  Biso   1.000  H
  Ni4      1.0000 0.63788  0.71647  0.33437  Biso   1.000  Ni
  O13      1.0000 0.67928  0.62860  0.28010  Biso   1.000  O
  O14      1.0000 0.83349  0.33760  0.21580  Biso   1.000  O
  O15      1.0000 0.64797  0.55630  0.07510  Biso   1.000  O
  N7       1.0000 0.66842  0.72430  0.54510  Biso   1.000  N
  O16      1.0000 0.85954  0.36330  0.44910  Biso   1.000  O
  N8       1.0000 0.59674  0.80860  0.38810  Biso   1.000  N
  C55      1.0000 0.72615  0.75450  0.70830  Biso   1.000  C
  H43      1.0000 0.75100  0.77060  0.72040  Biso   1.000  H
  C56      1.0000 0.70438  0.74710  0.57160  Biso   1.000  C
  H44      1.0000 0.71520  0.75870  0.49220  Biso   1.000  H
  C57      1.0000 0.77384  0.45710  0.24640  Biso   1.000  C
  H45      1.0000 0.77420  0.42750  0.15680  Biso   1.000  H
  C58      1.0000 0.80346  0.44530  0.35140  Biso   1.000  C
  H46      1.0000 0.80480  0.48030  0.43810  Biso   1.000  H
  C59      1.0000 0.67350  0.71500  0.80220  Biso   1.000  C
  H47      1.0000 0.66180  0.70450  0.87970  Biso   1.000  H
  C60      1.0000 0.74112  0.51180  0.25830  Biso   1.000  C
  H48      1.0000 0.74160  0.54740  0.34390  Biso   1.000  H
  C61      1.0000 0.71072  0.51500  0.15740  Biso   1.000  C
  H49      1.0000 0.71030  0.48060  0.07080  Biso   1.000  H
  C62      1.0000 0.73214  0.74330  0.98120  Biso   1.000  C
  H50      1.0000 0.71920  0.73670  0.05570  Biso   1.000  H
  C63      1.0000 0.71070  0.73780  0.82950  Biso   1.000  C
  C64      1.0000 0.83476  0.37850  0.33770  Biso   1.000  C
  C65      1.0000 0.67683  0.57040  0.17280  Biso   1.000  C
  C66      1.0000 0.65380  0.70790  0.66220  Biso   1.000  C
  H51      1.0000 0.62900  0.69080  0.64730  Biso   1.000  H
  C67      1.0000 0.53540  0.83870  0.41500  Biso   1.000  C
  H52      1.0000 0.51170  0.81370  0.40950  Biso   1.000  H
  C68      1.0000 0.56261  0.77770  0.37970  Biso   1.000  C
  H53      1.0000 0.55650  0.71240  0.34900  Biso   1.000  H
  C69      1.0000 0.54370  0.93790  0.45880  Biso   1.000  C
  C70      1.0000 0.51690  0.00870  0.50120  Biso   1.000  C
  H54      1.0000 0.52570  0.07200  0.53250  Biso   1.000  H
  C71      1.0000 0.57860  0.96720  0.46610  Biso   1.000  C
  H55      1.0000 0.58570  0.03200  0.49620  Biso   1.000  H
  C72      1.0000 0.60397  0.90260  0.42970  Biso   1.000  C
  H56      1.0000 0.62780  0.92630  0.43450  Biso   1.000  H
  Ni5      1.0000 0.13788  0.78353  0.83437  Biso   1.000  Ni
  O17      1.0000 0.17928  0.87140  0.78010  Biso   1.000  O
  O18      1.0000 0.33349  0.16240  0.71580  Biso   1.000  O
  O19      1.0000 0.14797  0.94370  0.57510  Biso   1.000  O
  N9       1.0000 0.16842  0.77570  0.04510  Biso   1.000  N
  O20      1.0000 0.35954  0.13670  0.94910  Biso   1.000  O
  N10      1.0000 0.09674  0.69140  0.88810  Biso   1.000  N
  C73      1.0000 0.22615  0.74550  0.20830  Biso   1.000  C
  H57      1.0000 0.25100  0.72940  0.22040  Biso   1.000  H
  C74      1.0000 0.20438  0.75290  0.07160  Biso   1.000  C
  H58      1.0000 0.21520  0.74130  0.99220  Biso   1.000  H
  C75      1.0000 0.27384  0.04290  0.74640  Biso   1.000  C
  H59      1.0000 0.27420  0.07250  0.65680  Biso   1.000  H
  C76      1.0000 0.30346  0.05470  0.85140  Biso   1.000  C
  H60      1.0000 0.30480  0.01970  0.93810  Biso   1.000  H
  C77      1.0000 0.17350  0.78500  0.30220  Biso   1.000  C
  H61      1.0000 0.16180  0.79550  0.37970  Biso   1.000  H
  C78      1.0000 0.24112  0.98820  0.75830  Biso   1.000  C
  H62      1.0000 0.24160  0.95260  0.84390  Biso   1.000  H
  C79      1.0000 0.21072  0.98500  0.65740  Biso   1.000  C
  H63      1.0000 0.21030  0.01940  0.57080  Biso   1.000  H
  C80      1.0000 0.23214  0.75670  0.48120  Biso   1.000  C
  H64      1.0000 0.21920  0.76330  0.55570  Biso   1.000  H
  C81      1.0000 0.21070  0.76220  0.32950  Biso   1.000  C
  C82      1.0000 0.33476  0.12150  0.83770  Biso   1.000  C
  C83      1.0000 0.17683  0.92960  0.67280  Biso   1.000  C
  C84      1.0000 0.15380  0.79210  0.16220  Biso   1.000  C
  H65      1.0000 0.12900  0.80920  0.14730  Biso   1.000  H
  C85      1.0000 0.03540  0.66130  0.91500  Biso   1.000  C
  H66      1.0000 0.01170  0.68630  0.90950  Biso   1.000  H
  C86      1.0000 0.06261  0.72230  0.87970  Biso   1.000  C
  H67      1.0000 0.05650  0.78760  0.84900  Biso   1.000  H
  C87      1.0000 0.04370  0.56210  0.95880  Biso   1.000  C
  C88      1.0000 0.01690  0.49130  0.00120  Biso   1.000  C
  H68      1.0000 0.02570  0.42800  0.03250  Biso   1.000  H
  C89      1.0000 0.07860  0.53280  0.96610  Biso   1.000  C
  H69      1.0000 0.08570  0.46800  0.99620  Biso   1.000  H
  C90      1.0000 0.10397  0.59740  0.92970  Biso   1.000  C
  H70      1.0000 0.12780  0.57370  0.93450  Biso   1.000  H
  Ni6      1.0000 0.63788  0.28353  0.83437  Biso   1.000  Ni
  O21      1.0000 0.67928  0.37140  0.78010  Biso   1.000  O
  O22      1.0000 0.83349  0.66240  0.71580  Biso   1.000  O
  O23      1.0000 0.64797  0.44370  0.57510  Biso   1.000  O
  N11      1.0000 0.66842  0.27570  0.04510  Biso   1.000  N
  O24      1.0000 0.85954  0.63670  0.94910  Biso   1.000  O
  N12      1.0000 0.59674  0.19140  0.88810  Biso   1.000  N
  C91      1.0000 0.72615  0.24550  0.20830  Biso   1.000  C
  H71      1.0000 0.75100  0.22940  0.22040  Biso   1.000  H
  C92      1.0000 0.70438  0.25290  0.07160  Biso   1.000  C
  H72      1.0000 0.71520  0.24130  0.99220  Biso   1.000  H
  C93      1.0000 0.77384  0.54290  0.74640  Biso   1.000  C
  H73      1.0000 0.77420  0.57250  0.65680  Biso   1.000  H
  C94      1.0000 0.80346  0.55470  0.85140  Biso   1.000  C
  H74      1.0000 0.80480  0.51970  0.93810  Biso   1.000  H
  C95      1.0000 0.67350  0.28500  0.30220  Biso   1.000  C
  H75      1.0000 0.66180  0.29550  0.37970  Biso   1.000  H
  C96      1.0000 0.74112  0.48820  0.75830  Biso   1.000  C
  H76      1.0000 0.74160  0.45260  0.84390  Biso   1.000  H
  C97      1.0000 0.71072  0.48500  0.65740  Biso   1.000  C
  H77      1.0000 0.71030  0.51940  0.57080  Biso   1.000  H
  C98      1.0000 0.73214  0.25670  0.48120  Biso   1.000  C
  H78      1.0000 0.71920  0.26330  0.55570  Biso   1.000  H
  C99      1.0000 0.71070  0.26220  0.32950  Biso   1.000  C
  C100     1.0000 0.83476  0.62150  0.83770  Biso   1.000  C
  C101     1.0000 0.67683  0.42960  0.67280  Biso   1.000  C
  C102     1.0000 0.65380  0.29210  0.16220  Biso   1.000  C
  H79      1.0000 0.62900  0.30920  0.14730  Biso   1.000  H
  C103     1.0000 0.53540  0.16130  0.91500  Biso   1.000  C
  H80      1.0000 0.51170  0.18630  0.90950  Biso   1.000  H
  C104     1.0000 0.56261  0.22230  0.87970  Biso   1.000  C
  H81      1.0000 0.55650  0.28760  0.84900  Biso   1.000  H
  C105     1.0000 0.54370  0.06210  0.95880  Biso   1.000  C
  C106     1.0000 0.51690  0.99130  0.00120  Biso   1.000  C
  H82      1.0000 0.52570  0.92800  0.03250  Biso   1.000  H
  C107     1.0000 0.57860  0.03280  0.96610  Biso   1.000  C
  H83      1.0000 0.58570  0.96800  0.99620  Biso   1.000  H
  C108     1.0000 0.60397  0.09740  0.92970  Biso   1.000  C
  H84      1.0000 0.62780  0.07370  0.93450  Biso   1.000  H
  Ni7      1.0000 0.86212  0.78353  0.66563  Biso   1.000  Ni
  O25      1.0000 0.82072  0.87140  0.71990  Biso   1.000  O
  O26      1.0000 0.66651  0.16240  0.78420  Biso   1.000  O
  O27      1.0000 0.85203  0.94370  0.92490  Biso   1.000  O
  N13      1.0000 0.83158  0.77570  0.45490  Biso   1.000  N
  O28      1.0000 0.64046  0.13670  0.55090  Biso   1.000  O
  N14      1.0000 0.90326  0.69140  0.61190  Biso   1.000  N
  C109     1.0000 0.77385  0.74550  0.29170  Biso   1.000  C
  H85      1.0000 0.74900  0.72940  0.27960  Biso   1.000  H
  C110     1.0000 0.79562  0.75290  0.42840  Biso   1.000  C
  H86      1.0000 0.78480  0.74130  0.50780  Biso   1.000  H
  C111     1.0000 0.72616  0.04290  0.75360  Biso   1.000  C
  H87      1.0000 0.72580  0.07250  0.84320  Biso   1.000  H
  C112     1.0000 0.69654  0.05470  0.64860  Biso   1.000  C
  H88      1.0000 0.69520  0.01970  0.56190  Biso   1.000  H
  C113     1.0000 0.82650  0.78500  0.19780  Biso   1.000  C
  H89      1.0000 0.83820  0.79550  0.12030  Biso   1.000  H
  C114     1.0000 0.75888  0.98820  0.74170  Biso   1.000  C
  H90      1.0000 0.75840  0.95260  0.65610  Biso   1.000  H
  C115     1.0000 0.78928  0.98500  0.84260  Biso   1.000  C
  H91      1.0000 0.78970  0.01940  0.92920  Biso   1.000  H
  C116     1.0000 0.76786  0.75670  0.01880  Biso   1.000  C
  H92      1.0000 0.78080  0.76330  0.94430  Biso   1.000  H
  C117     1.0000 0.78930  0.76220  0.17050  Biso   1.000  C
  C118     1.0000 0.66524  0.12150  0.66230  Biso   1.000  C
  C119     1.0000 0.82317  0.92960  0.82720  Biso   1.000  C
  C120     1.0000 0.84620  0.79210  0.33780  Biso   1.000  C
  H93      1.0000 0.87100  0.80920  0.35270  Biso   1.000  H
  C121     1.0000 0.96460  0.66130  0.58500  Biso   1.000  C
  H94      1.0000 0.98830  0.68630  0.59050  Biso   1.000  H
  C122     1.0000 0.93739  0.72230  0.62030  Biso   1.000  C
  H95      1.0000 0.94350  0.78760  0.65100  Biso   1.000  H
  C123     1.0000 0.95630  0.56210  0.54120  Biso   1.000  C
  C124     1.0000 0.98310  0.49130  0.49880  Biso   1.000  C
  H96      1.0000 0.97430  0.42800  0.46750  Biso   1.000  H
  C125     1.0000 0.92140  0.53280  0.53390  Biso   1.000  C
  H97      1.0000 0.91430  0.46800  0.50380  Biso   1.000  H
  C126     1.0000 0.89603  0.59740  0.57030  Biso   1.000  C
  H98      1.0000 0.87220  0.57370  0.56550  Biso   1.000  H
  Ni8      1.0000 0.36212  0.28353  0.66563  Biso   1.000  Ni
  O29      1.0000 0.32072  0.37140  0.71990  Biso   1.000  O
  O30      1.0000 0.16651  0.66240  0.78420  Biso   1.000  O
  O31      1.0000 0.35203  0.44370  0.92490  Biso   1.000  O
  N15      1.0000 0.33158  0.27570  0.45490  Biso   1.000  N
  O32      1.0000 0.14046  0.63670  0.55090  Biso   1.000  O
  N16      1.0000 0.40326  0.19140  0.61190  Biso   1.000  N
  C127     1.0000 0.27385  0.24550  0.29170  Biso   1.000  C
  H99      1.0000 0.24900  0.22940  0.27960  Biso   1.000  H
  C128     1.0000 0.29562  0.25290  0.42840  Biso   1.000  C
  H100     1.0000 0.28480  0.24130  0.50780  Biso   1.000  H
  C129     1.0000 0.22616  0.54290  0.75360  Biso   1.000  C
  H101     1.0000 0.22580  0.57250  0.84320  Biso   1.000  H
  C130     1.0000 0.19654  0.55470  0.64860  Biso   1.000  C
  H102     1.0000 0.19520  0.51970  0.56190  Biso   1.000  H
  C131     1.0000 0.32650  0.28500  0.19780  Biso   1.000  C
  H103     1.0000 0.33820  0.29550  0.12030  Biso   1.000  H
  C132     1.0000 0.25888  0.48820  0.74170  Biso   1.000  C
  H104     1.0000 0.25840  0.45260  0.65610  Biso   1.000  H
  C133     1.0000 0.28928  0.48500  0.84260  Biso   1.000  C
  H105     1.0000 0.28970  0.51940  0.92920  Biso   1.000  H
  C134     1.0000 0.26786  0.25670  0.01880  Biso   1.000  C
  H106     1.0000 0.28080  0.26330  0.94430  Biso   1.000  H
  C135     1.0000 0.28930  0.26220  0.17050  Biso   1.000  C
  C136     1.0000 0.16524  0.62150  0.66230  Biso   1.000  C
  C137     1.0000 0.32317  0.42960  0.82720  Biso   1.000  C
  C138     1.0000 0.34620  0.29210  0.33780  Biso   1.000  C
  H107     1.0000 0.37100  0.30920  0.35270  Biso   1.000  H
  C139     1.0000 0.46460  0.16130  0.58500  Biso   1.000  C
  H108     1.0000 0.48830  0.18630  0.59050  Biso   1.000  H
  C140     1.0000 0.43739  0.22230  0.62030  Biso   1.000  C
  H109     1.0000 0.44350  0.28760  0.65100  Biso   1.000  H
  C141     1.0000 0.45630  0.06210  0.54120  Biso   1.000  C
  C142     1.0000 0.48310  0.99130  0.49880  Biso   1.000  C
  H110     1.0000 0.47430  0.92800  0.46750  Biso   1.000  H
  C143     1.0000 0.42140  0.03280  0.53390  Biso   1.000  C
  H111     1.0000 0.41430  0.96800  0.50380  Biso   1.000  H
  C144     1.0000 0.39603  0.09740  0.57030  Biso   1.000  C
  H112     1.0000 0.37220  0.07370  0.56550  Biso   1.000  H
