data_image0
_cell_length_a       35.0241
_cell_length_b       13.3396
_cell_length_c       9.1834
_cell_angle_alpha    90
_cell_angle_beta     104.116
_cell_angle_gamma    90

_symmetry_space_group_name_H-M    "P 1"
_symmetry_int_tables_number       1

loop_
  _symmetry_equiv_pos_as_xyz
  'x, y, z'

loop_
  _atom_site_label
  _atom_site_occupancy
  _atom_site_fract_x
  _atom_site_fract_y
  _atom_site_fract_z
  _atom_site_thermal_displace_type
  _atom_site_B_iso_or_equiv
  _atom_site_type_symbol
  Ni1      1.0000 0.36843  0.21665  0.04755  Biso   1.000  Ni
  C1       1.0000 0.34988  0.20450  0.35110  Biso   1.000  C
  H1       1.0000 0.37630  0.18640  0.38250  Biso   1.000  H
  N1       1.0000 0.33481  0.22200  0.20420  Biso   1.000  N
  O1       1.0000 0.36746  0.36630  0.75790  Biso   1.000  O
  O2       1.0000 0.17504  0.63060  0.58710  Biso   1.000  O
  O3       1.0000 0.33864  0.33950  0.94760  Biso   1.000  O
  O4       1.0000 0.13924  0.55510  0.72520  Biso   1.000  O
  N2       1.0000 0.41153  0.30350  0.19070  Biso   1.000  N
  N3       1.0000 0.26805  0.24160  0.52510  Biso   1.000  N
  C2       1.0000 0.30689  0.44580  0.75040  Biso   1.000  C
  H2       1.0000 0.30850  0.48100  0.66470  Biso   1.000  H
  C3       1.0000 0.20706  0.51660  0.77270  Biso   1.000  C
  H3       1.0000 0.20610  0.48390  0.86110  Biso   1.000  H
  C4       1.0000 0.29636  0.24690  0.16130  Biso   1.000  C
  H4       1.0000 0.28550  0.25950  0.06010  Biso   1.000  H
  C5       1.0000 0.28884  0.23650  0.41000  Biso   1.000  C
  C6       1.0000 0.27235  0.25470  0.25880  Biso   1.000  C
  H5       1.0000 0.24590  0.27160  0.22470  Biso   1.000  H
  C7       1.0000 0.27523  0.45680  0.80230  Biso   1.000  C
  H6       1.0000 0.27530  0.42690  0.89380  Biso   1.000  H
  C8       1.0000 0.32853  0.21200  0.45680  Biso   1.000  C
  H7       1.0000 0.34030  0.20090  0.55780  Biso   1.000  H
  C9       1.0000 0.17148  0.57150  0.68880  Biso   1.000  C
  C10      1.0000 0.34049  0.37880  0.82380  Biso   1.000  C
  C11      1.0000 0.24021  0.51240  0.72690  Biso   1.000  C
  H8       1.0000 0.24110  0.54740  0.64030  Biso   1.000  H
  C12      1.0000 0.43380  0.45880  0.30900  Biso   1.000  C
  H9       1.0000 0.42930  0.52680  0.31930  Biso   1.000  H
  C13      1.0000 0.46740  0.41440  0.39060  Biso   1.000  C
  C14      1.0000 0.40645  0.39970  0.21000  Biso   1.000  C
  H10      1.0000 0.38350  0.42980  0.15490  Biso   1.000  H
  N4       1.0000 0.50380  0.45990  0.51450  Biso   1.000  N
  C15      1.0000 0.47305  0.31450  0.37380  Biso   1.000  C
  H11      1.0000 0.49550  0.28260  0.43000  Biso   1.000  H
  C16      1.0000 0.44495  0.26160  0.27190  Biso   1.000  C
  H12      1.0000 0.44920  0.19380  0.25850  Biso   1.000  H
  Ni2      1.0000 0.86843  0.71665  0.04755  Biso   1.000  Ni
  C17      1.0000 0.84988  0.70450  0.35110  Biso   1.000  C
  H13      1.0000 0.87630  0.68640  0.38250  Biso   1.000  H
  N5       1.0000 0.83481  0.72200  0.20420  Biso   1.000  N
  O5       1.0000 0.86746  0.86630  0.75790  Biso   1.000  O
  O6       1.0000 0.67504  0.13060  0.58710  Biso   1.000  O
  O7       1.0000 0.83864  0.83950  0.94760  Biso   1.000  O
  O8       1.0000 0.63924  0.05510  0.72520  Biso   1.000  O
  N6       1.0000 0.91153  0.80350  0.19070  Biso   1.000  N
  N7       1.0000 0.76805  0.74160  0.52510  Biso   1.000  N
  C18      1.0000 0.80689  0.94580  0.75040  Biso   1.000  C
  H14      1.0000 0.80850  0.98100  0.66470  Biso   1.000  H
  C19      1.0000 0.70706  0.01660  0.77270  Biso   1.000  C
  H15      1.0000 0.70610  0.98390  0.86110  Biso   1.000  H
  C20      1.0000 0.79636  0.74690  0.16130  Biso   1.000  C
  H16      1.0000 0.78550  0.75950  0.06010  Biso   1.000  H
  C21      1.0000 0.78884  0.73650  0.41000  Biso   1.000  C
  C22      1.0000 0.77235  0.75470  0.25880  Biso   1.000  C
  H17      1.0000 0.74590  0.77160  0.22470  Biso   1.000  H
  C23      1.0000 0.77523  0.95680  0.80230  Biso   1.000  C
  H18      1.0000 0.77530  0.92690  0.89380  Biso   1.000  H
  C24      1.0000 0.82853  0.71200  0.45680  Biso   1.000  C
  H19      1.0000 0.84030  0.70090  0.55780  Biso   1.000  H
  C25      1.0000 0.67148  0.07150  0.68880  Biso   1.000  C
  C26      1.0000 0.84049  0.87880  0.82380  Biso   1.000  C
  C27      1.0000 0.74021  0.01240  0.72690  Biso   1.000  C
  H20      1.0000 0.74110  0.04740  0.64030  Biso   1.000  H
  C28      1.0000 0.93380  0.95880  0.30900  Biso   1.000  C
  H21      1.0000 0.92930  0.02680  0.31930  Biso   1.000  H
  C29      1.0000 0.96740  0.91440  0.39060  Biso   1.000  C
  C30      1.0000 0.90645  0.89970  0.21000  Biso   1.000  C
  H22      1.0000 0.88350  0.92980  0.15490  Biso   1.000  H
  N8       1.0000 0.00380  0.95990  0.51450  Biso   1.000  N
  C31      1.0000 0.97305  0.81450  0.37380  Biso   1.000  C
  H23      1.0000 0.99550  0.78260  0.43000  Biso   1.000  H
  C32      1.0000 0.94495  0.76160  0.27190  Biso   1.000  C
  H24      1.0000 0.94920  0.69380  0.25850  Biso   1.000  H
  Ni3      1.0000 0.63157  0.21665  0.45245  Biso   1.000  Ni
  C33      1.0000 0.65012  0.20450  0.14890  Biso   1.000  C
  H25      1.0000 0.62370  0.18640  0.11750  Biso   1.000  H
  N9       1.0000 0.66519  0.22200  0.29580  Biso   1.000  N
  O9       1.0000 0.63254  0.36630  0.74210  Biso   1.000  O
  O10      1.0000 0.82496  0.63060  0.91290  Biso   1.000  O
  O11      1.0000 0.66136  0.33950  0.55240  Biso   1.000  O
  O12      1.0000 0.86076  0.55510  0.77480  Biso   1.000  O
  N10      1.0000 0.58847  0.30350  0.30930  Biso   1.000  N
  N11      1.0000 0.73195  0.24160  0.97490  Biso   1.000  N
  C34      1.0000 0.69311  0.44580  0.74960  Biso   1.000  C
  H26      1.0000 0.69150  0.48100  0.83530  Biso   1.000  H
  C35      1.0000 0.79294  0.51660  0.72730  Biso   1.000  C
  H27      1.0000 0.79390  0.48390  0.63890  Biso   1.000  H
  C36      1.0000 0.70364  0.24690  0.33870  Biso   1.000  C
  H28      1.0000 0.71450  0.25950  0.43990  Biso   1.000  H
  C37      1.0000 0.71116  0.23650  0.09000  Biso   1.000  C
  C38      1.0000 0.72765  0.25470  0.24120  Biso   1.000  C
  H29      1.0000 0.75410  0.27160  0.27530  Biso   1.000  H
  C39      1.0000 0.72477  0.45680  0.69770  Biso   1.000  C
  H30      1.0000 0.72470  0.42690  0.60620  Biso   1.000  H
  C40      1.0000 0.67147  0.21200  0.04320  Biso   1.000  C
  H31      1.0000 0.65970  0.20090  0.94220  Biso   1.000  H
  C41      1.0000 0.82852  0.57150  0.81120  Biso   1.000  C
  C42      1.0000 0.65951  0.37880  0.67620  Biso   1.000  C
  C43      1.0000 0.75979  0.51240  0.77310  Biso   1.000  C
  H32      1.0000 0.75890  0.54740  0.85970  Biso   1.000  H
  C44      1.0000 0.56620  0.45880  0.19100  Biso   1.000  C
  H33      1.0000 0.57070  0.52680  0.18070  Biso   1.000  H
  C45      1.0000 0.53260  0.41440  0.10940  Biso   1.000  C
  C46      1.0000 0.59355  0.39970  0.29000  Biso   1.000  C
  H34      1.0000 0.61650  0.42980  0.34510  Biso   1.000  H
  N12      1.0000 0.49620  0.45990  0.98550  Biso   1.000  N
  C47      1.0000 0.52695  0.31450  0.12620  Biso   1.000  C
  H35      1.0000 0.50450  0.28260  0.07000  Biso   1.000  H
  C48      1.0000 0.55505  0.26160  0.22810  Biso   1.000  C
  H36      1.0000 0.55080  0.19380  0.24150  Biso   1.000  H
  Ni4      1.0000 0.13157  0.71665  0.45245  Biso   1.000  Ni
  C49      1.0000 0.15012  0.70450  0.14890  Biso   1.000  C
  H37      1.0000 0.12370  0.68640  0.11750  Biso   1.000  H
  N13      1.0000 0.16519  0.72200  0.29580  Biso   1.000  N
  O13      1.0000 0.13254  0.86630  0.74210  Biso   1.000  O
  O14      1.0000 0.32496  0.13060  0.91290  Biso   1.000  O
  O15      1.0000 0.16136  0.83950  0.55240  Biso   1.000  O
  O16      1.0000 0.36076  0.05510  0.77480  Biso   1.000  O
  N14      1.0000 0.08847  0.80350  0.30930  Biso   1.000  N
  N15      1.0000 0.23195  0.74160  0.97490  Biso   1.000  N
  C50      1.0000 0.19311  0.94580  0.74960  Biso   1.000  C
  H38      1.0000 0.19150  0.98100  0.83530  Biso   1.000  H
  C51      1.0000 0.29294  0.01660  0.72730  Biso   1.000  C
  H39      1.0000 0.29390  0.98390  0.63890  Biso   1.000  H
  C52      1.0000 0.20364  0.74690  0.33870  Biso   1.000  C
  H40      1.0000 0.21450  0.75950  0.43990  Biso   1.000  H
  C53      1.0000 0.21116  0.73650  0.09000  Biso   1.000  C
  C54      1.0000 0.22765  0.75470  0.24120  Biso   1.000  C
  H41      1.0000 0.25410  0.77160  0.27530  Biso   1.000  H
  C55      1.0000 0.22477  0.95680  0.69770  Biso   1.000  C
  H42      1.0000 0.22470  0.92690  0.60620  Biso   1.000  H
  C56      1.0000 0.17147  0.71200  0.04320  Biso   1.000  C
  H43      1.0000 0.15970  0.70090  0.94220  Biso   1.000  H
  C57      1.0000 0.32852  0.07150  0.81120  Biso   1.000  C
  C58      1.0000 0.15951  0.87880  0.67620  Biso   1.000  C
  C59      1.0000 0.25979  0.01240  0.77310  Biso   1.000  C
  H44      1.0000 0.25890  0.04740  0.85970  Biso   1.000  H
  C60      1.0000 0.06620  0.95880  0.19100  Biso   1.000  C
  H45      1.0000 0.07070  0.02680  0.18070  Biso   1.000  H
  C61      1.0000 0.03260  0.91440  0.10940  Biso   1.000  C
  C62      1.0000 0.09355  0.89970  0.29000  Biso   1.000  C
  H46      1.0000 0.11650  0.92980  0.34510  Biso   1.000  H
  N16      1.0000 0.99620  0.95990  0.98550  Biso   1.000  N
  C63      1.0000 0.02695  0.81450  0.12620  Biso   1.000  C
  H47      1.0000 0.00450  0.78260  0.07000  Biso   1.000  H
  C64      1.0000 0.05505  0.76160  0.22810  Biso   1.000  C
  H48      1.0000 0.05080  0.69380  0.24150  Biso   1.000  H
  Ni5      1.0000 0.63157  0.78335  0.95245  Biso   1.000  Ni
  C65      1.0000 0.65012  0.79550  0.64890  Biso   1.000  C
  H49      1.0000 0.62370  0.81360  0.61750  Biso   1.000  H
  N17      1.0000 0.66519  0.77800  0.79580  Biso   1.000  N
  O17      1.0000 0.63254  0.63370  0.24210  Biso   1.000  O
  O18      1.0000 0.82496  0.36940  0.41290  Biso   1.000  O
  O19      1.0000 0.66136  0.66050  0.05240  Biso   1.000  O
  O20      1.0000 0.86076  0.44490  0.27480  Biso   1.000  O
  N18      1.0000 0.58847  0.69650  0.80930  Biso   1.000  N
  N19      1.0000 0.73195  0.75840  0.47490  Biso   1.000  N
  C66      1.0000 0.69311  0.55420  0.24960  Biso   1.000  C
  H50      1.0000 0.69150  0.51900  0.33530  Biso   1.000  H
  C67      1.0000 0.79294  0.48340  0.22730  Biso   1.000  C
  H51      1.0000 0.79390  0.51610  0.13890  Biso   1.000  H
  C68      1.0000 0.70364  0.75310  0.83870  Biso   1.000  C
  H52      1.0000 0.71450  0.74050  0.93990  Biso   1.000  H
  C69      1.0000 0.71116  0.76350  0.59000  Biso   1.000  C
  C70      1.0000 0.72765  0.74530  0.74120  Biso   1.000  C
  H53      1.0000 0.75410  0.72840  0.77530  Biso   1.000  H
  C71      1.0000 0.72477  0.54320  0.19770  Biso   1.000  C
  H54      1.0000 0.72470  0.57310  0.10620  Biso   1.000  H
  C72      1.0000 0.67147  0.78800  0.54320  Biso   1.000  C
  H55      1.0000 0.65970  0.79910  0.44220  Biso   1.000  H
  C73      1.0000 0.82852  0.42850  0.31120  Biso   1.000  C
  C74      1.0000 0.65951  0.62120  0.17620  Biso   1.000  C
  C75      1.0000 0.75979  0.48760  0.27310  Biso   1.000  C
  H56      1.0000 0.75890  0.45260  0.35970  Biso   1.000  H
  C76      1.0000 0.56620  0.54120  0.69100  Biso   1.000  C
  H57      1.0000 0.57070  0.47320  0.68070  Biso   1.000  H
  C77      1.0000 0.53260  0.58560  0.60940  Biso   1.000  C
  C78      1.0000 0.59355  0.60030  0.79000  Biso   1.000  C
  H58      1.0000 0.61650  0.57020  0.84510  Biso   1.000  H
  N20      1.0000 0.49620  0.54010  0.48550  Biso   1.000  N
  C79      1.0000 0.52695  0.68550  0.62620  Biso   1.000  C
  H59      1.0000 0.50450  0.71740  0.57000  Biso   1.000  H
  C80      1.0000 0.55505  0.73840  0.72810  Biso   1.000  C
  H60      1.0000 0.55080  0.80620  0.74150  Biso   1.000  H
  Ni6      1.0000 0.13157  0.28335  0.95245  Biso   1.000  Ni
  C81      1.0000 0.15012  0.29550  0.64890  Biso   1.000  C
  H61      1.0000 0.12370  0.31360  0.61750  Biso   1.000  H
  N21      1.0000 0.16519  0.27800  0.79580  Biso   1.000  N
  O21      1.0000 0.13254  0.13370  0.24210  Biso   1.000  O
  O22      1.0000 0.32496  0.86940  0.41290  Biso   1.000  O
  O23      1.0000 0.16136  0.16050  0.05240  Biso   1.000  O
  O24      1.0000 0.36076  0.94490  0.27480  Biso   1.000  O
  N22      1.0000 0.08847  0.19650  0.80930  Biso   1.000  N
  N23      1.0000 0.23195  0.25840  0.47490  Biso   1.000  N
  C82      1.0000 0.19311  0.05420  0.24960  Biso   1.000  C
  H62      1.0000 0.19150  0.01900  0.33530  Biso   1.000  H
  C83      1.0000 0.29294  0.98340  0.22730  Biso   1.000  C
  H63      1.0000 0.29390  0.01610  0.13890  Biso   1.000  H
  C84      1.0000 0.20364  0.25310  0.83870  Biso   1.000  C
  H64      1.0000 0.21450  0.24050  0.93990  Biso   1.000  H
  C85      1.0000 0.21116  0.26350  0.59000  Biso   1.000  C
  C86      1.0000 0.22765  0.24530  0.74120  Biso   1.000  C
  H65      1.0000 0.25410  0.22840  0.77530  Biso   1.000  H
  C87      1.0000 0.22477  0.04320  0.19770  Biso   1.000  C
  H66      1.0000 0.22470  0.07310  0.10620  Biso   1.000  H
  C88      1.0000 0.17147  0.28800  0.54320  Biso   1.000  C
  H67      1.0000 0.15970  0.29910  0.44220  Biso   1.000  H
  C89      1.0000 0.32852  0.92850  0.31120  Biso   1.000  C
  C90      1.0000 0.15951  0.12120  0.17620  Biso   1.000  C
  C91      1.0000 0.25979  0.98760  0.27310  Biso   1.000  C
  H68      1.0000 0.25890  0.95260  0.35970  Biso   1.000  H
  C92      1.0000 0.06620  0.04120  0.69100  Biso   1.000  C
  H69      1.0000 0.07070  0.97320  0.68070  Biso   1.000  H
  C93      1.0000 0.03260  0.08560  0.60940  Biso   1.000  C
  C94      1.0000 0.09355  0.10030  0.79000  Biso   1.000  C
  H70      1.0000 0.11650  0.07020  0.84510  Biso   1.000  H
  N24      1.0000 0.99620  0.04010  0.48550  Biso   1.000  N
  C95      1.0000 0.02695  0.18550  0.62620  Biso   1.000  C
  H71      1.0000 0.00450  0.21740  0.57000  Biso   1.000  H
  C96      1.0000 0.05505  0.23840  0.72810  Biso   1.000  C
  H72      1.0000 0.05080  0.30620  0.74150  Biso   1.000  H
  Ni7      1.0000 0.36843  0.78335  0.54755  Biso   1.000  Ni
  C97      1.0000 0.34988  0.79550  0.85110  Biso   1.000  C
  H73      1.0000 0.37630  0.81360  0.88250  Biso   1.000  H
  N25      1.0000 0.33481  0.77800  0.70420  Biso   1.000  N
  O25      1.0000 0.36746  0.63370  0.25790  Biso   1.000  O
  O26      1.0000 0.17504  0.36940  0.08710  Biso   1.000  O
  O27      1.0000 0.33864  0.66050  0.44760  Biso   1.000  O
  O28      1.0000 0.13924  0.44490  0.22520  Biso   1.000  O
  N26      1.0000 0.41153  0.69650  0.69070  Biso   1.000  N
  N27      1.0000 0.26805  0.75840  0.02510  Biso   1.000  N
  C98      1.0000 0.30689  0.55420  0.25040  Biso   1.000  C
  H74      1.0000 0.30850  0.51900  0.16470  Biso   1.000  H
  C99      1.0000 0.20706  0.48340  0.27270  Biso   1.000  C
  H75      1.0000 0.20610  0.51610  0.36110  Biso   1.000  H
  C100     1.0000 0.29636  0.75310  0.66130  Biso   1.000  C
  H76      1.0000 0.28550  0.74050  0.56010  Biso   1.000  H
  C101     1.0000 0.28884  0.76350  0.91000  Biso   1.000  C
  C102     1.0000 0.27235  0.74530  0.75880  Biso   1.000  C
  H77      1.0000 0.24590  0.72840  0.72470  Biso   1.000  H
  C103     1.0000 0.27523  0.54320  0.30230  Biso   1.000  C
  H78      1.0000 0.27530  0.57310  0.39380  Biso   1.000  H
  C104     1.0000 0.32853  0.78800  0.95680  Biso   1.000  C
  H79      1.0000 0.34030  0.79910  0.05780  Biso   1.000  H
  C105     1.0000 0.17148  0.42850  0.18880  Biso   1.000  C
  C106     1.0000 0.34049  0.62120  0.32380  Biso   1.000  C
  C107     1.0000 0.24021  0.48760  0.22690  Biso   1.000  C
  H80      1.0000 0.24110  0.45260  0.14030  Biso   1.000  H
  C108     1.0000 0.43380  0.54120  0.80900  Biso   1.000  C
  H81      1.0000 0.42930  0.47320  0.81930  Biso   1.000  H
  C109     1.0000 0.46740  0.58560  0.89060  Biso   1.000  C
  C110     1.0000 0.40645  0.60030  0.71000  Biso   1.000  C
  H82      1.0000 0.38350  0.57020  0.65490  Biso   1.000  H
  N28      1.0000 0.50380  0.54010  0.01450  Biso   1.000  N
  C111     1.0000 0.47305  0.68550  0.87380  Biso   1.000  C
  H83      1.0000 0.49550  0.71740  0.93000  Biso   1.000  H
  C112     1.0000 0.44495  0.73840  0.77190  Biso   1.000  C
  H84      1.0000 0.44920  0.80620  0.75850  Biso   1.000  H
  Ni8      1.0000 0.86843  0.28335  0.54755  Biso   1.000  Ni
  C113     1.0000 0.84988  0.29550  0.85110  Biso   1.000  C
  H85      1.0000 0.87630  0.31360  0.88250  Biso   1.000  H
  N29      1.0000 0.83481  0.27800  0.70420  Biso   1.000  N
  O29      1.0000 0.86746  0.13370  0.25790  Biso   1.000  O
  O30      1.0000 0.67504  0.86940  0.08710  Biso   1.000  O
  O31      1.0000 0.83864  0.16050  0.44760  Biso   1.000  O
  O32      1.0000 0.63924  0.94490  0.22520  Biso   1.000  O
  N30      1.0000 0.91153  0.19650  0.69070  Biso   1.000  N
  N31      1.0000 0.76805  0.25840  0.02510  Biso   1.000  N
  C114     1.0000 0.80689  0.05420  0.25040  Biso   1.000  C
  H86      1.0000 0.80850  0.01900  0.16470  Biso   1.000  H
  C115     1.0000 0.70706  0.98340  0.27270  Biso   1.000  C
  H87      1.0000 0.70610  0.01610  0.36110  Biso   1.000  H
  C116     1.0000 0.79636  0.25310  0.66130  Biso   1.000  C
  H88      1.0000 0.78550  0.24050  0.56010  Biso   1.000  H
  C117     1.0000 0.78884  0.26350  0.91000  Biso   1.000  C
  C118     1.0000 0.77235  0.24530  0.75880  Biso   1.000  C
  H89      1.0000 0.74590  0.22840  0.72470  Biso   1.000  H
  C119     1.0000 0.77523  0.04320  0.30230  Biso   1.000  C
  H90      1.0000 0.77530  0.07310  0.39380  Biso   1.000  H
  C120     1.0000 0.82853  0.28800  0.95680  Biso   1.000  C
  H91      1.0000 0.84030  0.29910  0.05780  Biso   1.000  H
  C121     1.0000 0.67148  0.92850  0.18880  Biso   1.000  C
  C122     1.0000 0.84049  0.12120  0.32380  Biso   1.000  C
  C123     1.0000 0.74021  0.98760  0.22690  Biso   1.000  C
  H92      1.0000 0.74110  0.95260  0.14030  Biso   1.000  H
  C124     1.0000 0.93380  0.04120  0.80900  Biso   1.000  C
  H93      1.0000 0.92930  0.97320  0.81930  Biso   1.000  H
  C125     1.0000 0.96740  0.08560  0.89060  Biso   1.000  C
  C126     1.0000 0.90645  0.10030  0.71000  Biso   1.000  C
  H94      1.0000 0.88350  0.07020  0.65490  Biso   1.000  H
  N32      1.0000 0.00380  0.04010  0.01450  Biso   1.000  N
  C127     1.0000 0.97305  0.18550  0.87380  Biso   1.000  C
  H95      1.0000 0.99550  0.21740  0.93000  Biso   1.000  H
  C128     1.0000 0.94495  0.23840  0.77190  Biso   1.000  C
  H96      1.0000 0.94920  0.30620  0.75850  Biso   1.000  H
