data_EMANAH_clean
_audit_creation_date              2014-07-02
_audit_creation_method            'Materials Studio'
_symmetry_space_group_name_H-M    'P1'
_symmetry_Int_Tables_number       1
_symmetry_cell_setting            triclinic
loop_
_symmetry_equiv_pos_as_xyz
  x,y,z
_cell_length_a                    8.5660
_cell_length_b                    8.5660
_cell_length_c                    37.8110
_cell_angle_alpha                 90.0000
_cell_angle_beta                  90.0000
_cell_angle_gamma                 120.0000
loop_
_atom_site_label
_atom_site_type_symbol
_atom_site_fract_x
_atom_site_fract_y
_atom_site_fract_z
_atom_site_U_iso_or_equiv
_atom_site_adp_type
_atom_site_occupancy
Cd1    Cd    0.00000   0.00000   0.66667   0.01267  Uiso   1.00
Cd2    Cd    0.00000   0.00000   0.33333   0.01267  Uiso   1.00
Cd3    Cd    0.00000   0.00000   0.00000   0.01267  Uiso   1.00
In1    In    0.50000   0.50000   0.77804   0.01267  Uiso   1.00
In2    In    0.00000   0.50000   0.44471   0.01267  Uiso   1.00
In3    In    0.50000  -0.00000   0.11137   0.01267  Uiso   1.00
In4    In    0.00000   0.50000   0.88863   0.01267  Uiso   1.00
In5    In    0.50000   0.50000   0.22196   0.01267  Uiso   1.00
In6    In    0.50000  -0.00000   0.55529   0.01267  Uiso   1.00
C1     C     0.27820   0.17750   0.72542   0.01267  Uiso   1.00
C2     C     0.22610   0.32130   0.71710   0.01267  Uiso   1.00
C3     C     0.89930   0.72180   0.39209   0.01267  Uiso   1.00
C4     C     0.09520   0.77390   0.38377   0.01267  Uiso   1.00
C5     C     0.82250   0.10070   0.05875   0.01267  Uiso   1.00
C6     C     0.67870   0.90480   0.05043   0.01267  Uiso   1.00
C7     C     0.72180   0.82250   0.72542   0.01267  Uiso   1.00
C8     C     0.77390   0.67870   0.71710   0.01267  Uiso   1.00
C9     C     0.10070   0.27820   0.39209   0.01267  Uiso   1.00
C10    C     0.90480   0.22610   0.38377   0.01267  Uiso   1.00
C11    C     0.17750   0.89930   0.05875   0.01267  Uiso   1.00
C12    C     0.32130   0.09520   0.05043   0.01267  Uiso   1.00
C13    C     0.10070   0.82250   0.94125   0.01267  Uiso   1.00
C14    C     0.90480   0.67870   0.94957   0.01267  Uiso   1.00
C15    C     0.17750   0.27820   0.27458   0.01267  Uiso   1.00
C16    C     0.32130   0.22610   0.28290   0.01267  Uiso   1.00
C17    C     0.72180   0.89930   0.60791   0.01267  Uiso   1.00
C18    C     0.77390   0.09520   0.61623   0.01267  Uiso   1.00
C19    C     0.89930   0.17750   0.94125   0.01267  Uiso   1.00
C20    C     0.09520   0.32130   0.94957   0.01267  Uiso   1.00
C21    C     0.82250   0.72180   0.27458   0.01267  Uiso   1.00
C22    C     0.67870   0.77390   0.28290   0.01267  Uiso   1.00
C23    C     0.27820   0.10070   0.60791   0.01267  Uiso   1.00
C24    C     0.22610   0.90480   0.61623   0.01267  Uiso   1.00
C25    C     0.70480   0.40960   0.83333   0.01267  Uiso   1.00
C26    C     0.80720   0.61440   0.83333   0.01267  Uiso   1.00
C27    C     0.70480   0.29520   0.50000   0.01267  Uiso   1.00
C28    C     0.80720   0.19280   0.50000   0.01267  Uiso   1.00
C29    C     0.59040   0.29520   0.16667   0.01267  Uiso   1.00
C30    C     0.38560   0.19280   0.16667   0.01267  Uiso   1.00
C31    C     0.29520   0.59040   0.83333   0.01267  Uiso   1.00
C32    C     0.19280   0.38560   0.83333   0.01267  Uiso   1.00
C33    C     0.29520   0.70480   0.50000   0.01267  Uiso   1.00
C34    C     0.19280   0.80720   0.50000   0.01267  Uiso   1.00
C35    C     0.40960   0.70480   0.16667   0.01267  Uiso   1.00
C36    C     0.61440   0.80720   0.16667   0.01267  Uiso   1.00
O1     O     0.57850   0.33040   0.81194   0.01267  Uiso   1.00
O2     O     0.29510   0.46060   0.73615   0.01267  Uiso   1.00
O3     O     0.12050   0.28970   0.69213   0.01267  Uiso   1.00
O4     O     0.39160   0.21410   0.74959   0.01267  Uiso   1.00
O5     O     0.75620   0.69010   0.81155   0.01267  Uiso   1.00
O6     O     0.20520   0.03550   0.70731   0.01267  Uiso   1.00
O7     O     0.75190   0.42150   0.47861   0.01267  Uiso   1.00
O8     O     0.16550   0.70490   0.40282   0.01267  Uiso   1.00
O9     O     0.16920   0.87950   0.35880   0.01267  Uiso   1.00
O10    O     0.82250   0.60840   0.41626   0.01267  Uiso   1.00
O11    O     0.93390   0.24380   0.47822   0.01267  Uiso   1.00
O12    O     0.83030   0.79480   0.37398   0.01267  Uiso   1.00
O13    O     0.66960   0.24810   0.14527   0.01267  Uiso   1.00
O14    O     0.53940   0.83450   0.06948   0.01267  Uiso   1.00
O15    O     0.71030   0.83080   0.02546   0.01267  Uiso   1.00
O16    O     0.78590   0.17750   0.08292   0.01267  Uiso   1.00
O17    O     0.30990   0.06610   0.14488   0.01267  Uiso   1.00
O18    O     0.96450   0.16970   0.04064   0.01267  Uiso   1.00
O19    O     0.42150   0.66960   0.81194   0.01267  Uiso   1.00
O20    O     0.70490   0.53940   0.73615   0.01267  Uiso   1.00
O21    O     0.87950   0.71030   0.69213   0.01267  Uiso   1.00
O22    O     0.60840   0.78590   0.74959   0.01267  Uiso   1.00
O23    O     0.24380   0.30990   0.81155   0.01267  Uiso   1.00
O24    O     0.79480   0.96450   0.70731   0.01267  Uiso   1.00
O25    O     0.24810   0.57850   0.47861   0.01267  Uiso   1.00
O26    O     0.83450   0.29510   0.40282   0.01267  Uiso   1.00
O27    O     0.83080   0.12050   0.35880   0.01267  Uiso   1.00
O28    O     0.17750   0.39160   0.41626   0.01267  Uiso   1.00
O29    O     0.06610   0.75620   0.47822   0.01267  Uiso   1.00
O30    O     0.16970   0.20520   0.37398   0.01267  Uiso   1.00
O31    O     0.33040   0.75190   0.14527   0.01267  Uiso   1.00
O32    O     0.46060   0.16550   0.06948   0.01267  Uiso   1.00
O33    O     0.28970   0.16920   0.02546   0.01267  Uiso   1.00
O34    O     0.21410   0.82250   0.08292   0.01267  Uiso   1.00
O35    O     0.69010   0.93390   0.14488   0.01267  Uiso   1.00
O36    O     0.03550   0.83030   0.04064   0.01267  Uiso   1.00
O37    O     0.24810   0.66960   0.85473   0.01267  Uiso   1.00
O38    O     0.83450   0.53940   0.93052   0.01267  Uiso   1.00
O39    O     0.83080   0.71030   0.97454   0.01267  Uiso   1.00
O40    O     0.17750   0.78590   0.91708   0.01267  Uiso   1.00
O41    O     0.06610   0.30990   0.85512   0.01267  Uiso   1.00
O42    O     0.16970   0.96450   0.95936   0.01267  Uiso   1.00
O43    O     0.33040   0.57850   0.18806   0.01267  Uiso   1.00
O44    O     0.46060   0.29510   0.26385   0.01267  Uiso   1.00
O45    O     0.28970   0.12050   0.30787   0.01267  Uiso   1.00
O46    O     0.21410   0.39160   0.25041   0.01267  Uiso   1.00
O47    O     0.69010   0.75620   0.18845   0.01267  Uiso   1.00
O48    O     0.03550   0.20520   0.29269   0.01267  Uiso   1.00
O49    O     0.42150   0.75190   0.52139   0.01267  Uiso   1.00
O50    O     0.70490   0.16550   0.59718   0.01267  Uiso   1.00
O51    O     0.87950   0.16920   0.64120   0.01267  Uiso   1.00
O52    O     0.60840   0.82250   0.58374   0.01267  Uiso   1.00
O53    O     0.24380   0.93390   0.52178   0.01267  Uiso   1.00
O54    O     0.79480   0.83030   0.62602   0.01267  Uiso   1.00
O55    O     0.75190   0.33040   0.85473   0.01267  Uiso   1.00
O56    O     0.16550   0.46060   0.93052   0.01267  Uiso   1.00
O57    O     0.16920   0.28970   0.97454   0.01267  Uiso   1.00
O58    O     0.82250   0.21410   0.91708   0.01267  Uiso   1.00
O59    O     0.93390   0.69010   0.85512   0.01267  Uiso   1.00
O60    O     0.83030   0.03550   0.95936   0.01267  Uiso   1.00
O61    O     0.66960   0.42150   0.18806   0.01267  Uiso   1.00
O62    O     0.53940   0.70490   0.26385   0.01267  Uiso   1.00
O63    O     0.71030   0.87950   0.30787   0.01267  Uiso   1.00
O64    O     0.78590   0.60840   0.25041   0.01267  Uiso   1.00
O65    O     0.30990   0.24380   0.18845   0.01267  Uiso   1.00
O66    O     0.96450   0.79480   0.29269   0.01267  Uiso   1.00
O67    O     0.57850   0.24810   0.52139   0.01267  Uiso   1.00
O68    O     0.29510   0.83450   0.59718   0.01267  Uiso   1.00
O69    O     0.12050   0.83080   0.64120   0.01267  Uiso   1.00
O70    O     0.39160   0.17750   0.58374   0.01267  Uiso   1.00
O71    O     0.75620   0.06610   0.52178   0.01267  Uiso   1.00
O72    O     0.20520   0.16970   0.62602   0.01267  Uiso   1.00
