data_EMEGEJ_clean
_audit_creation_date              2014-07-02
_audit_creation_method            'Materials Studio'
_symmetry_space_group_name_H-M    'P1'
_symmetry_Int_Tables_number       1
_symmetry_cell_setting            triclinic
loop_
_symmetry_equiv_pos_as_xyz
  x,y,z
_cell_length_a                    8.7097
_cell_length_b                    14.0738
_cell_length_c                    16.2065
_cell_angle_alpha                 114.0850
_cell_angle_beta                  91.0280
_cell_angle_gamma                 94.4630
loop_
_atom_site_label
_atom_site_type_symbol
_atom_site_fract_x
_atom_site_fract_y
_atom_site_fract_z
_atom_site_U_iso_or_equiv
_atom_site_adp_type
_atom_site_occupancy
Eu1    Eu    0.18541   0.04422   0.43851   0.01267  Uiso   1.00
Eu2    Eu    0.81459   0.95578   0.56149   0.01267  Uiso   1.00
H1     H     0.71940   0.13020   0.31380   0.01267  Uiso   1.00
H2     H     0.52920   0.10930   0.20370   0.01267  Uiso   1.00
H3     H     0.77340   0.90570   0.01360   0.01267  Uiso   1.00
H4     H     0.97310   0.93300   0.12240   0.01267  Uiso   1.00
H5     H     0.94190   0.16910   0.74630   0.01267  Uiso   1.00
H6     H     0.94150   0.28710   0.89610   0.01267  Uiso   1.00
H7     H     0.16660   0.50990   0.83440   0.01267  Uiso   1.00
H8     H     0.16530   0.39180   0.68440   0.01267  Uiso   1.00
H9     H     0.28080   0.55790   0.98540   0.01267  Uiso   1.00
H10    H     0.21590   0.58350   0.08290   0.01267  Uiso   1.00
H11    H     0.26530   0.33000   0.10500   0.01267  Uiso   1.00
H12    H     0.21150   0.44490   0.15670   0.01267  Uiso   1.00
H13    H     0.11750   0.36320   0.06670   0.01267  Uiso   1.00
H14    H     0.70490   0.22240   0.53870   0.01267  Uiso   1.00
H15    H     0.89780   0.35650   0.57130   0.01267  Uiso   1.00
H16    H     0.66420   0.47010   0.41880   0.01267  Uiso   1.00
H17    H     0.46780   0.33730   0.38780   0.01267  Uiso   1.00
H18    H     0.97770   0.67030   0.57900   0.01267  Uiso   1.00
H19    H     0.80020   0.63500   0.54550   0.01267  Uiso   1.00
H20    H     0.03180   0.64890   0.78660   0.01267  Uiso   1.00
H21    H     0.08510   0.58940   0.68570   0.01267  Uiso   1.00
H22    H     0.07890   0.71350   0.72790   0.01267  Uiso   1.00
H23    H     0.28060   0.86980   0.68620   0.01267  Uiso   1.00
H24    H     0.47080   0.89070   0.79630   0.01267  Uiso   1.00
H25    H     0.22660   0.09430   0.98640   0.01267  Uiso   1.00
H26    H     0.02690   0.06700   0.87760   0.01267  Uiso   1.00
H27    H     0.05810   0.83090   0.25370   0.01267  Uiso   1.00
H28    H     0.05850   0.71290   0.10390   0.01267  Uiso   1.00
H29    H     0.83340   0.49010   0.16560   0.01267  Uiso   1.00
H30    H     0.83470   0.60820   0.31560   0.01267  Uiso   1.00
H31    H     0.71920   0.44210   0.01460   0.01267  Uiso   1.00
H32    H     0.78410   0.41650   0.91710   0.01267  Uiso   1.00
H33    H     0.73470   0.67000   0.89500   0.01267  Uiso   1.00
H34    H     0.78850   0.55510   0.84330   0.01267  Uiso   1.00
H35    H     0.88250   0.63680   0.93330   0.01267  Uiso   1.00
H36    H     0.29510   0.77760   0.46130   0.01267  Uiso   1.00
H37    H     0.10220   0.64350   0.42870   0.01267  Uiso   1.00
H38    H     0.33580   0.52990   0.58120   0.01267  Uiso   1.00
H39    H     0.53220   0.66270   0.61220   0.01267  Uiso   1.00
H40    H     0.02230   0.32970   0.42100   0.01267  Uiso   1.00
H41    H     0.19980   0.36500   0.45450   0.01267  Uiso   1.00
H42    H     0.96820   0.35110   0.21340   0.01267  Uiso   1.00
H43    H     0.91490   0.41060   0.31430   0.01267  Uiso   1.00
H44    H     0.92110   0.28650   0.27210   0.01267  Uiso   1.00
C1     C     0.98290   0.04340   0.30020   0.01267  Uiso   1.00
C2     C     0.86240   0.03140   0.22900   0.01267  Uiso   1.00
C3     C     0.73110   0.08440   0.25260   0.01267  Uiso   1.00
C4     C     0.61680   0.07070   0.18680   0.01267  Uiso   1.00
C5     C     0.62690   0.00280   0.09770   0.01267  Uiso   1.00
C6     C     0.76220   0.95180   0.07480   0.01267  Uiso   1.00
C7     C     0.88120   0.96670   0.13960   0.01267  Uiso   1.00
C8     C     0.49540   0.98330   0.03060   0.01267  Uiso   1.00
C9     C     0.07820   0.18930   0.60800   0.01267  Uiso   1.00
C10    C     0.05840   0.26770   0.70100   0.01267  Uiso   1.00
C11    C     0.98930   0.23820   0.76440   0.01267  Uiso   1.00
C12    C     0.98880   0.30820   0.85320   0.01267  Uiso   1.00
C13    C     0.05800   0.41130   0.88130   0.01267  Uiso   1.00
C14    C     0.12180   0.44030   0.81710   0.01267  Uiso   1.00
C15    C     0.12170   0.37000   0.72790   0.01267  Uiso   1.00
C16    C     0.06260   0.48880   0.97930   0.01267  Uiso   1.00
C17    C     0.22360   0.52690   0.02210   0.01267  Uiso   1.00
C18    C     0.22020   0.38770   0.09730   0.01267  Uiso   1.00
C19    C     0.44020   0.18060   0.44020   0.01267  Uiso   1.00
C20    C     0.56520   0.26590   0.46050   0.01267  Uiso   1.00
C21    C     0.69560   0.27300   0.51460   0.01267  Uiso   1.00
C22    C     0.81090   0.35240   0.53330   0.01267  Uiso   1.00
C23    C     0.80300   0.42720   0.49760   0.01267  Uiso   1.00
C24    C     0.67260   0.41990   0.44340   0.01267  Uiso   1.00
C25    C     0.55560   0.34090   0.42490   0.01267  Uiso   1.00
C26    C     0.93070   0.51150   0.51570   0.01267  Uiso   1.00
C27    C     0.89000   0.61880   0.57410   0.01267  Uiso   1.00
C28    C     0.03000   0.64700   0.72600   0.01267  Uiso   1.00
C29    C     0.33820   0.93260   0.04910   0.01267  Uiso   1.00
C30    C     0.01710   0.95660   0.69980   0.01267  Uiso   1.00
C31    C     0.13760   0.96860   0.77100   0.01267  Uiso   1.00
C32    C     0.26890   0.91560   0.74740   0.01267  Uiso   1.00
C33    C     0.38320   0.92930   0.81320   0.01267  Uiso   1.00
C34    C     0.37310   0.99720   0.90230   0.01267  Uiso   1.00
C35    C     0.23780   0.04820   0.92520   0.01267  Uiso   1.00
C36    C     0.11880   0.03330   0.86040   0.01267  Uiso   1.00
C37    C     0.50460   0.01670   0.96940   0.01267  Uiso   1.00
C38    C     0.92180   0.81070   0.39200   0.01267  Uiso   1.00
C39    C     0.94160   0.73230   0.29900   0.01267  Uiso   1.00
C40    C     0.01070   0.76180   0.23560   0.01267  Uiso   1.00
C41    C     0.01120   0.69180   0.14680   0.01267  Uiso   1.00
C42    C     0.94200   0.58870   0.11870   0.01267  Uiso   1.00
C43    C     0.87820   0.55970   0.18290   0.01267  Uiso   1.00
C44    C     0.87830   0.63000   0.27210   0.01267  Uiso   1.00
C45    C     0.93740   0.51120   0.02070   0.01267  Uiso   1.00
C46    C     0.77640   0.47310   0.97790   0.01267  Uiso   1.00
C47    C     0.77980   0.61230   0.90270   0.01267  Uiso   1.00
C48    C     0.55980   0.81940   0.55980   0.01267  Uiso   1.00
C49    C     0.43480   0.73410   0.53950   0.01267  Uiso   1.00
C50    C     0.30440   0.72700   0.48540   0.01267  Uiso   1.00
C51    C     0.18910   0.64760   0.46670   0.01267  Uiso   1.00
C52    C     0.19700   0.57280   0.50240   0.01267  Uiso   1.00
C53    C     0.32740   0.58010   0.55660   0.01267  Uiso   1.00
C54    C     0.44440   0.65910   0.57510   0.01267  Uiso   1.00
C55    C     0.06930   0.48850   0.48430   0.01267  Uiso   1.00
C56    C     0.11000   0.38120   0.42590   0.01267  Uiso   1.00
C57    C     0.97000   0.35300   0.27400   0.01267  Uiso   1.00
C58    C     0.66180   0.06740   0.95090   0.01267  Uiso   1.00
S1     S     0.33460   0.43110   0.03400   0.01267  Uiso   1.00
S2     S     0.84500   0.63080   0.68520   0.01267  Uiso   1.00
S3     S     0.66540   0.56890   0.96600   0.01267  Uiso   1.00
S4     S     0.15500   0.36920   0.31480   0.01267  Uiso   1.00
O1     O     0.95420   0.09350   0.38350   0.01267  Uiso   1.00
O2     O     0.10650   0.00170   0.27870   0.01267  Uiso   1.00
O3     O     0.00620   0.09760   0.57770   0.01267  Uiso   1.00
O4     O     0.17160   0.21360   0.56150   0.01267  Uiso   1.00
O5     O     0.32170   0.17640   0.39450   0.01267  Uiso   1.00
O6     O     0.45660   0.11180   0.47190   0.01267  Uiso   1.00
O7     O     0.04580   0.90650   0.61650   0.01267  Uiso   1.00
O8     O     0.89350   0.99830   0.72130   0.01267  Uiso   1.00
O9     O     0.99380   0.90240   0.42230   0.01267  Uiso   1.00
O10    O     0.82840   0.78640   0.43850   0.01267  Uiso   1.00
O11    O     0.67830   0.82360   0.60550   0.01267  Uiso   1.00
O12    O     0.54340   0.88820   0.52810   0.01267  Uiso   1.00
