data_EMIGIR_charged
_audit_creation_date              2014-07-02
_audit_creation_method            'Materials Studio'
_symmetry_space_group_name_H-M    'P1'
_symmetry_Int_Tables_number       1
_symmetry_cell_setting            triclinic
loop_
_symmetry_equiv_pos_as_xyz
  x,y,z
_cell_length_a                    22.5629
_cell_length_b                    22.6617
_cell_length_c                    33.7015
_cell_angle_alpha                 90.0000
_cell_angle_beta                  90.0000
_cell_angle_gamma                 90.0000
loop_
_atom_site_label
_atom_site_type_symbol
_atom_site_fract_x
_atom_site_fract_y
_atom_site_fract_z
_atom_site_U_iso_or_equiv
_atom_site_adp_type
_atom_site_occupancy
In1    In    0.30705   0.58883   0.75875   0.01267  Uiso   1.00
In2    In    0.23332   0.67693   0.83822   0.01267  Uiso   1.00
In3    In    0.31586   0.51842   0.85968   0.01267  Uiso   1.00
In4    In    0.16420   0.52342   0.79383   0.01267  Uiso   1.00
In5    In    0.15416   0.74394   0.92468   0.01267  Uiso   1.00
In6    In    0.23413   0.60556   0.95003   0.01267  Uiso   1.00
In7    In    0.08024   0.61008   0.88431   0.01267  Uiso   1.00
In8    In    0.30703   0.45843   0.96269   0.01267  Uiso   1.00
In9    In    0.16287   0.45365   0.90667   0.01267  Uiso   1.00
In10   In    0.02785   0.46374   0.84427   0.01267  Uiso   1.00
In11   In    0.69295   0.91117   0.25875   0.01267  Uiso   1.00
In12   In    0.76668   0.82307   0.33822   0.01267  Uiso   1.00
In13   In    0.68414   0.98158   0.35968   0.01267  Uiso   1.00
In14   In    0.83580   0.97658   0.29383   0.01267  Uiso   1.00
In15   In    0.84584   0.75606   0.42468   0.01267  Uiso   1.00
In16   In    0.76587   0.89444   0.45003   0.01267  Uiso   1.00
In17   In    0.91976   0.88992   0.38431   0.01267  Uiso   1.00
In18   In    0.69297   0.04157   0.46269   0.01267  Uiso   1.00
In19   In    0.83713   0.04635   0.40667   0.01267  Uiso   1.00
In20   In    0.97215   0.03626   0.34427   0.01267  Uiso   1.00
In21   In    0.80705   0.41117   0.74125   0.01267  Uiso   1.00
In22   In    0.73332   0.32307   0.66178   0.01267  Uiso   1.00
In23   In    0.81586   0.48158   0.64032   0.01267  Uiso   1.00
In24   In    0.66420   0.47658   0.70617   0.01267  Uiso   1.00
In25   In    0.65416   0.25606   0.57532   0.01267  Uiso   1.00
In26   In    0.73413   0.39444   0.54997   0.01267  Uiso   1.00
In27   In    0.58024   0.38992   0.61569   0.01267  Uiso   1.00
In28   In    0.80703   0.54157   0.53731   0.01267  Uiso   1.00
In29   In    0.66287   0.54635   0.59333   0.01267  Uiso   1.00
In30   In    0.52785   0.53626   0.65573   0.01267  Uiso   1.00
In31   In    0.19295   0.08883   0.24125   0.01267  Uiso   1.00
In32   In    0.26668   0.17693   0.16178   0.01267  Uiso   1.00
In33   In    0.18414   0.01842   0.14032   0.01267  Uiso   1.00
In34   In    0.33580   0.02342   0.20617   0.01267  Uiso   1.00
In35   In    0.34584   0.24394   0.07532   0.01267  Uiso   1.00
In36   In    0.26587   0.10556   0.04997   0.01267  Uiso   1.00
In37   In    0.41976   0.11008   0.11569   0.01267  Uiso   1.00
In38   In    0.19297   0.95843   0.03731   0.01267  Uiso   1.00
In39   In    0.33713   0.95365   0.09333   0.01267  Uiso   1.00
In40   In    0.47215   0.96374   0.15573   0.01267  Uiso   1.00
H1     H     0.42400   0.53430   0.71890   0.01267  Uiso   1.00
H2     H     0.34220   0.66940   0.67730   0.01267  Uiso   1.00
H3     H     0.20620   0.83750   0.98810   0.01267  Uiso   1.00
H4     H     0.05500   0.85900   0.93360   0.01267  Uiso   1.00
H5     H     0.04010   0.96030   0.01060   0.01267  Uiso   1.00
H6     H     0.02980   0.97220   0.96430   0.01267  Uiso   1.00
H7     H     0.08540   0.00130   0.98650   0.01267  Uiso   1.00
H8     H     0.57600   0.96570   0.21890   0.01267  Uiso   1.00
H9     H     0.65780   0.83060   0.17730   0.01267  Uiso   1.00
H10    H     0.79380   0.66250   0.48810   0.01267  Uiso   1.00
H11    H     0.94500   0.64100   0.43360   0.01267  Uiso   1.00
H12    H     0.95990   0.53970   0.51060   0.01267  Uiso   1.00
H13    H     0.97020   0.52780   0.46430   0.01267  Uiso   1.00
H14    H     0.91460   0.49870   0.48650   0.01267  Uiso   1.00
H15    H     0.92400   0.46570   0.78110   0.01267  Uiso   1.00
H16    H     0.84220   0.33060   0.82270   0.01267  Uiso   1.00
H17    H     0.70620   0.16250   0.51190   0.01267  Uiso   1.00
H18    H     0.55500   0.14100   0.56640   0.01267  Uiso   1.00
H19    H     0.54010   0.03970   0.48940   0.01267  Uiso   1.00
H20    H     0.52980   0.02780   0.53570   0.01267  Uiso   1.00
H21    H     0.58540   0.99870   0.51350   0.01267  Uiso   1.00
H22    H     0.07600   0.03430   0.28110   0.01267  Uiso   1.00
H23    H     0.15780   0.16940   0.32270   0.01267  Uiso   1.00
H24    H     0.29380   0.33750   0.01190   0.01267  Uiso   1.00
H25    H     0.44500   0.35900   0.06640   0.01267  Uiso   1.00
H26    H     0.45990   0.46030   0.98940   0.01267  Uiso   1.00
H27    H     0.47020   0.47220   0.03570   0.01267  Uiso   1.00
H28    H     0.41460   0.50130   0.01350   0.01267  Uiso   1.00
C1     C     0.41400   0.56670   0.70230   0.01267  Uiso   1.00
C2     C     0.37020   0.63850   0.68090   0.01267  Uiso   1.00
C3     C     0.41980   0.63040   0.65800   0.01267  Uiso   1.00
C4     C     0.16910   0.85300   0.97970   0.01267  Uiso   1.00
C5     C     0.08840   0.86460   0.95040   0.01267  Uiso   1.00
C6     C     0.09780   0.91150   0.97480   0.01267  Uiso   1.00
C7     C     0.05980   0.96640   0.98500   0.01267  Uiso   1.00
C8     C     0.58600   0.93330   0.20230   0.01267  Uiso   1.00
C9     C     0.62980   0.86150   0.18090   0.01267  Uiso   1.00
C10    C     0.58020   0.86960   0.15800   0.01267  Uiso   1.00
C11    C     0.83090   0.64700   0.47970   0.01267  Uiso   1.00
C12    C     0.91160   0.63540   0.45040   0.01267  Uiso   1.00
C13    C     0.90220   0.58850   0.47480   0.01267  Uiso   1.00
C14    C     0.94020   0.53360   0.48500   0.01267  Uiso   1.00
C15    C     0.91400   0.43330   0.79770   0.01267  Uiso   1.00
C16    C     0.87020   0.36150   0.81910   0.01267  Uiso   1.00
C17    C     0.91980   0.36960   0.84200   0.01267  Uiso   1.00
C18    C     0.66910   0.14700   0.52030   0.01267  Uiso   1.00
C19    C     0.58840   0.13540   0.54960   0.01267  Uiso   1.00
C20    C     0.59780   0.08850   0.52520   0.01267  Uiso   1.00
C21    C     0.55980   0.03360   0.51500   0.01267  Uiso   1.00
C22    C     0.08600   0.06670   0.29770   0.01267  Uiso   1.00
C23    C     0.12980   0.13850   0.31910   0.01267  Uiso   1.00
C24    C     0.08020   0.13040   0.34200   0.01267  Uiso   1.00
C25    C     0.33090   0.35300   0.02030   0.01267  Uiso   1.00
C26    C     0.41160   0.36460   0.04960   0.01267  Uiso   1.00
C27    C     0.40220   0.41150   0.02520   0.01267  Uiso   1.00
C28    C     0.44020   0.46640   0.01500   0.01267  Uiso   1.00
S1     S     0.29080   0.68990   0.77880   0.01267  Uiso   1.00
S2     S     0.37260   0.52950   0.79986   0.01267  Uiso   1.00
S3     S     0.22150   0.53610   0.73399   0.01267  Uiso   1.00
S4     S     0.20970   0.77200   0.86590   0.01267  Uiso   1.00
S5     S     0.29250   0.61800   0.88721   0.01267  Uiso   1.00
S6     S     0.13910   0.62280   0.82192   0.01267  Uiso   1.00
S7     S     0.37460   0.46250   0.90647   0.01267  Uiso   1.00
S8     S     0.22160   0.46530   0.84424   0.01267  Uiso   1.00
S9     S     0.07490   0.46920   0.77948   0.01267  Uiso   1.00
S10    S     0.21320   0.70110   0.97755   0.01267  Uiso   1.00
S11    S     0.05610   0.70410   0.91310   0.01267  Uiso   1.00
S12    S     0.29260   0.55120   0.99715   0.01267  Uiso   1.00
S13    S     0.13880   0.55310   0.93434   0.01267  Uiso   1.00
S14    S     0.98990   0.55800   0.86841   0.01267  Uiso   1.00
S15    S     0.22010   0.39710   0.95350   0.01267  Uiso   1.00
S16    S     0.07210   0.40030   0.89367   0.01267  Uiso   1.00
S17    S     0.70920   0.81010   0.27880   0.01267  Uiso   1.00
S18    S     0.62740   0.97050   0.29986   0.01267  Uiso   1.00
S19    S     0.77850   0.96390   0.23399   0.01267  Uiso   1.00
S20    S     0.79030   0.72800   0.36590   0.01267  Uiso   1.00
S21    S     0.70750   0.88200   0.38721   0.01267  Uiso   1.00
S22    S     0.86090   0.87720   0.32192   0.01267  Uiso   1.00
S23    S     0.62540   0.03750   0.40647   0.01267  Uiso   1.00
S24    S     0.77840   0.03470   0.34424   0.01267  Uiso   1.00
S25    S     0.92510   0.03080   0.27948   0.01267  Uiso   1.00
S26    S     0.78680   0.79890   0.47755   0.01267  Uiso   1.00
S27    S     0.94390   0.79590   0.41310   0.01267  Uiso   1.00
S28    S     0.70740   0.94880   0.49715   0.01267  Uiso   1.00
S29    S     0.86120   0.94690   0.43434   0.01267  Uiso   1.00
S30    S     0.01010   0.94200   0.36841   0.01267  Uiso   1.00
S31    S     0.77990   0.10290   0.45350   0.01267  Uiso   1.00
S32    S     0.92790   0.09970   0.39367   0.01267  Uiso   1.00
S33    S     0.79080   0.31010   0.72120   0.01267  Uiso   1.00
S34    S     0.87260   0.47050   0.70014   0.01267  Uiso   1.00
S35    S     0.72150   0.46390   0.76601   0.01267  Uiso   1.00
S36    S     0.70970   0.22800   0.63410   0.01267  Uiso   1.00
S37    S     0.79250   0.38200   0.61279   0.01267  Uiso   1.00
S38    S     0.63910   0.37720   0.67808   0.01267  Uiso   1.00
S39    S     0.87460   0.53750   0.59353   0.01267  Uiso   1.00
S40    S     0.72160   0.53470   0.65576   0.01267  Uiso   1.00
S41    S     0.57490   0.53080   0.72052   0.01267  Uiso   1.00
S42    S     0.71320   0.29890   0.52245   0.01267  Uiso   1.00
S43    S     0.55610   0.29590   0.58690   0.01267  Uiso   1.00
S44    S     0.79260   0.44880   0.50285   0.01267  Uiso   1.00
S45    S     0.63880   0.44690   0.56566   0.01267  Uiso   1.00
S46    S     0.48990   0.44200   0.63159   0.01267  Uiso   1.00
S47    S     0.72010   0.60290   0.54650   0.01267  Uiso   1.00
S48    S     0.57210   0.59970   0.60633   0.01267  Uiso   1.00
S49    S     0.20920   0.18990   0.22120   0.01267  Uiso   1.00
S50    S     0.12740   0.02950   0.20014   0.01267  Uiso   1.00
S51    S     0.27850   0.03610   0.26601   0.01267  Uiso   1.00
S52    S     0.29030   0.27200   0.13410   0.01267  Uiso   1.00
S53    S     0.20750   0.11800   0.11279   0.01267  Uiso   1.00
S54    S     0.36090   0.12280   0.17808   0.01267  Uiso   1.00
S55    S     0.12540   0.96250   0.09353   0.01267  Uiso   1.00
S56    S     0.27840   0.96530   0.15576   0.01267  Uiso   1.00
S57    S     0.42510   0.96920   0.22052   0.01267  Uiso   1.00
S58    S     0.28680   0.20110   0.02245   0.01267  Uiso   1.00
S59    S     0.44390   0.20410   0.08690   0.01267  Uiso   1.00
S60    S     0.20740   0.05120   0.00285   0.01267  Uiso   1.00
S61    S     0.36120   0.05310   0.06566   0.01267  Uiso   1.00
S62    S     0.51010   0.05800   0.13159   0.01267  Uiso   1.00
S63    S     0.27990   0.89710   0.04650   0.01267  Uiso   1.00
S64    S     0.42790   0.90030   0.10633   0.01267  Uiso   1.00
N1     N     0.36680   0.59860   0.70790   0.01267  Uiso   1.00
N2     N     0.44630   0.58240   0.67240   0.01267  Uiso   1.00
N3     N     0.13580   0.82660   0.95410   0.01267  Uiso   1.00
N4     N     0.14770   0.90310   0.99330   0.01267  Uiso   1.00
N5     N     0.63320   0.90140   0.20790   0.01267  Uiso   1.00
N6     N     0.55370   0.91760   0.17240   0.01267  Uiso   1.00
N7     N     0.86420   0.67340   0.45410   0.01267  Uiso   1.00
N8     N     0.85230   0.59690   0.49330   0.01267  Uiso   1.00
N9     N     0.86680   0.40140   0.79210   0.01267  Uiso   1.00
N10    N     0.94630   0.41760   0.82760   0.01267  Uiso   1.00
N11    N     0.63580   0.17340   0.54590   0.01267  Uiso   1.00
N12    N     0.64770   0.09690   0.50670   0.01267  Uiso   1.00
N13    N     0.13320   0.09860   0.29210   0.01267  Uiso   1.00
N14    N     0.05370   0.08240   0.32760   0.01267  Uiso   1.00
N15    N     0.36420   0.32660   0.04590   0.01267  Uiso   1.00
N16    N     0.35230   0.40310   0.00670   0.01267  Uiso   1.00
In41   In    0.69295   0.41117   0.24125   0.01267  Uiso   1.00
In42   In    0.76668   0.32307   0.16178   0.01267  Uiso   1.00
In43   In    0.68414   0.48158   0.14032   0.01267  Uiso   1.00
In44   In    0.83580   0.47658   0.20617   0.01267  Uiso   1.00
In45   In    0.84584   0.25606   0.07532   0.01267  Uiso   1.00
In46   In    0.76587   0.39444   0.04997   0.01267  Uiso   1.00
In47   In    0.91976   0.38992   0.11569   0.01267  Uiso   1.00
In48   In    0.69297   0.54157   0.03731   0.01267  Uiso   1.00
In49   In    0.83713   0.54635   0.09333   0.01267  Uiso   1.00
In50   In    0.97215   0.53626   0.15573   0.01267  Uiso   1.00
In51   In    0.30705   0.08883   0.74125   0.01267  Uiso   1.00
In52   In    0.23332   0.17693   0.66178   0.01267  Uiso   1.00
In53   In    0.31586   0.01842   0.64032   0.01267  Uiso   1.00
In54   In    0.16420   0.02342   0.70617   0.01267  Uiso   1.00
In55   In    0.15416   0.24394   0.57532   0.01267  Uiso   1.00
In56   In    0.23413   0.10556   0.54997   0.01267  Uiso   1.00
In57   In    0.08024   0.11008   0.61569   0.01267  Uiso   1.00
In58   In    0.30703   0.95843   0.53731   0.01267  Uiso   1.00
In59   In    0.16287   0.95365   0.59333   0.01267  Uiso   1.00
In60   In    0.02785   0.96374   0.65573   0.01267  Uiso   1.00
In61   In    0.19295   0.58883   0.25875   0.01267  Uiso   1.00
In62   In    0.26668   0.67693   0.33822   0.01267  Uiso   1.00
In63   In    0.18414   0.51842   0.35968   0.01267  Uiso   1.00
In64   In    0.33580   0.52342   0.29383   0.01267  Uiso   1.00
In65   In    0.34584   0.74394   0.42468   0.01267  Uiso   1.00
In66   In    0.26587   0.60556   0.45003   0.01267  Uiso   1.00
In67   In    0.41976   0.61008   0.38431   0.01267  Uiso   1.00
In68   In    0.19297   0.45843   0.46269   0.01267  Uiso   1.00
In69   In    0.33713   0.45365   0.40667   0.01267  Uiso   1.00
In70   In    0.47215   0.46374   0.34427   0.01267  Uiso   1.00
In71   In    0.80705   0.91117   0.75875   0.01267  Uiso   1.00
In72   In    0.73332   0.82307   0.83822   0.01267  Uiso   1.00
In73   In    0.81586   0.98158   0.85968   0.01267  Uiso   1.00
In74   In    0.66420   0.97658   0.79383   0.01267  Uiso   1.00
In75   In    0.65416   0.75606   0.92468   0.01267  Uiso   1.00
In76   In    0.73413   0.89444   0.95003   0.01267  Uiso   1.00
In77   In    0.58024   0.88992   0.88431   0.01267  Uiso   1.00
In78   In    0.80703   0.04157   0.96269   0.01267  Uiso   1.00
In79   In    0.66287   0.04635   0.90667   0.01267  Uiso   1.00
In80   In    0.52785   0.03626   0.84427   0.01267  Uiso   1.00
H29    H     0.57600   0.46570   0.28110   0.01267  Uiso   1.00
H30    H     0.65780   0.33060   0.32270   0.01267  Uiso   1.00
H31    H     0.79380   0.16250   0.01190   0.01267  Uiso   1.00
H32    H     0.94500   0.14100   0.06640   0.01267  Uiso   1.00
H33    H     0.95990   0.03970   0.98940   0.01267  Uiso   1.00
H34    H     0.97020   0.02780   0.03570   0.01267  Uiso   1.00
H35    H     0.91460   0.99870   0.01350   0.01267  Uiso   1.00
H36    H     0.42400   0.03430   0.78110   0.01267  Uiso   1.00
H37    H     0.34220   0.16940   0.82270   0.01267  Uiso   1.00
H38    H     0.20620   0.33750   0.51190   0.01267  Uiso   1.00
H39    H     0.05500   0.35900   0.56640   0.01267  Uiso   1.00
H40    H     0.04010   0.46030   0.48940   0.01267  Uiso   1.00
H41    H     0.02980   0.47220   0.53570   0.01267  Uiso   1.00
H42    H     0.08540   0.50130   0.51350   0.01267  Uiso   1.00
H43    H     0.07600   0.53430   0.21890   0.01267  Uiso   1.00
H44    H     0.15780   0.66940   0.17730   0.01267  Uiso   1.00
H45    H     0.29380   0.83750   0.48810   0.01267  Uiso   1.00
H46    H     0.44500   0.85900   0.43360   0.01267  Uiso   1.00
H47    H     0.45990   0.96030   0.51060   0.01267  Uiso   1.00
H48    H     0.47020   0.97220   0.46430   0.01267  Uiso   1.00
H49    H     0.41460   0.00130   0.48650   0.01267  Uiso   1.00
H50    H     0.92400   0.96570   0.71890   0.01267  Uiso   1.00
H51    H     0.84220   0.83060   0.67730   0.01267  Uiso   1.00
H52    H     0.70620   0.66250   0.98810   0.01267  Uiso   1.00
H53    H     0.55500   0.64100   0.93360   0.01267  Uiso   1.00
H54    H     0.54010   0.53970   0.01060   0.01267  Uiso   1.00
H55    H     0.52980   0.52780   0.96430   0.01267  Uiso   1.00
H56    H     0.58540   0.49870   0.98650   0.01267  Uiso   1.00
C29    C     0.58600   0.43330   0.29770   0.01267  Uiso   1.00
C30    C     0.62980   0.36150   0.31910   0.01267  Uiso   1.00
C31    C     0.58020   0.36960   0.34200   0.01267  Uiso   1.00
C32    C     0.83090   0.14700   0.02030   0.01267  Uiso   1.00
C33    C     0.91160   0.13540   0.04960   0.01267  Uiso   1.00
C34    C     0.90220   0.08850   0.02520   0.01267  Uiso   1.00
C35    C     0.94020   0.03360   0.01500   0.01267  Uiso   1.00
C36    C     0.41400   0.06670   0.79770   0.01267  Uiso   1.00
C37    C     0.37020   0.13850   0.81910   0.01267  Uiso   1.00
C38    C     0.41980   0.13040   0.84200   0.01267  Uiso   1.00
C39    C     0.16910   0.35300   0.52030   0.01267  Uiso   1.00
C40    C     0.08840   0.36460   0.54960   0.01267  Uiso   1.00
C41    C     0.09780   0.41150   0.52520   0.01267  Uiso   1.00
C42    C     0.05980   0.46640   0.51500   0.01267  Uiso   1.00
C43    C     0.08600   0.56670   0.20230   0.01267  Uiso   1.00
C44    C     0.12980   0.63850   0.18090   0.01267  Uiso   1.00
C45    C     0.08020   0.63040   0.15800   0.01267  Uiso   1.00
C46    C     0.33090   0.85300   0.47970   0.01267  Uiso   1.00
C47    C     0.41160   0.86460   0.45040   0.01267  Uiso   1.00
C48    C     0.40220   0.91150   0.47480   0.01267  Uiso   1.00
C49    C     0.44020   0.96640   0.48500   0.01267  Uiso   1.00
C50    C     0.91400   0.93330   0.70230   0.01267  Uiso   1.00
C51    C     0.87020   0.86150   0.68090   0.01267  Uiso   1.00
C52    C     0.91980   0.86960   0.65800   0.01267  Uiso   1.00
C53    C     0.66910   0.64700   0.97970   0.01267  Uiso   1.00
C54    C     0.58840   0.63540   0.95040   0.01267  Uiso   1.00
C55    C     0.59780   0.58850   0.97480   0.01267  Uiso   1.00
C56    C     0.55980   0.53360   0.98500   0.01267  Uiso   1.00
S65    S     0.70920   0.31010   0.22120   0.01267  Uiso   1.00
S66    S     0.62740   0.47050   0.20014   0.01267  Uiso   1.00
S67    S     0.77850   0.46390   0.26601   0.01267  Uiso   1.00
S68    S     0.79030   0.22800   0.13410   0.01267  Uiso   1.00
S69    S     0.70750   0.38200   0.11279   0.01267  Uiso   1.00
S70    S     0.86090   0.37720   0.17808   0.01267  Uiso   1.00
S71    S     0.62540   0.53750   0.09353   0.01267  Uiso   1.00
S72    S     0.77840   0.53470   0.15576   0.01267  Uiso   1.00
S73    S     0.92510   0.53080   0.22052   0.01267  Uiso   1.00
S74    S     0.78680   0.29890   0.02245   0.01267  Uiso   1.00
S75    S     0.94390   0.29590   0.08690   0.01267  Uiso   1.00
S76    S     0.70740   0.44880   0.00285   0.01267  Uiso   1.00
S77    S     0.86120   0.44690   0.06566   0.01267  Uiso   1.00
S78    S     0.01010   0.44200   0.13159   0.01267  Uiso   1.00
S79    S     0.77990   0.60290   0.04650   0.01267  Uiso   1.00
S80    S     0.92790   0.59970   0.10633   0.01267  Uiso   1.00
S81    S     0.29080   0.18990   0.72120   0.01267  Uiso   1.00
S82    S     0.37260   0.02950   0.70014   0.01267  Uiso   1.00
S83    S     0.22150   0.03610   0.76601   0.01267  Uiso   1.00
S84    S     0.20970   0.27200   0.63410   0.01267  Uiso   1.00
S85    S     0.29250   0.11800   0.61279   0.01267  Uiso   1.00
S86    S     0.13910   0.12280   0.67808   0.01267  Uiso   1.00
S87    S     0.37460   0.96250   0.59353   0.01267  Uiso   1.00
S88    S     0.22160   0.96530   0.65576   0.01267  Uiso   1.00
S89    S     0.07490   0.96920   0.72052   0.01267  Uiso   1.00
S90    S     0.21320   0.20110   0.52245   0.01267  Uiso   1.00
S91    S     0.05610   0.20410   0.58690   0.01267  Uiso   1.00
S92    S     0.29260   0.05120   0.50285   0.01267  Uiso   1.00
S93    S     0.13880   0.05310   0.56566   0.01267  Uiso   1.00
S94    S     0.98990   0.05800   0.63159   0.01267  Uiso   1.00
S95    S     0.22010   0.89710   0.54650   0.01267  Uiso   1.00
S96    S     0.07210   0.90030   0.60633   0.01267  Uiso   1.00
S97    S     0.20920   0.68990   0.27880   0.01267  Uiso   1.00
S98    S     0.12740   0.52950   0.29986   0.01267  Uiso   1.00
S99    S     0.27850   0.53610   0.23399   0.01267  Uiso   1.00
S100   S     0.29030   0.77200   0.36590   0.01267  Uiso   1.00
S101   S     0.20750   0.61800   0.38721   0.01267  Uiso   1.00
S102   S     0.36090   0.62280   0.32192   0.01267  Uiso   1.00
S103   S     0.12540   0.46250   0.40647   0.01267  Uiso   1.00
S104   S     0.27840   0.46530   0.34424   0.01267  Uiso   1.00
S105   S     0.42510   0.46920   0.27948   0.01267  Uiso   1.00
S106   S     0.28680   0.70110   0.47755   0.01267  Uiso   1.00
S107   S     0.44390   0.70410   0.41310   0.01267  Uiso   1.00
S108   S     0.20740   0.55120   0.49715   0.01267  Uiso   1.00
S109   S     0.36120   0.55310   0.43434   0.01267  Uiso   1.00
S110   S     0.51010   0.55800   0.36841   0.01267  Uiso   1.00
S111   S     0.27990   0.39710   0.45350   0.01267  Uiso   1.00
S112   S     0.42790   0.40030   0.39367   0.01267  Uiso   1.00
S113   S     0.79080   0.81010   0.77880   0.01267  Uiso   1.00
S114   S     0.87260   0.97050   0.79986   0.01267  Uiso   1.00
S115   S     0.72150   0.96390   0.73399   0.01267  Uiso   1.00
S116   S     0.70970   0.72800   0.86590   0.01267  Uiso   1.00
S117   S     0.79250   0.88200   0.88721   0.01267  Uiso   1.00
S118   S     0.63910   0.87720   0.82192   0.01267  Uiso   1.00
S119   S     0.87460   0.03750   0.90647   0.01267  Uiso   1.00
S120   S     0.72160   0.03470   0.84424   0.01267  Uiso   1.00
S121   S     0.57490   0.03080   0.77948   0.01267  Uiso   1.00
S122   S     0.71320   0.79890   0.97755   0.01267  Uiso   1.00
S123   S     0.55610   0.79590   0.91310   0.01267  Uiso   1.00
S124   S     0.79260   0.94880   0.99715   0.01267  Uiso   1.00
S125   S     0.63880   0.94690   0.93434   0.01267  Uiso   1.00
S126   S     0.48990   0.94200   0.86841   0.01267  Uiso   1.00
S127   S     0.72010   0.10290   0.95350   0.01267  Uiso   1.00
S128   S     0.57210   0.09970   0.89367   0.01267  Uiso   1.00
N17    N     0.63320   0.40140   0.29210   0.01267  Uiso   1.00
N18    N     0.55370   0.41760   0.32760   0.01267  Uiso   1.00
N19    N     0.86420   0.17340   0.04590   0.01267  Uiso   1.00
N20    N     0.85230   0.09690   0.00670   0.01267  Uiso   1.00
N21    N     0.36680   0.09860   0.79210   0.01267  Uiso   1.00
N22    N     0.44630   0.08240   0.82760   0.01267  Uiso   1.00
N23    N     0.13580   0.32660   0.54590   0.01267  Uiso   1.00
N24    N     0.14770   0.40310   0.50670   0.01267  Uiso   1.00
N25    N     0.13320   0.59860   0.20790   0.01267  Uiso   1.00
N26    N     0.05370   0.58240   0.17240   0.01267  Uiso   1.00
N27    N     0.36420   0.82660   0.45410   0.01267  Uiso   1.00
N28    N     0.35230   0.90310   0.49330   0.01267  Uiso   1.00
N29    N     0.86680   0.90140   0.70790   0.01267  Uiso   1.00
N30    N     0.94630   0.91760   0.67240   0.01267  Uiso   1.00
N31    N     0.63580   0.67340   0.95410   0.01267  Uiso   1.00
N32    N     0.64770   0.59690   0.99330   0.01267  Uiso   1.00
