data_EMIYEF_clean
_audit_creation_date              2014-07-02
_audit_creation_method            'Materials Studio'
_symmetry_space_group_name_H-M    'P1'
_symmetry_Int_Tables_number       1
_symmetry_cell_setting            triclinic
loop_
_symmetry_equiv_pos_as_xyz
  x,y,z
_cell_length_a                    9.5193
_cell_length_b                    10.9534
_cell_length_c                    11.4935
_cell_angle_alpha                 91.7860
_cell_angle_beta                  113.8000
_cell_angle_gamma                 105.4690
loop_
_atom_site_label
_atom_site_type_symbol
_atom_site_fract_x
_atom_site_fract_y
_atom_site_fract_z
_atom_site_U_iso_or_equiv
_atom_site_adp_type
_atom_site_occupancy
Co1    Co    0.00000   0.50000   0.50000   0.01267  Uiso   1.00
Mo1    Mo    0.41889   0.62111   0.74983   0.01267  Uiso   1.00
Mo2    Mo    0.51151   0.64734   0.06347   0.01267  Uiso   1.00
Mo3    Mo    0.52394   0.92865   0.86002   0.01267  Uiso   1.00
Mo4    Mo    0.58111   0.37889   0.25017   0.01267  Uiso   1.00
Mo5    Mo    0.48849   0.35266   0.93653   0.01267  Uiso   1.00
Mo6    Mo    0.47606   0.07135   0.13998   0.01267  Uiso   1.00
H1     H     0.88980   0.57060   0.22200   0.01267  Uiso   1.00
H2     H     0.25060   0.76320   0.54070   0.01267  Uiso   1.00
H3     H     0.33140   0.91960   0.43210   0.01267  Uiso   1.00
H4     H     0.18710   0.90230   0.21170   0.01267  Uiso   1.00
H5     H     0.94970   0.58240   0.73500   0.01267  Uiso   1.00
H6     H     0.79860   0.68120   0.39480   0.01267  Uiso   1.00
H7     H     0.67110   0.80810   0.45010   0.01267  Uiso   1.00
H8     H     0.68060   0.82060   0.65570   0.01267  Uiso   1.00
H9     H     0.13060   0.76820   0.89620   0.01267  Uiso   1.00
H10    H     0.19870   0.77850   0.03900   0.01267  Uiso   1.00
H11    H     0.11020   0.42940   0.77800   0.01267  Uiso   1.00
H12    H     0.74940   0.23680   0.45930   0.01267  Uiso   1.00
H13    H     0.66860   0.08040   0.56790   0.01267  Uiso   1.00
H14    H     0.81290   0.09770   0.78830   0.01267  Uiso   1.00
H15    H     0.05030   0.41760   0.26500   0.01267  Uiso   1.00
H16    H     0.20140   0.31880   0.60520   0.01267  Uiso   1.00
H17    H     0.32890   0.19190   0.54990   0.01267  Uiso   1.00
H18    H     0.31940   0.17940   0.34430   0.01267  Uiso   1.00
H19    H     0.86940   0.23180   0.10380   0.01267  Uiso   1.00
H20    H     0.80130   0.22150   0.96100   0.01267  Uiso   1.00
C1     C     0.91150   0.71530   0.05700   0.01267  Uiso   1.00
C2     C     0.02010   0.73320   0.19440   0.01267  Uiso   1.00
C3     C     0.98010   0.64170   0.26480   0.01267  Uiso   1.00
C4     C     0.19230   0.75420   0.45200   0.01267  Uiso   1.00
C5     C     0.24090   0.84930   0.38710   0.01267  Uiso   1.00
C6     C     0.15560   0.83990   0.25680   0.01267  Uiso   1.00
C7     C     0.82360   0.70080   0.84770   0.01267  Uiso   1.00
C8     C     0.81770   0.70180   0.71740   0.01267  Uiso   1.00
C9     C     0.89260   0.62830   0.67710   0.01267  Uiso   1.00
C10    C     0.80420   0.68650   0.47760   0.01267  Uiso   1.00
C11    C     0.72650   0.76280   0.50980   0.01267  Uiso   1.00
C12    C     0.73240   0.77060   0.63160   0.01267  Uiso   1.00
C13    C     0.08850   0.28470   0.94300   0.01267  Uiso   1.00
C14    C     0.97990   0.26680   0.80560   0.01267  Uiso   1.00
C15    C     0.01990   0.35830   0.73520   0.01267  Uiso   1.00
C16    C     0.80770   0.24580   0.54800   0.01267  Uiso   1.00
C17    C     0.75910   0.15070   0.61290   0.01267  Uiso   1.00
C18    C     0.84440   0.16010   0.74320   0.01267  Uiso   1.00
C19    C     0.17640   0.29920   0.15230   0.01267  Uiso   1.00
C20    C     0.18230   0.29820   0.28260   0.01267  Uiso   1.00
C21    C     0.10740   0.37170   0.32290   0.01267  Uiso   1.00
C22    C     0.19580   0.31350   0.52240   0.01267  Uiso   1.00
C23    C     0.27350   0.23720   0.49020   0.01267  Uiso   1.00
C24    C     0.26760   0.22940   0.36840   0.01267  Uiso   1.00
N1     N     0.75440   0.68210   0.00700   0.01267  Uiso   1.00
N2     N     0.69950   0.67400   0.87550   0.01267  Uiso   1.00
N3     N     0.95980   0.72750   0.95860   0.01267  Uiso   1.00
N4     N     0.11680   0.76260   0.96550   0.01267  Uiso   1.00
N5     N     0.06520   0.65030   0.39200   0.01267  Uiso   1.00
N6     N     0.88650   0.62050   0.55890   0.01267  Uiso   1.00
N7     N     0.24560   0.31790   0.99300   0.01267  Uiso   1.00
N8     N     0.30050   0.32600   0.12450   0.01267  Uiso   1.00
N9     N     0.04020   0.27250   0.04140   0.01267  Uiso   1.00
N10    N     0.88320   0.23740   0.03450   0.01267  Uiso   1.00
N11    N     0.93480   0.34970   0.60800   0.01267  Uiso   1.00
N12    N     0.11350   0.37950   0.44110   0.01267  Uiso   1.00
O1     O     0.42980   0.51030   0.88550   0.01267  Uiso   1.00
O2     O     0.47640   0.78970   0.72090   0.01267  Uiso   1.00
O3     O     0.20810   0.58000   0.66940   0.01267  Uiso   1.00
O4     O     0.46680   0.74410   0.92830   0.01267  Uiso   1.00
O5     O     0.57020   0.48970   0.11450   0.01267  Uiso   1.00
O6     O     0.52360   0.21030   0.27910   0.01267  Uiso   1.00
O7     O     0.79190   0.42000   0.33060   0.01267  Uiso   1.00
O8     O     0.53320   0.25590   0.07170   0.01267  Uiso   1.00
O9     O     0.50000   0.00000   0.00000   0.01267  Uiso   1.00
