data_image0
_cell_length_a       45.4548
_cell_length_b       45.4548
_cell_length_c       15.5951
_cell_angle_alpha    90
_cell_angle_beta     90
_cell_angle_gamma    120

_symmetry_space_group_name_H-M    "P 1"
_symmetry_int_tables_number       1

loop_
  _symmetry_equiv_pos_as_xyz
  'x, y, z'

loop_
  _atom_site_label
  _atom_site_occupancy
  _atom_site_fract_x
  _atom_site_fract_y
  _atom_site_fract_z
  _atom_site_thermal_displace_type
  _atom_site_B_iso_or_equiv
  _atom_site_type_symbol
  O1       1.0000 0.42525  0.51597  0.58533  Biso   1.000  O
  O2       1.0000 0.41967  0.47071  0.65870  Biso   1.000  O
  C1       1.0000 0.41093  0.49219  0.63880  Biso   1.000  C
  C2       1.0000 0.38059  0.48961  0.68610  Biso   1.000  C
  C3       1.0000 0.36765  0.51009  0.65720  Biso   1.000  C
  H1       1.0000 0.37740  0.52440  0.60880  Biso   1.000  H
  C4       1.0000 0.34025  0.50909  0.70060  Biso   1.000  C
  H2       1.0000 0.33180  0.52360  0.68360  Biso   1.000  H
  C5       1.0000 0.32533  0.48661  0.76910  Biso   1.000  C
  C6       1.0000 0.33845  0.46593  0.79420  Biso   1.000  C
  H3       1.0000 0.32830  0.45060  0.84070  Biso   1.000  H
  C7       1.0000 0.36602  0.46749  0.75230  Biso   1.000  C
  H4       1.0000 0.37470  0.45320  0.76960  Biso   1.000  H
  C8       1.0000 0.29626  0.48527  0.81560  Biso   1.000  C
  C9       1.0000 0.27014  0.48614  0.77150  Biso   1.000  C
  H5       1.0000 0.27080  0.48740  0.71060  Biso   1.000  H
  C10      1.0000 0.26973  0.48447  0.95330  Biso   1.000  C
  C11      1.0000 0.29565  0.48456  0.90600  Biso   1.000  C
  H6       1.0000 0.31370  0.48410  0.93570  Biso   1.000  H
  O3       1.0000 0.48403  0.90928  0.58533  Biso   1.000  O
  O4       1.0000 0.52929  0.94896  0.65870  Biso   1.000  O
  C12      1.0000 0.50781  0.91874  0.63880  Biso   1.000  C
  C13      1.0000 0.51039  0.89098  0.68610  Biso   1.000  C
  C14      1.0000 0.48991  0.85756  0.65720  Biso   1.000  C
  H7       1.0000 0.47560  0.85300  0.60880  Biso   1.000  H
  C15      1.0000 0.49091  0.83116  0.70060  Biso   1.000  C
  H8       1.0000 0.47640  0.80820  0.68360  Biso   1.000  H
  C16      1.0000 0.51339  0.83872  0.76910  Biso   1.000  C
  C17      1.0000 0.53407  0.87252  0.79420  Biso   1.000  C
  H9       1.0000 0.54940  0.87770  0.84070  Biso   1.000  H
  C18      1.0000 0.53251  0.89853  0.75230  Biso   1.000  C
  H10      1.0000 0.54680  0.92150  0.76960  Biso   1.000  H
  C19      1.0000 0.51473  0.81099  0.81560  Biso   1.000  C
  C20      1.0000 0.51386  0.78400  0.77150  Biso   1.000  C
  H11      1.0000 0.51260  0.78340  0.71060  Biso   1.000  H
  C21      1.0000 0.51553  0.78526  0.95330  Biso   1.000  C
  C22      1.0000 0.51544  0.81109  0.90600  Biso   1.000  C
  H12      1.0000 0.51590  0.82960  0.93570  Biso   1.000  H
  O5       1.0000 0.09072  0.57475  0.58533  Biso   1.000  O
  O6       1.0000 0.05104  0.58033  0.65870  Biso   1.000  O
  C23      1.0000 0.08126  0.58907  0.63880  Biso   1.000  C
  C24      1.0000 0.10902  0.61941  0.68610  Biso   1.000  C
  C25      1.0000 0.14244  0.63235  0.65720  Biso   1.000  C
  H13      1.0000 0.14700  0.62260  0.60880  Biso   1.000  H
  C26      1.0000 0.16884  0.65975  0.70060  Biso   1.000  C
  H14      1.0000 0.19180  0.66820  0.68360  Biso   1.000  H
  C27      1.0000 0.16128  0.67467  0.76910  Biso   1.000  C
  C28      1.0000 0.12748  0.66155  0.79420  Biso   1.000  C
  H15      1.0000 0.12230  0.67170  0.84070  Biso   1.000  H
  C29      1.0000 0.10147  0.63398  0.75230  Biso   1.000  C
  H16      1.0000 0.07850  0.62530  0.76960  Biso   1.000  H
  C30      1.0000 0.18901  0.70374  0.81560  Biso   1.000  C
  C31      1.0000 0.21600  0.72986  0.77150  Biso   1.000  C
  H17      1.0000 0.21660  0.72920  0.71060  Biso   1.000  H
  C32      1.0000 0.21474  0.73027  0.95330  Biso   1.000  C
  C33      1.0000 0.18891  0.70435  0.90600  Biso   1.000  C
  H18      1.0000 0.17040  0.68630  0.93570  Biso   1.000  H
  O7       1.0000 0.57475  0.48403  0.58533  Biso   1.000  O
  O8       1.0000 0.58033  0.52929  0.65870  Biso   1.000  O
  C34      1.0000 0.58907  0.50781  0.63880  Biso   1.000  C
  C35      1.0000 0.61941  0.51039  0.68610  Biso   1.000  C
  C36      1.0000 0.63235  0.48991  0.65720  Biso   1.000  C
  H19      1.0000 0.62260  0.47560  0.60880  Biso   1.000  H
  C37      1.0000 0.65975  0.49091  0.70060  Biso   1.000  C
  H20      1.0000 0.66820  0.47640  0.68360  Biso   1.000  H
  C38      1.0000 0.67467  0.51339  0.76910  Biso   1.000  C
  C39      1.0000 0.66155  0.53407  0.79420  Biso   1.000  C
  H21      1.0000 0.67170  0.54940  0.84070  Biso   1.000  H
  C40      1.0000 0.63398  0.53251  0.75230  Biso   1.000  C
  H22      1.0000 0.62530  0.54680  0.76960  Biso   1.000  H
  C41      1.0000 0.70374  0.51473  0.81560  Biso   1.000  C
  C42      1.0000 0.72986  0.51386  0.77150  Biso   1.000  C
  H23      1.0000 0.72920  0.51260  0.71060  Biso   1.000  H
  C43      1.0000 0.73027  0.51553  0.95330  Biso   1.000  C
  C44      1.0000 0.70435  0.51544  0.90600  Biso   1.000  C
  H24      1.0000 0.68630  0.51590  0.93570  Biso   1.000  H
  O9       1.0000 0.51597  0.09072  0.58533  Biso   1.000  O
  O10      1.0000 0.47071  0.05104  0.65870  Biso   1.000  O
  C45      1.0000 0.49219  0.08126  0.63880  Biso   1.000  C
  C46      1.0000 0.48961  0.10902  0.68610  Biso   1.000  C
  C47      1.0000 0.51009  0.14244  0.65720  Biso   1.000  C
  H25      1.0000 0.52440  0.14700  0.60880  Biso   1.000  H
  C48      1.0000 0.50909  0.16884  0.70060  Biso   1.000  C
  H26      1.0000 0.52360  0.19180  0.68360  Biso   1.000  H
  C49      1.0000 0.48661  0.16128  0.76910  Biso   1.000  C
  C50      1.0000 0.46593  0.12748  0.79420  Biso   1.000  C
  H27      1.0000 0.45060  0.12230  0.84070  Biso   1.000  H
  C51      1.0000 0.46749  0.10147  0.75230  Biso   1.000  C
  H28      1.0000 0.45320  0.07850  0.76960  Biso   1.000  H
  C52      1.0000 0.48527  0.18901  0.81560  Biso   1.000  C
  C53      1.0000 0.48614  0.21600  0.77150  Biso   1.000  C
  H29      1.0000 0.48740  0.21660  0.71060  Biso   1.000  H
  C54      1.0000 0.48447  0.21474  0.95330  Biso   1.000  C
  C55      1.0000 0.48456  0.18891  0.90600  Biso   1.000  C
  H30      1.0000 0.48410  0.17040  0.93570  Biso   1.000  H
  O11      1.0000 0.90928  0.42525  0.58533  Biso   1.000  O
  O12      1.0000 0.94896  0.41967  0.65870  Biso   1.000  O
  C56      1.0000 0.91874  0.41093  0.63880  Biso   1.000  C
  C57      1.0000 0.89098  0.38059  0.68610  Biso   1.000  C
  C58      1.0000 0.85756  0.36765  0.65720  Biso   1.000  C
  H31      1.0000 0.85300  0.37740  0.60880  Biso   1.000  H
  C59      1.0000 0.83116  0.34025  0.70060  Biso   1.000  C
  H32      1.0000 0.80820  0.33180  0.68360  Biso   1.000  H
  C60      1.0000 0.83872  0.32533  0.76910  Biso   1.000  C
  C61      1.0000 0.87252  0.33845  0.79420  Biso   1.000  C
  H33      1.0000 0.87770  0.32830  0.84070  Biso   1.000  H
  C62      1.0000 0.89853  0.36602  0.75230  Biso   1.000  C
  H34      1.0000 0.92150  0.37470  0.76960  Biso   1.000  H
  C63      1.0000 0.81099  0.29626  0.81560  Biso   1.000  C
  C64      1.0000 0.78400  0.27014  0.77150  Biso   1.000  C
  H35      1.0000 0.78340  0.27080  0.71060  Biso   1.000  H
  C65      1.0000 0.78526  0.26973  0.95330  Biso   1.000  C
  C66      1.0000 0.81109  0.29565  0.90600  Biso   1.000  C
  H36      1.0000 0.82960  0.31370  0.93570  Biso   1.000  H
  O13      1.0000 0.51597  0.42525  0.41467  Biso   1.000  O
  O14      1.0000 0.47071  0.41967  0.34130  Biso   1.000  O
  C67      1.0000 0.49219  0.41093  0.36120  Biso   1.000  C
  C68      1.0000 0.48961  0.38059  0.31390  Biso   1.000  C
  C69      1.0000 0.51009  0.36765  0.34280  Biso   1.000  C
  H37      1.0000 0.52440  0.37740  0.39120  Biso   1.000  H
  C70      1.0000 0.50909  0.34025  0.29940  Biso   1.000  C
  H38      1.0000 0.52360  0.33180  0.31640  Biso   1.000  H
  C71      1.0000 0.48661  0.32533  0.23090  Biso   1.000  C
  C72      1.0000 0.46593  0.33845  0.20580  Biso   1.000  C
  H39      1.0000 0.45060  0.32830  0.15930  Biso   1.000  H
  C73      1.0000 0.46749  0.36602  0.24770  Biso   1.000  C
  H40      1.0000 0.45320  0.37470  0.23040  Biso   1.000  H
  C74      1.0000 0.48527  0.29626  0.18440  Biso   1.000  C
  C75      1.0000 0.48614  0.27014  0.22850  Biso   1.000  C
  H41      1.0000 0.48740  0.27080  0.28940  Biso   1.000  H
  C76      1.0000 0.48447  0.26973  0.04670  Biso   1.000  C
  C77      1.0000 0.48456  0.29565  0.09400  Biso   1.000  C
  H42      1.0000 0.48410  0.31370  0.06430  Biso   1.000  H
  O15      1.0000 0.90928  0.48403  0.41467  Biso   1.000  O
  O16      1.0000 0.94896  0.52929  0.34130  Biso   1.000  O
  C78      1.0000 0.91874  0.50781  0.36120  Biso   1.000  C
  C79      1.0000 0.89098  0.51039  0.31390  Biso   1.000  C
  C80      1.0000 0.85756  0.48991  0.34280  Biso   1.000  C
  H43      1.0000 0.85300  0.47560  0.39120  Biso   1.000  H
  C81      1.0000 0.83116  0.49091  0.29940  Biso   1.000  C
  H44      1.0000 0.80820  0.47640  0.31640  Biso   1.000  H
  C82      1.0000 0.83872  0.51339  0.23090  Biso   1.000  C
  C83      1.0000 0.87252  0.53407  0.20580  Biso   1.000  C
  H45      1.0000 0.87770  0.54940  0.15930  Biso   1.000  H
  C84      1.0000 0.89853  0.53251  0.24770  Biso   1.000  C
  H46      1.0000 0.92150  0.54680  0.23040  Biso   1.000  H
  C85      1.0000 0.81099  0.51473  0.18440  Biso   1.000  C
  C86      1.0000 0.78400  0.51386  0.22850  Biso   1.000  C
  H47      1.0000 0.78340  0.51260  0.28940  Biso   1.000  H
  C87      1.0000 0.78526  0.51553  0.04670  Biso   1.000  C
  C88      1.0000 0.81109  0.51544  0.09400  Biso   1.000  C
  H48      1.0000 0.82960  0.51590  0.06430  Biso   1.000  H
  O17      1.0000 0.57475  0.09072  0.41467  Biso   1.000  O
  O18      1.0000 0.58033  0.05104  0.34130  Biso   1.000  O
  C89      1.0000 0.58907  0.08126  0.36120  Biso   1.000  C
  C90      1.0000 0.61941  0.10902  0.31390  Biso   1.000  C
  C91      1.0000 0.63235  0.14244  0.34280  Biso   1.000  C
  H49      1.0000 0.62260  0.14700  0.39120  Biso   1.000  H
  C92      1.0000 0.65975  0.16884  0.29940  Biso   1.000  C
  H50      1.0000 0.66820  0.19180  0.31640  Biso   1.000  H
  C93      1.0000 0.67467  0.16128  0.23090  Biso   1.000  C
  C94      1.0000 0.66155  0.12748  0.20580  Biso   1.000  C
  H51      1.0000 0.67170  0.12230  0.15930  Biso   1.000  H
  C95      1.0000 0.63398  0.10147  0.24770  Biso   1.000  C
  H52      1.0000 0.62530  0.07850  0.23040  Biso   1.000  H
  C96      1.0000 0.70374  0.18901  0.18440  Biso   1.000  C
  C97      1.0000 0.72986  0.21600  0.22850  Biso   1.000  C
  H53      1.0000 0.72920  0.21660  0.28940  Biso   1.000  H
  C98      1.0000 0.73027  0.21474  0.04670  Biso   1.000  C
  C99      1.0000 0.70435  0.18891  0.09400  Biso   1.000  C
  H54      1.0000 0.68630  0.17040  0.06430  Biso   1.000  H
  O19      1.0000 0.48403  0.57475  0.41467  Biso   1.000  O
  O20      1.0000 0.52929  0.58033  0.34130  Biso   1.000  O
  C100     1.0000 0.50781  0.58907  0.36120  Biso   1.000  C
  C101     1.0000 0.51039  0.61941  0.31390  Biso   1.000  C
  C102     1.0000 0.48991  0.63235  0.34280  Biso   1.000  C
  H55      1.0000 0.47560  0.62260  0.39120  Biso   1.000  H
  C103     1.0000 0.49091  0.65975  0.29940  Biso   1.000  C
  H56      1.0000 0.47640  0.66820  0.31640  Biso   1.000  H
  C104     1.0000 0.51339  0.67467  0.23090  Biso   1.000  C
  C105     1.0000 0.53407  0.66155  0.20580  Biso   1.000  C
  H57      1.0000 0.54940  0.67170  0.15930  Biso   1.000  H
  C106     1.0000 0.53251  0.63398  0.24770  Biso   1.000  C
  H58      1.0000 0.54680  0.62530  0.23040  Biso   1.000  H
  C107     1.0000 0.51473  0.70374  0.18440  Biso   1.000  C
  C108     1.0000 0.51386  0.72986  0.22850  Biso   1.000  C
  H59      1.0000 0.51260  0.72920  0.28940  Biso   1.000  H
  C109     1.0000 0.51553  0.73027  0.04670  Biso   1.000  C
  C110     1.0000 0.51544  0.70435  0.09400  Biso   1.000  C
  H60      1.0000 0.51590  0.68630  0.06430  Biso   1.000  H
  O21      1.0000 0.09072  0.51597  0.41467  Biso   1.000  O
  O22      1.0000 0.05104  0.47071  0.34130  Biso   1.000  O
  C111     1.0000 0.08126  0.49219  0.36120  Biso   1.000  C
  C112     1.0000 0.10902  0.48961  0.31390  Biso   1.000  C
  C113     1.0000 0.14244  0.51009  0.34280  Biso   1.000  C
  H61      1.0000 0.14700  0.52440  0.39120  Biso   1.000  H
  C114     1.0000 0.16884  0.50909  0.29940  Biso   1.000  C
  H62      1.0000 0.19180  0.52360  0.31640  Biso   1.000  H
  C115     1.0000 0.16128  0.48661  0.23090  Biso   1.000  C
  C116     1.0000 0.12748  0.46593  0.20580  Biso   1.000  C
  H63      1.0000 0.12230  0.45060  0.15930  Biso   1.000  H
  C117     1.0000 0.10147  0.46749  0.24770  Biso   1.000  C
  H64      1.0000 0.07850  0.45320  0.23040  Biso   1.000  H
  C118     1.0000 0.18901  0.48527  0.18440  Biso   1.000  C
  C119     1.0000 0.21600  0.48614  0.22850  Biso   1.000  C
  H65      1.0000 0.21660  0.48740  0.28940  Biso   1.000  H
  C120     1.0000 0.21474  0.48447  0.04670  Biso   1.000  C
  C121     1.0000 0.18891  0.48456  0.09400  Biso   1.000  C
  H66      1.0000 0.17040  0.48410  0.06430  Biso   1.000  H
  O23      1.0000 0.42525  0.90928  0.41467  Biso   1.000  O
  O24      1.0000 0.41967  0.94896  0.34130  Biso   1.000  O
  C122     1.0000 0.41093  0.91874  0.36120  Biso   1.000  C
  C123     1.0000 0.38059  0.89098  0.31390  Biso   1.000  C
  C124     1.0000 0.36765  0.85756  0.34280  Biso   1.000  C
  H67      1.0000 0.37740  0.85300  0.39120  Biso   1.000  H
  C125     1.0000 0.34025  0.83116  0.29940  Biso   1.000  C
  H68      1.0000 0.33180  0.80820  0.31640  Biso   1.000  H
  C126     1.0000 0.32533  0.83872  0.23090  Biso   1.000  C
  C127     1.0000 0.33845  0.87252  0.20580  Biso   1.000  C
  H69      1.0000 0.32830  0.87770  0.15930  Biso   1.000  H
  C128     1.0000 0.36602  0.89853  0.24770  Biso   1.000  C
  H70      1.0000 0.37470  0.92150  0.23040  Biso   1.000  H
  C129     1.0000 0.29626  0.81099  0.18440  Biso   1.000  C
  C130     1.0000 0.27014  0.78400  0.22850  Biso   1.000  C
  H71      1.0000 0.27080  0.78340  0.28940  Biso   1.000  H
  C131     1.0000 0.26973  0.78526  0.04670  Biso   1.000  C
  C132     1.0000 0.29565  0.81109  0.09400  Biso   1.000  C
  H72      1.0000 0.31370  0.82960  0.06430  Biso   1.000  H
  O25      1.0000 0.57475  0.48403  0.41467  Biso   1.000  O
  O26      1.0000 0.58033  0.52929  0.34130  Biso   1.000  O
  C133     1.0000 0.58907  0.50781  0.36120  Biso   1.000  C
  C134     1.0000 0.61941  0.51039  0.31390  Biso   1.000  C
  C135     1.0000 0.63235  0.48991  0.34280  Biso   1.000  C
  H73      1.0000 0.62260  0.47560  0.39120  Biso   1.000  H
  C136     1.0000 0.65975  0.49091  0.29940  Biso   1.000  C
  H74      1.0000 0.66820  0.47640  0.31640  Biso   1.000  H
  C137     1.0000 0.67467  0.51339  0.23090  Biso   1.000  C
  C138     1.0000 0.66155  0.53407  0.20580  Biso   1.000  C
  H75      1.0000 0.67170  0.54940  0.15930  Biso   1.000  H
  C139     1.0000 0.63398  0.53251  0.24770  Biso   1.000  C
  H76      1.0000 0.62530  0.54680  0.23040  Biso   1.000  H
  C140     1.0000 0.70374  0.51473  0.18440  Biso   1.000  C
  C141     1.0000 0.72986  0.51386  0.22850  Biso   1.000  C
  H77      1.0000 0.72920  0.51260  0.28940  Biso   1.000  H
  C142     1.0000 0.73027  0.51553  0.04670  Biso   1.000  C
  C143     1.0000 0.70435  0.51544  0.09400  Biso   1.000  C
  H78      1.0000 0.68630  0.51590  0.06430  Biso   1.000  H
  O27      1.0000 0.51597  0.09072  0.41467  Biso   1.000  O
  O28      1.0000 0.47071  0.05104  0.34130  Biso   1.000  O
  C144     1.0000 0.49219  0.08126  0.36120  Biso   1.000  C
  C145     1.0000 0.48961  0.10902  0.31390  Biso   1.000  C
  C146     1.0000 0.51009  0.14244  0.34280  Biso   1.000  C
  H79      1.0000 0.52440  0.14700  0.39120  Biso   1.000  H
  C147     1.0000 0.50909  0.16884  0.29940  Biso   1.000  C
  H80      1.0000 0.52360  0.19180  0.31640  Biso   1.000  H
  C148     1.0000 0.48661  0.16128  0.23090  Biso   1.000  C
  C149     1.0000 0.46593  0.12748  0.20580  Biso   1.000  C
  H81      1.0000 0.45060  0.12230  0.15930  Biso   1.000  H
  C150     1.0000 0.46749  0.10147  0.24770  Biso   1.000  C
  H82      1.0000 0.45320  0.07850  0.23040  Biso   1.000  H
  C151     1.0000 0.48527  0.18901  0.18440  Biso   1.000  C
  C152     1.0000 0.48614  0.21600  0.22850  Biso   1.000  C
  H83      1.0000 0.48740  0.21660  0.28940  Biso   1.000  H
  C153     1.0000 0.48447  0.21474  0.04670  Biso   1.000  C
  C154     1.0000 0.48456  0.18891  0.09400  Biso   1.000  C
  H84      1.0000 0.48410  0.17040  0.06430  Biso   1.000  H
  O29      1.0000 0.90928  0.42525  0.41467  Biso   1.000  O
  O30      1.0000 0.94896  0.41967  0.34130  Biso   1.000  O
  C155     1.0000 0.91874  0.41093  0.36120  Biso   1.000  C
  C156     1.0000 0.89098  0.38059  0.31390  Biso   1.000  C
  C157     1.0000 0.85756  0.36765  0.34280  Biso   1.000  C
  H85      1.0000 0.85300  0.37740  0.39120  Biso   1.000  H
  C158     1.0000 0.83116  0.34025  0.29940  Biso   1.000  C
  H86      1.0000 0.80820  0.33180  0.31640  Biso   1.000  H
  C159     1.0000 0.83872  0.32533  0.23090  Biso   1.000  C
  C160     1.0000 0.87252  0.33845  0.20580  Biso   1.000  C
  H87      1.0000 0.87770  0.32830  0.15930  Biso   1.000  H
  C161     1.0000 0.89853  0.36602  0.24770  Biso   1.000  C
  H88      1.0000 0.92150  0.37470  0.23040  Biso   1.000  H
  C162     1.0000 0.81099  0.29626  0.18440  Biso   1.000  C
  C163     1.0000 0.78400  0.27014  0.22850  Biso   1.000  C
  H89      1.0000 0.78340  0.27080  0.28940  Biso   1.000  H
  C164     1.0000 0.78526  0.26973  0.04670  Biso   1.000  C
  C165     1.0000 0.81109  0.29565  0.09400  Biso   1.000  C
  H90      1.0000 0.82960  0.31370  0.06430  Biso   1.000  H
  O31      1.0000 0.42525  0.51597  0.41467  Biso   1.000  O
  O32      1.0000 0.41967  0.47071  0.34130  Biso   1.000  O
  C166     1.0000 0.41093  0.49219  0.36120  Biso   1.000  C
  C167     1.0000 0.38059  0.48961  0.31390  Biso   1.000  C
  C168     1.0000 0.36765  0.51009  0.34280  Biso   1.000  C
  H91      1.0000 0.37740  0.52440  0.39120  Biso   1.000  H
  C169     1.0000 0.34025  0.50909  0.29940  Biso   1.000  C
  H92      1.0000 0.33180  0.52360  0.31640  Biso   1.000  H
  C170     1.0000 0.32533  0.48661  0.23090  Biso   1.000  C
  C171     1.0000 0.33845  0.46593  0.20580  Biso   1.000  C
  H93      1.0000 0.32830  0.45060  0.15930  Biso   1.000  H
  C172     1.0000 0.36602  0.46749  0.24770  Biso   1.000  C
  H94      1.0000 0.37470  0.45320  0.23040  Biso   1.000  H
  C173     1.0000 0.29626  0.48527  0.18440  Biso   1.000  C
  C174     1.0000 0.27014  0.48614  0.22850  Biso   1.000  C
  H95      1.0000 0.27080  0.48740  0.28940  Biso   1.000  H
  C175     1.0000 0.26973  0.48447  0.04670  Biso   1.000  C
  C176     1.0000 0.29565  0.48456  0.09400  Biso   1.000  C
  H96      1.0000 0.31370  0.48410  0.06430  Biso   1.000  H
  O33      1.0000 0.48403  0.90928  0.41467  Biso   1.000  O
  O34      1.0000 0.52929  0.94896  0.34130  Biso   1.000  O
  C177     1.0000 0.50781  0.91874  0.36120  Biso   1.000  C
  C178     1.0000 0.51039  0.89098  0.31390  Biso   1.000  C
  C179     1.0000 0.48991  0.85756  0.34280  Biso   1.000  C
  H97      1.0000 0.47560  0.85300  0.39120  Biso   1.000  H
  C180     1.0000 0.49091  0.83116  0.29940  Biso   1.000  C
  H98      1.0000 0.47640  0.80820  0.31640  Biso   1.000  H
  C181     1.0000 0.51339  0.83872  0.23090  Biso   1.000  C
  C182     1.0000 0.53407  0.87252  0.20580  Biso   1.000  C
  H99      1.0000 0.54940  0.87770  0.15930  Biso   1.000  H
  C183     1.0000 0.53251  0.89853  0.24770  Biso   1.000  C
  H100     1.0000 0.54680  0.92150  0.23040  Biso   1.000  H
  C184     1.0000 0.51473  0.81099  0.18440  Biso   1.000  C
  C185     1.0000 0.51386  0.78400  0.22850  Biso   1.000  C
  H101     1.0000 0.51260  0.78340  0.28940  Biso   1.000  H
  C186     1.0000 0.51553  0.78526  0.04670  Biso   1.000  C
  C187     1.0000 0.51544  0.81109  0.09400  Biso   1.000  C
  H102     1.0000 0.51590  0.82960  0.06430  Biso   1.000  H
  O35      1.0000 0.09072  0.57475  0.41467  Biso   1.000  O
  O36      1.0000 0.05104  0.58033  0.34130  Biso   1.000  O
  C188     1.0000 0.08126  0.58907  0.36120  Biso   1.000  C
  C189     1.0000 0.10902  0.61941  0.31390  Biso   1.000  C
  C190     1.0000 0.14244  0.63235  0.34280  Biso   1.000  C
  H103     1.0000 0.14700  0.62260  0.39120  Biso   1.000  H
  C191     1.0000 0.16884  0.65975  0.29940  Biso   1.000  C
  H104     1.0000 0.19180  0.66820  0.31640  Biso   1.000  H
  C192     1.0000 0.16128  0.67467  0.23090  Biso   1.000  C
  C193     1.0000 0.12748  0.66155  0.20580  Biso   1.000  C
  H105     1.0000 0.12230  0.67170  0.15930  Biso   1.000  H
  C194     1.0000 0.10147  0.63398  0.24770  Biso   1.000  C
  H106     1.0000 0.07850  0.62530  0.23040  Biso   1.000  H
  C195     1.0000 0.18901  0.70374  0.18440  Biso   1.000  C
  C196     1.0000 0.21600  0.72986  0.22850  Biso   1.000  C
  H107     1.0000 0.21660  0.72920  0.28940  Biso   1.000  H
  C197     1.0000 0.21474  0.73027  0.04670  Biso   1.000  C
  C198     1.0000 0.18891  0.70435  0.09400  Biso   1.000  C
  H108     1.0000 0.17040  0.68630  0.06430  Biso   1.000  H
  O37      1.0000 0.48403  0.57475  0.58533  Biso   1.000  O
  O38      1.0000 0.52929  0.58033  0.65870  Biso   1.000  O
  C199     1.0000 0.50781  0.58907  0.63880  Biso   1.000  C
  C200     1.0000 0.51039  0.61941  0.68610  Biso   1.000  C
  C201     1.0000 0.48991  0.63235  0.65720  Biso   1.000  C
  H109     1.0000 0.47560  0.62260  0.60880  Biso   1.000  H
  C202     1.0000 0.49091  0.65975  0.70060  Biso   1.000  C
  H110     1.0000 0.47640  0.66820  0.68360  Biso   1.000  H
  C203     1.0000 0.51339  0.67467  0.76910  Biso   1.000  C
  C204     1.0000 0.53407  0.66155  0.79420  Biso   1.000  C
  H111     1.0000 0.54940  0.67170  0.84070  Biso   1.000  H
  C205     1.0000 0.53251  0.63398  0.75230  Biso   1.000  C
  H112     1.0000 0.54680  0.62530  0.76960  Biso   1.000  H
  C206     1.0000 0.51473  0.70374  0.81560  Biso   1.000  C
  C207     1.0000 0.51386  0.72986  0.77150  Biso   1.000  C
  H113     1.0000 0.51260  0.72920  0.71060  Biso   1.000  H
  C208     1.0000 0.51553  0.73027  0.95330  Biso   1.000  C
  C209     1.0000 0.51544  0.70435  0.90600  Biso   1.000  C
  H114     1.0000 0.51590  0.68630  0.93570  Biso   1.000  H
  O39      1.0000 0.09072  0.51597  0.58533  Biso   1.000  O
  O40      1.0000 0.05104  0.47071  0.65870  Biso   1.000  O
  C210     1.0000 0.08126  0.49219  0.63880  Biso   1.000  C
  C211     1.0000 0.10902  0.48961  0.68610  Biso   1.000  C
  C212     1.0000 0.14244  0.51009  0.65720  Biso   1.000  C
  H115     1.0000 0.14700  0.52440  0.60880  Biso   1.000  H
  C213     1.0000 0.16884  0.50909  0.70060  Biso   1.000  C
  H116     1.0000 0.19180  0.52360  0.68360  Biso   1.000  H
  C214     1.0000 0.16128  0.48661  0.76910  Biso   1.000  C
  C215     1.0000 0.12748  0.46593  0.79420  Biso   1.000  C
  H117     1.0000 0.12230  0.45060  0.84070  Biso   1.000  H
  C216     1.0000 0.10147  0.46749  0.75230  Biso   1.000  C
  H118     1.0000 0.07850  0.45320  0.76960  Biso   1.000  H
  C217     1.0000 0.18901  0.48527  0.81560  Biso   1.000  C
  C218     1.0000 0.21600  0.48614  0.77150  Biso   1.000  C
  H119     1.0000 0.21660  0.48740  0.71060  Biso   1.000  H
  C219     1.0000 0.21474  0.48447  0.95330  Biso   1.000  C
  C220     1.0000 0.18891  0.48456  0.90600  Biso   1.000  C
  H120     1.0000 0.17040  0.48410  0.93570  Biso   1.000  H
  O41      1.0000 0.42525  0.90928  0.58533  Biso   1.000  O
  O42      1.0000 0.41967  0.94896  0.65870  Biso   1.000  O
  C221     1.0000 0.41093  0.91874  0.63880  Biso   1.000  C
  C222     1.0000 0.38059  0.89098  0.68610  Biso   1.000  C
  C223     1.0000 0.36765  0.85756  0.65720  Biso   1.000  C
  H121     1.0000 0.37740  0.85300  0.60880  Biso   1.000  H
  C224     1.0000 0.34025  0.83116  0.70060  Biso   1.000  C
  H122     1.0000 0.33180  0.80820  0.68360  Biso   1.000  H
  C225     1.0000 0.32533  0.83872  0.76910  Biso   1.000  C
  C226     1.0000 0.33845  0.87252  0.79420  Biso   1.000  C
  H123     1.0000 0.32830  0.87770  0.84070  Biso   1.000  H
  C227     1.0000 0.36602  0.89853  0.75230  Biso   1.000  C
  H124     1.0000 0.37470  0.92150  0.76960  Biso   1.000  H
  C228     1.0000 0.29626  0.81099  0.81560  Biso   1.000  C
  C229     1.0000 0.27014  0.78400  0.77150  Biso   1.000  C
  H125     1.0000 0.27080  0.78340  0.71060  Biso   1.000  H
  C230     1.0000 0.26973  0.78526  0.95330  Biso   1.000  C
  C231     1.0000 0.29565  0.81109  0.90600  Biso   1.000  C
  H126     1.0000 0.31370  0.82960  0.93570  Biso   1.000  H
  O43      1.0000 0.51597  0.42525  0.58533  Biso   1.000  O
  O44      1.0000 0.47071  0.41967  0.65870  Biso   1.000  O
  C232     1.0000 0.49219  0.41093  0.63880  Biso   1.000  C
  C233     1.0000 0.48961  0.38059  0.68610  Biso   1.000  C
  C234     1.0000 0.51009  0.36765  0.65720  Biso   1.000  C
  H127     1.0000 0.52440  0.37740  0.60880  Biso   1.000  H
  C235     1.0000 0.50909  0.34025  0.70060  Biso   1.000  C
  H128     1.0000 0.52360  0.33180  0.68360  Biso   1.000  H
  C236     1.0000 0.48661  0.32533  0.76910  Biso   1.000  C
  C237     1.0000 0.46593  0.33845  0.79420  Biso   1.000  C
  H129     1.0000 0.45060  0.32830  0.84070  Biso   1.000  H
  C238     1.0000 0.46749  0.36602  0.75230  Biso   1.000  C
  H130     1.0000 0.45320  0.37470  0.76960  Biso   1.000  H
  C239     1.0000 0.48527  0.29626  0.81560  Biso   1.000  C
  C240     1.0000 0.48614  0.27014  0.77150  Biso   1.000  C
  H131     1.0000 0.48740  0.27080  0.71060  Biso   1.000  H
  C241     1.0000 0.48447  0.26973  0.95330  Biso   1.000  C
  C242     1.0000 0.48456  0.29565  0.90600  Biso   1.000  C
  H132     1.0000 0.48410  0.31370  0.93570  Biso   1.000  H
  O45      1.0000 0.90928  0.48403  0.58533  Biso   1.000  O
  O46      1.0000 0.94896  0.52929  0.65870  Biso   1.000  O
  C243     1.0000 0.91874  0.50781  0.63880  Biso   1.000  C
  C244     1.0000 0.89098  0.51039  0.68610  Biso   1.000  C
  C245     1.0000 0.85756  0.48991  0.65720  Biso   1.000  C
  H133     1.0000 0.85300  0.47560  0.60880  Biso   1.000  H
  C246     1.0000 0.83116  0.49091  0.70060  Biso   1.000  C
  H134     1.0000 0.80820  0.47640  0.68360  Biso   1.000  H
  C247     1.0000 0.83872  0.51339  0.76910  Biso   1.000  C
  C248     1.0000 0.87252  0.53407  0.79420  Biso   1.000  C
  H135     1.0000 0.87770  0.54940  0.84070  Biso   1.000  H
  C249     1.0000 0.89853  0.53251  0.75230  Biso   1.000  C
  H136     1.0000 0.92150  0.54680  0.76960  Biso   1.000  H
  C250     1.0000 0.81099  0.51473  0.81560  Biso   1.000  C
  C251     1.0000 0.78400  0.51386  0.77150  Biso   1.000  C
  H137     1.0000 0.78340  0.51260  0.71060  Biso   1.000  H
  C252     1.0000 0.78526  0.51553  0.95330  Biso   1.000  C
  C253     1.0000 0.81109  0.51544  0.90600  Biso   1.000  C
  H138     1.0000 0.82960  0.51590  0.93570  Biso   1.000  H
  O47      1.0000 0.57475  0.09072  0.58533  Biso   1.000  O
  O48      1.0000 0.58033  0.05104  0.65870  Biso   1.000  O
  C254     1.0000 0.58907  0.08126  0.63880  Biso   1.000  C
  C255     1.0000 0.61941  0.10902  0.68610  Biso   1.000  C
  C256     1.0000 0.63235  0.14244  0.65720  Biso   1.000  C
  H139     1.0000 0.62260  0.14700  0.60880  Biso   1.000  H
  C257     1.0000 0.65975  0.16884  0.70060  Biso   1.000  C
  H140     1.0000 0.66820  0.19180  0.68360  Biso   1.000  H
  C258     1.0000 0.67467  0.16128  0.76910  Biso   1.000  C
  C259     1.0000 0.66155  0.12748  0.79420  Biso   1.000  C
  H141     1.0000 0.67170  0.12230  0.84070  Biso   1.000  H
  C260     1.0000 0.63398  0.10147  0.75230  Biso   1.000  C
  H142     1.0000 0.62530  0.07850  0.76960  Biso   1.000  H
  C261     1.0000 0.70374  0.18901  0.81560  Biso   1.000  C
  C262     1.0000 0.72986  0.21600  0.77150  Biso   1.000  C
  H143     1.0000 0.72920  0.21660  0.71060  Biso   1.000  H
  C263     1.0000 0.73027  0.21474  0.95330  Biso   1.000  C
  C264     1.0000 0.70435  0.18891  0.90600  Biso   1.000  C
  H144     1.0000 0.68630  0.17040  0.93570  Biso   1.000  H
  Zr1      1.0000 0.46883  0.53117  0.50000  Biso   1.000  Zr
  Zr2      1.0000 0.46883  0.93766  0.50000  Biso   1.000  Zr
  Zr3      1.0000 0.06234  0.53117  0.50000  Biso   1.000  Zr
  Zr4      1.0000 0.53117  0.46883  0.50000  Biso   1.000  Zr
  Zr5      1.0000 0.53117  0.06234  0.50000  Biso   1.000  Zr
  Zr6      1.0000 0.93766  0.46883  0.50000  Biso   1.000  Zr
  Zr7      1.0000 0.46105  0.46105  0.61341  Biso   1.000  Zr
  Zr8      1.0000 0.53895  0.00000  0.61341  Biso   1.000  Zr
  Zr9      1.0000 0.00000  0.53895  0.61341  Biso   1.000  Zr
  Zr10     1.0000 0.53895  0.53895  0.61341  Biso   1.000  Zr
  Zr11     1.0000 0.46105  0.00000  0.61341  Biso   1.000  Zr
  Zr12     1.0000 0.00000  0.46105  0.61341  Biso   1.000  Zr
  Zr13     1.0000 0.46105  0.46105  0.38659  Biso   1.000  Zr
  Zr14     1.0000 0.00000  0.53895  0.38659  Biso   1.000  Zr
  Zr15     1.0000 0.53895  0.00000  0.38659  Biso   1.000  Zr
  Zr16     1.0000 0.53895  0.53895  0.38659  Biso   1.000  Zr
  Zr17     1.0000 0.00000  0.46105  0.38659  Biso   1.000  Zr
  Zr18     1.0000 0.46105  0.00000  0.38659  Biso   1.000  Zr
  O49      1.0000 0.52347  0.55399  0.50000  Biso   1.000  O
  H145     1.0000 0.53390  0.57930  0.50000  Biso   1.000  H
  O50      1.0000 0.44601  0.96948  0.50000  Biso   1.000  O
  H146     1.0000 0.42070  0.95460  0.50000  Biso   1.000  H
  O51      1.0000 0.03052  0.47653  0.50000  Biso   1.000  O
  H147     1.0000 0.04540  0.46610  0.50000  Biso   1.000  H
  O52      1.0000 0.47653  0.44601  0.50000  Biso   1.000  O
  H148     1.0000 0.46610  0.42070  0.50000  Biso   1.000  H
  O53      1.0000 0.55399  0.03052  0.50000  Biso   1.000  O
  H149     1.0000 0.57930  0.04540  0.50000  Biso   1.000  H
  O54      1.0000 0.96948  0.52347  0.50000  Biso   1.000  O
  H150     1.0000 0.95460  0.53390  0.50000  Biso   1.000  H
  O55      1.0000 0.55399  0.52347  0.50000  Biso   1.000  O
  H151     1.0000 0.57930  0.53390  0.50000  Biso   1.000  H
  O56      1.0000 0.96948  0.44601  0.50000  Biso   1.000  O
  H152     1.0000 0.95460  0.42070  0.50000  Biso   1.000  H
  O57      1.0000 0.47653  0.03052  0.50000  Biso   1.000  O
  H153     1.0000 0.46610  0.04540  0.50000  Biso   1.000  H
  O58      1.0000 0.44601  0.47653  0.50000  Biso   1.000  O
  H154     1.0000 0.42070  0.46610  0.50000  Biso   1.000  H
  O59      1.0000 0.03052  0.55399  0.50000  Biso   1.000  O
  H155     1.0000 0.04540  0.57930  0.50000  Biso   1.000  H
  O60      1.0000 0.52347  0.96948  0.50000  Biso   1.000  O
  H156     1.0000 0.53390  0.95460  0.50000  Biso   1.000  H
  O61      1.0000 0.48509  0.51491  0.38670  Biso   1.000  O
  H157     1.0000 0.47770  0.52230  0.33450  Biso   1.000  H
  O62      1.0000 0.48509  0.97018  0.38670  Biso   1.000  O
  H158     1.0000 0.47770  0.95540  0.33450  Biso   1.000  H
  O63      1.0000 0.02982  0.51491  0.38670  Biso   1.000  O
  H159     1.0000 0.04460  0.52230  0.33450  Biso   1.000  H
  O64      1.0000 0.51491  0.48509  0.38670  Biso   1.000  O
  H160     1.0000 0.52230  0.47770  0.33450  Biso   1.000  H
  O65      1.0000 0.51491  0.02982  0.38670  Biso   1.000  O
  H161     1.0000 0.52230  0.04460  0.33450  Biso   1.000  H
  O66      1.0000 0.97018  0.48509  0.38670  Biso   1.000  O
  H162     1.0000 0.95540  0.47770  0.33450  Biso   1.000  H
  O67      1.0000 0.51491  0.48509  0.61330  Biso   1.000  O
  H163     1.0000 0.52230  0.47770  0.66550  Biso   1.000  H
  O68      1.0000 0.97018  0.48509  0.61330  Biso   1.000  O
  H164     1.0000 0.95540  0.47770  0.66550  Biso   1.000  H
  O69      1.0000 0.51491  0.02982  0.61330  Biso   1.000  O
  H165     1.0000 0.52230  0.04460  0.66550  Biso   1.000  H
  O70      1.0000 0.48509  0.51491  0.61330  Biso   1.000  O
  H166     1.0000 0.47770  0.52230  0.66550  Biso   1.000  H
  O71      1.0000 0.02982  0.51491  0.61330  Biso   1.000  O
  H167     1.0000 0.04460  0.52230  0.66550  Biso   1.000  H
  O72      1.0000 0.48509  0.97018  0.61330  Biso   1.000  O
  H168     1.0000 0.47770  0.95540  0.66550  Biso   1.000  H
  C265     1.0000 0.24260  0.48520  0.81630  Biso   1.000  C
  C266     1.0000 0.24240  0.48480  0.90900  Biso   1.000  C
  C267     1.0000 0.51480  0.75740  0.81630  Biso   1.000  C
  C268     1.0000 0.51520  0.75760  0.90900  Biso   1.000  C
  C269     1.0000 0.24260  0.75740  0.81630  Biso   1.000  C
  C270     1.0000 0.24240  0.75760  0.90900  Biso   1.000  C
  C271     1.0000 0.75740  0.51480  0.81630  Biso   1.000  C
  C272     1.0000 0.75760  0.51520  0.90900  Biso   1.000  C
  C273     1.0000 0.48520  0.24260  0.81630  Biso   1.000  C
  C274     1.0000 0.48480  0.24240  0.90900  Biso   1.000  C
  C275     1.0000 0.75740  0.24260  0.81630  Biso   1.000  C
  C276     1.0000 0.75760  0.24240  0.90900  Biso   1.000  C
  C277     1.0000 0.48520  0.24260  0.18370  Biso   1.000  C
  C278     1.0000 0.48480  0.24240  0.09100  Biso   1.000  C
  C279     1.0000 0.75740  0.51480  0.18370  Biso   1.000  C
  C280     1.0000 0.75760  0.51520  0.09100  Biso   1.000  C
  C281     1.0000 0.75740  0.24260  0.18370  Biso   1.000  C
  C282     1.0000 0.75760  0.24240  0.09100  Biso   1.000  C
  C283     1.0000 0.51480  0.75740  0.18370  Biso   1.000  C
  C284     1.0000 0.51520  0.75760  0.09100  Biso   1.000  C
  C285     1.0000 0.24260  0.48520  0.18370  Biso   1.000  C
  C286     1.0000 0.24240  0.48480  0.09100  Biso   1.000  C
  C287     1.0000 0.24260  0.75740  0.18370  Biso   1.000  C
  C288     1.0000 0.24240  0.75760  0.09100  Biso   1.000  C
