data_image0
_cell_length_a       8.0319
_cell_length_b       17.9407
_cell_length_c       17.9318
_cell_angle_alpha    90
_cell_angle_beta     108.644
_cell_angle_gamma    90

_symmetry_space_group_name_H-M    "P 1"
_symmetry_int_tables_number       1

loop_
  _symmetry_equiv_pos_as_xyz
  'x, y, z'

loop_
  _atom_site_label
  _atom_site_occupancy
  _atom_site_fract_x
  _atom_site_fract_y
  _atom_site_fract_z
  _atom_site_thermal_displace_type
  _atom_site_B_iso_or_equiv
  _atom_site_type_symbol
  Co1      1.0000 0.12685  0.80998  0.23644  Biso   1.000  Co
  O1       1.0000 0.30520  0.74940  0.31503  Biso   1.000  O
  O2       1.0000 0.10370  0.77120  0.37000  Biso   1.000  O
  O3       1.0000 0.73170  0.57990  0.49060  Biso   1.000  O
  O4       1.0000 0.20650  0.68454  0.64387  Biso   1.000  O
  O5       1.0000 0.44110  0.61710  0.70530  Biso   1.000  O
  N1       1.0000 0.05410  0.91340  0.25730  Biso   1.000  N
  N2       1.0000 0.90620  0.00390  0.28540  Biso   1.000  N
  N3       1.0000 0.09650  0.25160  0.31380  Biso   1.000  N
  N4       1.0000 0.35280  0.19770  0.33470  Biso   1.000  N
  C1       1.0000 0.34960  0.69730  0.44160  Biso   1.000  C
  C2       1.0000 0.30050  0.69430  0.50920  Biso   1.000  C
  H1       1.0000 0.20190  0.72030  0.51140  Biso   1.000  H
  C3       1.0000 0.39760  0.65300  0.57310  Biso   1.000  C
  C4       1.0000 0.54520  0.61320  0.57000  Biso   1.000  C
  H2       1.0000 0.61080  0.58500  0.61290  Biso   1.000  H
  C5       1.0000 0.59220  0.61660  0.50140  Biso   1.000  C
  C6       1.0000 0.49760  0.65870  0.43880  Biso   1.000  C
  H3       1.0000 0.53230  0.66150  0.39410  Biso   1.000  H
  C7       1.0000 0.84000  0.53510  0.55040  Biso   1.000  C
  H4       1.0000 0.86870  0.55620  0.60280  Biso   1.000  H
  H5       1.0000 0.78340  0.48700  0.54840  Biso   1.000  H
  C8       1.0000 0.92130  0.93040  0.27930  Biso   1.000  C
  H6       1.0000 0.84550  0.89580  0.28970  Biso   1.000  H
  C9       1.0000 0.02840  0.03610  0.25880  Biso   1.000  C
  H7       1.0000 0.04490  0.08680  0.25280  Biso   1.000  H
  C10      1.0000 0.12150  0.97920  0.24290  Biso   1.000  C
  H8       1.0000 0.21730  0.98430  0.22480  Biso   1.000  H
  C11      1.0000 0.78090  0.04320  0.32200  Biso   1.000  C
  H9       1.0000 0.74420  0.00990  0.35630  Biso   1.000  H
  H10      1.0000 0.83550  0.08700  0.35160  Biso   1.000  H
  C12      1.0000 0.64100  0.06260  0.25670  Biso   1.000  C
  H11      1.0000 0.59860  0.01870  0.22470  Biso   1.000  H
  H12      1.0000 0.67990  0.09830  0.22520  Biso   1.000  H
  C13      1.0000 0.22370  0.23520  0.28420  Biso   1.000  C
  H13      1.0000 0.22230  0.24850  0.23380  Biso   1.000  H
  C14      1.0000 0.14920  0.22190  0.38800  Biso   1.000  C
  H14      1.0000 0.08700  0.22380  0.42360  Biso   1.000  H
  C15      1.0000 0.30820  0.18910  0.40050  Biso   1.000  C
  H15      1.0000 0.37440  0.16500  0.44630  Biso   1.000  H
  C16      1.0000 0.51220  0.16970  0.31920  Biso   1.000  C
  H16      1.0000 0.54620  0.20480  0.28550  Biso   1.000  H
  H17      1.0000 0.60780  0.16650  0.36850  Biso   1.000  H
  C17      1.0000 0.48440  0.09800  0.28240  Biso   1.000  C
  H18      1.0000 0.38180  0.10140  0.23580  Biso   1.000  H
  H19      1.0000 0.45610  0.06340  0.31810  Biso   1.000  H
  C18      1.0000 0.34790  0.65040  0.64670  Biso   1.000  C
  C19      1.0000 0.24440  0.74150  0.37180  Biso   1.000  C
  C20      1.0000 0.02010  0.53080  0.52970  Biso   1.000  C
  H20      1.0000 0.13430  0.52690  0.56980  Biso   1.000  H
  H21      1.0000 0.01860  0.56690  0.48920  Biso   1.000  H
  Co2      1.0000 0.87315  0.30998  0.26356  Biso   1.000  Co
  O6       1.0000 0.69480  0.24940  0.18497  Biso   1.000  O
  O7       1.0000 0.89630  0.27120  0.13000  Biso   1.000  O
  O8       1.0000 0.26830  0.07990  0.00940  Biso   1.000  O
  O9       1.0000 0.79350  0.18454  0.85613  Biso   1.000  O
  O10      1.0000 0.55890  0.11710  0.79470  Biso   1.000  O
  N5       1.0000 0.94590  0.41340  0.24270  Biso   1.000  N
  N6       1.0000 0.09380  0.50390  0.21460  Biso   1.000  N
  N7       1.0000 0.90350  0.75160  0.18620  Biso   1.000  N
  N8       1.0000 0.64720  0.69770  0.16530  Biso   1.000  N
  C21      1.0000 0.65040  0.19730  0.05840  Biso   1.000  C
  C22      1.0000 0.69950  0.19430  0.99080  Biso   1.000  C
  H22      1.0000 0.79810  0.22030  0.98860  Biso   1.000  H
  C23      1.0000 0.60240  0.15300  0.92690  Biso   1.000  C
  C24      1.0000 0.45480  0.11320  0.93000  Biso   1.000  C
  H23      1.0000 0.38920  0.08500  0.88710  Biso   1.000  H
  C25      1.0000 0.40780  0.11660  0.99860  Biso   1.000  C
  C26      1.0000 0.50240  0.15870  0.06120  Biso   1.000  C
  H24      1.0000 0.46770  0.16150  0.10590  Biso   1.000  H
  C27      1.0000 0.16000  0.03510  0.94960  Biso   1.000  C
  H25      1.0000 0.13130  0.05620  0.89720  Biso   1.000  H
  H26      1.0000 0.21660  0.98700  0.95160  Biso   1.000  H
  C28      1.0000 0.07870  0.43040  0.22070  Biso   1.000  C
  H27      1.0000 0.15450  0.39580  0.21030  Biso   1.000  H
  C29      1.0000 0.97160  0.53610  0.24120  Biso   1.000  C
  H28      1.0000 0.95510  0.58680  0.24720  Biso   1.000  H
  C30      1.0000 0.87850  0.47920  0.25710  Biso   1.000  C
  H29      1.0000 0.78270  0.48430  0.27520  Biso   1.000  H
  C31      1.0000 0.21910  0.54320  0.17800  Biso   1.000  C
  H30      1.0000 0.25580  0.50990  0.14370  Biso   1.000  H
  H31      1.0000 0.16450  0.58700  0.14840  Biso   1.000  H
  C32      1.0000 0.35900  0.56260  0.24330  Biso   1.000  C
  H32      1.0000 0.40140  0.51870  0.27530  Biso   1.000  H
  H33      1.0000 0.32010  0.59830  0.27480  Biso   1.000  H
  C33      1.0000 0.77630  0.73520  0.21580  Biso   1.000  C
  H34      1.0000 0.77770  0.74850  0.26620  Biso   1.000  H
  C34      1.0000 0.85080  0.72190  0.11200  Biso   1.000  C
  H35      1.0000 0.91300  0.72380  0.07640  Biso   1.000  H
  C35      1.0000 0.69180  0.68910  0.09950  Biso   1.000  C
  H36      1.0000 0.62560  0.66500  0.05370  Biso   1.000  H
  C36      1.0000 0.48780  0.66970  0.18080  Biso   1.000  C
  H37      1.0000 0.45380  0.70480  0.21450  Biso   1.000  H
  H38      1.0000 0.39220  0.66650  0.13150  Biso   1.000  H
  C37      1.0000 0.51560  0.59800  0.21760  Biso   1.000  C
  H39      1.0000 0.61820  0.60140  0.26420  Biso   1.000  H
  H40      1.0000 0.54390  0.56340  0.18190  Biso   1.000  H
  C38      1.0000 0.65210  0.15040  0.85330  Biso   1.000  C
  C39      1.0000 0.75560  0.24150  0.12820  Biso   1.000  C
  C40      1.0000 0.97990  0.03080  0.97030  Biso   1.000  C
  H41      1.0000 0.86570  0.02690  0.93020  Biso   1.000  H
  H42      1.0000 0.98140  0.06690  0.01080  Biso   1.000  H
  Co3      1.0000 0.87315  0.19002  0.76356  Biso   1.000  Co
  O11      1.0000 0.69480  0.25060  0.68497  Biso   1.000  O
  O12      1.0000 0.89630  0.22880  0.63000  Biso   1.000  O
  O13      1.0000 0.26830  0.42010  0.50940  Biso   1.000  O
  O14      1.0000 0.79350  0.31546  0.35613  Biso   1.000  O
  O15      1.0000 0.55890  0.38290  0.29470  Biso   1.000  O
  N9       1.0000 0.94590  0.08660  0.74270  Biso   1.000  N
  N10      1.0000 0.09380  0.99610  0.71460  Biso   1.000  N
  N11      1.0000 0.90350  0.74840  0.68620  Biso   1.000  N
  N12      1.0000 0.64720  0.80230  0.66530  Biso   1.000  N
  C41      1.0000 0.65040  0.30270  0.55840  Biso   1.000  C
  C42      1.0000 0.69950  0.30570  0.49080  Biso   1.000  C
  H43      1.0000 0.79810  0.27970  0.48860  Biso   1.000  H
  C43      1.0000 0.60240  0.34700  0.42690  Biso   1.000  C
  C44      1.0000 0.45480  0.38680  0.43000  Biso   1.000  C
  H44      1.0000 0.38920  0.41500  0.38710  Biso   1.000  H
  C45      1.0000 0.40780  0.38340  0.49860  Biso   1.000  C
  C46      1.0000 0.50240  0.34130  0.56120  Biso   1.000  C
  H45      1.0000 0.46770  0.33850  0.60590  Biso   1.000  H
  C47      1.0000 0.16000  0.46490  0.44960  Biso   1.000  C
  H46      1.0000 0.13130  0.44380  0.39720  Biso   1.000  H
  H47      1.0000 0.21660  0.51300  0.45160  Biso   1.000  H
  C48      1.0000 0.07870  0.06960  0.72070  Biso   1.000  C
  H48      1.0000 0.15450  0.10420  0.71030  Biso   1.000  H
  C49      1.0000 0.97160  0.96390  0.74120  Biso   1.000  C
  H49      1.0000 0.95510  0.91320  0.74720  Biso   1.000  H
  C50      1.0000 0.87850  0.02080  0.75710  Biso   1.000  C
  H50      1.0000 0.78270  0.01570  0.77520  Biso   1.000  H
  C51      1.0000 0.21910  0.95680  0.67800  Biso   1.000  C
  H51      1.0000 0.25580  0.99010  0.64370  Biso   1.000  H
  H52      1.0000 0.16450  0.91300  0.64840  Biso   1.000  H
  C52      1.0000 0.35900  0.93740  0.74330  Biso   1.000  C
  H53      1.0000 0.40140  0.98130  0.77530  Biso   1.000  H
  H54      1.0000 0.32010  0.90170  0.77480  Biso   1.000  H
  C53      1.0000 0.77630  0.76480  0.71580  Biso   1.000  C
  H55      1.0000 0.77770  0.75150  0.76620  Biso   1.000  H
  C54      1.0000 0.85080  0.77810  0.61200  Biso   1.000  C
  H56      1.0000 0.91300  0.77620  0.57640  Biso   1.000  H
  C55      1.0000 0.69180  0.81090  0.59950  Biso   1.000  C
  H57      1.0000 0.62560  0.83500  0.55370  Biso   1.000  H
  C56      1.0000 0.48780  0.83030  0.68080  Biso   1.000  C
  H58      1.0000 0.45380  0.79520  0.71450  Biso   1.000  H
  H59      1.0000 0.39220  0.83350  0.63150  Biso   1.000  H
  C57      1.0000 0.51560  0.90200  0.71760  Biso   1.000  C
  H60      1.0000 0.61820  0.89860  0.76420  Biso   1.000  H
  H61      1.0000 0.54390  0.93660  0.68190  Biso   1.000  H
  C58      1.0000 0.65210  0.34960  0.35330  Biso   1.000  C
  C59      1.0000 0.75560  0.25850  0.62820  Biso   1.000  C
  C60      1.0000 0.97990  0.46920  0.47030  Biso   1.000  C
  H62      1.0000 0.86570  0.47310  0.43020  Biso   1.000  H
  H63      1.0000 0.98140  0.43310  0.51080  Biso   1.000  H
  Co4      1.0000 0.12685  0.69002  0.73644  Biso   1.000  Co
  O16      1.0000 0.30520  0.75060  0.81503  Biso   1.000  O
  O17      1.0000 0.10370  0.72880  0.87000  Biso   1.000  O
  O18      1.0000 0.73170  0.92010  0.99060  Biso   1.000  O
  O19      1.0000 0.20650  0.81546  0.14387  Biso   1.000  O
  O20      1.0000 0.44110  0.88290  0.20530  Biso   1.000  O
  N13      1.0000 0.05410  0.58660  0.75730  Biso   1.000  N
  N14      1.0000 0.90620  0.49610  0.78540  Biso   1.000  N
  N15      1.0000 0.09650  0.24840  0.81380  Biso   1.000  N
  N16      1.0000 0.35280  0.30230  0.83470  Biso   1.000  N
  C61      1.0000 0.34960  0.80270  0.94160  Biso   1.000  C
  C62      1.0000 0.30050  0.80570  0.00920  Biso   1.000  C
  H64      1.0000 0.20190  0.77970  0.01140  Biso   1.000  H
  C63      1.0000 0.39760  0.84700  0.07310  Biso   1.000  C
  C64      1.0000 0.54520  0.88680  0.07000  Biso   1.000  C
  H65      1.0000 0.61080  0.91500  0.11290  Biso   1.000  H
  C65      1.0000 0.59220  0.88340  0.00140  Biso   1.000  C
  C66      1.0000 0.49760  0.84130  0.93880  Biso   1.000  C
  H66      1.0000 0.53230  0.83850  0.89410  Biso   1.000  H
  C67      1.0000 0.84000  0.96490  0.05040  Biso   1.000  C
  H67      1.0000 0.86870  0.94380  0.10280  Biso   1.000  H
  H68      1.0000 0.78340  0.01300  0.04840  Biso   1.000  H
  C68      1.0000 0.92130  0.56960  0.77930  Biso   1.000  C
  H69      1.0000 0.84550  0.60420  0.78970  Biso   1.000  H
  C69      1.0000 0.02840  0.46390  0.75880  Biso   1.000  C
  H70      1.0000 0.04490  0.41320  0.75280  Biso   1.000  H
  C70      1.0000 0.12150  0.52080  0.74290  Biso   1.000  C
  H71      1.0000 0.21730  0.51570  0.72480  Biso   1.000  H
  C71      1.0000 0.78090  0.45680  0.82200  Biso   1.000  C
  H72      1.0000 0.74420  0.49010  0.85630  Biso   1.000  H
  H73      1.0000 0.83550  0.41300  0.85160  Biso   1.000  H
  C72      1.0000 0.64100  0.43740  0.75670  Biso   1.000  C
  H74      1.0000 0.59860  0.48130  0.72470  Biso   1.000  H
  H75      1.0000 0.67990  0.40170  0.72520  Biso   1.000  H
  C73      1.0000 0.22370  0.26480  0.78420  Biso   1.000  C
  H76      1.0000 0.22230  0.25150  0.73380  Biso   1.000  H
  C74      1.0000 0.14920  0.27810  0.88800  Biso   1.000  C
  H77      1.0000 0.08700  0.27620  0.92360  Biso   1.000  H
  C75      1.0000 0.30820  0.31090  0.90050  Biso   1.000  C
  H78      1.0000 0.37440  0.33500  0.94630  Biso   1.000  H
  C76      1.0000 0.51220  0.33030  0.81920  Biso   1.000  C
  H79      1.0000 0.54620  0.29520  0.78550  Biso   1.000  H
  H80      1.0000 0.60780  0.33350  0.86850  Biso   1.000  H
  C77      1.0000 0.48440  0.40200  0.78240  Biso   1.000  C
  H81      1.0000 0.38180  0.39860  0.73580  Biso   1.000  H
  H82      1.0000 0.45610  0.43660  0.81810  Biso   1.000  H
  C78      1.0000 0.34790  0.84960  0.14670  Biso   1.000  C
  C79      1.0000 0.24440  0.75850  0.87180  Biso   1.000  C
  C80      1.0000 0.02010  0.96920  0.02970  Biso   1.000  C
  H83      1.0000 0.13430  0.97310  0.06980  Biso   1.000  H
  H84      1.0000 0.01860  0.93310  0.98920  Biso   1.000  H
