data_EMOSOP_clean
_audit_creation_date              2014-07-02
_audit_creation_method            'Materials Studio'
_symmetry_space_group_name_H-M    'P1'
_symmetry_Int_Tables_number       1
_symmetry_cell_setting            triclinic
loop_
_symmetry_equiv_pos_as_xyz
  x,y,z
_cell_length_a                    9.5667
_cell_length_b                    16.4081
_cell_length_c                    16.4469
_cell_angle_alpha                 90.0000
_cell_angle_beta                  90.0000
_cell_angle_gamma                 90.0000
loop_
_atom_site_label
_atom_site_type_symbol
_atom_site_fract_x
_atom_site_fract_y
_atom_site_fract_z
_atom_site_U_iso_or_equiv
_atom_site_adp_type
_atom_site_occupancy
Cd1    Cd    0.02557   0.42964   0.12079   0.01267  Uiso   1.00
Cd2    Cd    0.68443   0.74988   0.85105   0.01267  Uiso   1.00
Cd3    Cd    0.47443   0.57036   0.62079   0.01267  Uiso   1.00
Cd4    Cd    0.81557   0.25012   0.35105   0.01267  Uiso   1.00
Cd5    Cd    0.97443   0.92964   0.37921   0.01267  Uiso   1.00
Cd6    Cd    0.31557   0.24988   0.64895   0.01267  Uiso   1.00
Cd7    Cd    0.52557   0.07036   0.87921   0.01267  Uiso   1.00
Cd8    Cd    0.18443   0.75012   0.14895   0.01267  Uiso   1.00
H1     H     0.47470   0.70230   0.09370   0.01267  Uiso   1.00
H2     H     0.81730   0.36910   0.00060   0.01267  Uiso   1.00
H3     H     0.43410   0.57580   0.05300   0.01267  Uiso   1.00
H4     H     0.25850   0.69550   0.97920   0.01267  Uiso   1.00
H5     H     0.29480   0.61270   0.93690   0.01267  Uiso   1.00
H6     H     0.46920   0.68950   0.23190   0.01267  Uiso   1.00
H7     H     0.38070   0.61020   0.21900   0.01267  Uiso   1.00
H8     H     0.70370   0.41600   0.14930   0.01267  Uiso   1.00
H9     H     0.49770   0.48400   0.17360   0.01267  Uiso   1.00
H10    H     0.71810   0.69040   0.18870   0.01267  Uiso   1.00
H11    H     0.91700   0.61770   0.16650   0.01267  Uiso   1.00
H12    H     0.92010   0.24870   0.97200   0.01267  Uiso   1.00
H13    H     0.82400   0.18470   0.07820   0.01267  Uiso   1.00
H14    H     0.73570   0.26440   0.06990   0.01267  Uiso   1.00
H15    H     0.06760   0.39240   0.92940   0.01267  Uiso   1.00
H16    H     0.93980   0.34960   0.88750   0.01267  Uiso   1.00
H17    H     0.98960   0.65990   0.87870   0.01267  Uiso   1.00
H18    H     0.08560   0.53730   0.91090   0.01267  Uiso   1.00
H19    H     0.70960   0.43500   0.88240   0.01267  Uiso   1.00
H20    H     0.62370   0.56210   0.85050   0.01267  Uiso   1.00
H21    H     0.02530   0.29770   0.59370   0.01267  Uiso   1.00
H22    H     0.68270   0.63090   0.50060   0.01267  Uiso   1.00
H23    H     0.06590   0.42420   0.55300   0.01267  Uiso   1.00
H24    H     0.24150   0.30450   0.47920   0.01267  Uiso   1.00
H25    H     0.20520   0.38730   0.43690   0.01267  Uiso   1.00
H26    H     0.03080   0.31050   0.73190   0.01267  Uiso   1.00
H27    H     0.11930   0.38980   0.71900   0.01267  Uiso   1.00
H28    H     0.79630   0.58400   0.64930   0.01267  Uiso   1.00
H29    H     0.00230   0.51600   0.67360   0.01267  Uiso   1.00
H30    H     0.78190   0.30960   0.68870   0.01267  Uiso   1.00
H31    H     0.58300   0.38230   0.66650   0.01267  Uiso   1.00
H32    H     0.57990   0.75130   0.47200   0.01267  Uiso   1.00
H33    H     0.67600   0.81530   0.57820   0.01267  Uiso   1.00
H34    H     0.76430   0.73560   0.56990   0.01267  Uiso   1.00
H35    H     0.43240   0.60760   0.42940   0.01267  Uiso   1.00
H36    H     0.56020   0.65040   0.38750   0.01267  Uiso   1.00
H37    H     0.51040   0.34010   0.37870   0.01267  Uiso   1.00
H38    H     0.41440   0.46270   0.41090   0.01267  Uiso   1.00
H39    H     0.79040   0.56500   0.38240   0.01267  Uiso   1.00
H40    H     0.87630   0.43790   0.35050   0.01267  Uiso   1.00
H41    H     0.52530   0.20230   0.40630   0.01267  Uiso   1.00
H42    H     0.18270   0.86910   0.49940   0.01267  Uiso   1.00
H43    H     0.56590   0.07580   0.44700   0.01267  Uiso   1.00
H44    H     0.74150   0.19550   0.52080   0.01267  Uiso   1.00
H45    H     0.70520   0.11270   0.56310   0.01267  Uiso   1.00
H46    H     0.53080   0.18950   0.26810   0.01267  Uiso   1.00
H47    H     0.61930   0.11020   0.28100   0.01267  Uiso   1.00
H48    H     0.29630   0.91600   0.35070   0.01267  Uiso   1.00
H49    H     0.50230   0.98400   0.32640   0.01267  Uiso   1.00
H50    H     0.28190   0.19040   0.31130   0.01267  Uiso   1.00
H51    H     0.08300   0.11770   0.33350   0.01267  Uiso   1.00
H52    H     0.07990   0.74870   0.52800   0.01267  Uiso   1.00
H53    H     0.17600   0.68470   0.42180   0.01267  Uiso   1.00
H54    H     0.26430   0.76440   0.43010   0.01267  Uiso   1.00
H55    H     0.93240   0.89240   0.57060   0.01267  Uiso   1.00
H56    H     0.06020   0.84960   0.61250   0.01267  Uiso   1.00
H57    H     0.01040   0.15990   0.62130   0.01267  Uiso   1.00
H58    H     0.91440   0.03730   0.58910   0.01267  Uiso   1.00
H59    H     0.29040   0.93500   0.61760   0.01267  Uiso   1.00
H60    H     0.37630   0.06210   0.64950   0.01267  Uiso   1.00
H61    H     0.97470   0.79770   0.90630   0.01267  Uiso   1.00
H62    H     0.31730   0.13090   0.99940   0.01267  Uiso   1.00
H63    H     0.93410   0.92420   0.94700   0.01267  Uiso   1.00
H64    H     0.75850   0.80450   0.02080   0.01267  Uiso   1.00
H65    H     0.79480   0.88730   0.06310   0.01267  Uiso   1.00
H66    H     0.96920   0.81050   0.76810   0.01267  Uiso   1.00
H67    H     0.88070   0.88980   0.78100   0.01267  Uiso   1.00
H68    H     0.20370   0.08400   0.85070   0.01267  Uiso   1.00
H69    H     0.99770   0.01600   0.82640   0.01267  Uiso   1.00
H70    H     0.21810   0.80960   0.81130   0.01267  Uiso   1.00
H71    H     0.41700   0.88230   0.83350   0.01267  Uiso   1.00
H72    H     0.42010   0.25130   0.02800   0.01267  Uiso   1.00
H73    H     0.32400   0.31530   0.92180   0.01267  Uiso   1.00
H74    H     0.23570   0.23560   0.93010   0.01267  Uiso   1.00
H75    H     0.56760   0.10760   0.07060   0.01267  Uiso   1.00
H76    H     0.43980   0.15040   0.11250   0.01267  Uiso   1.00
H77    H     0.48960   0.84010   0.12130   0.01267  Uiso   1.00
H78    H     0.58560   0.96270   0.08910   0.01267  Uiso   1.00
H79    H     0.20960   0.06500   0.11760   0.01267  Uiso   1.00
H80    H     0.12370   0.93790   0.14950   0.01267  Uiso   1.00
C1     C     0.22380   0.57170   0.08510   0.01267  Uiso   1.00
C2     C     0.35750   0.61520   0.05720   0.01267  Uiso   1.00
C3     C     0.33050   0.65430   0.97330   0.01267  Uiso   1.00
C4     C     0.45610   0.69270   0.93510   0.01267  Uiso   1.00
C5     C     0.45080   0.64520   0.19450   0.01267  Uiso   1.00
C6     C     0.70640   0.47220   0.15660   0.01267  Uiso   1.00
C7     C     0.58150   0.51260   0.17120   0.01267  Uiso   1.00
C8     C     0.58350   0.59680   0.18230   0.01267  Uiso   1.00
C9     C     0.71220   0.63440   0.18040   0.01267  Uiso   1.00
C10    C     0.83170   0.59050   0.16640   0.01267  Uiso   1.00
C11    C     0.08240   0.25780   0.05330   0.01267  Uiso   1.00
C12    C     0.93400   0.27730   0.02370   0.01267  Uiso   1.00
C13    C     0.82710   0.24340   0.08450   0.01267  Uiso   1.00
C14    C     0.85230   0.26220   0.17290   0.01267  Uiso   1.00
C15    C     0.96630   0.39000   0.92770   0.01267  Uiso   1.00
C16    C     0.93170   0.61440   0.88060   0.01267  Uiso   1.00
C17    C     0.99040   0.54060   0.90000   0.01267  Uiso   1.00
C18    C     0.90920   0.47170   0.90330   0.01267  Uiso   1.00
C19    C     0.76840   0.48010   0.88320   0.01267  Uiso   1.00
C20    C     0.71770   0.55720   0.86420   0.01267  Uiso   1.00
C21    C     0.27620   0.42830   0.58510   0.01267  Uiso   1.00
C22    C     0.14250   0.38480   0.55720   0.01267  Uiso   1.00
C23    C     0.16950   0.34570   0.47330   0.01267  Uiso   1.00
C24    C     0.04390   0.30730   0.43510   0.01267  Uiso   1.00
C25    C     0.04920   0.35480   0.69450   0.01267  Uiso   1.00
C26    C     0.79360   0.52780   0.65660   0.01267  Uiso   1.00
C27    C     0.91850   0.48740   0.67120   0.01267  Uiso   1.00
C28    C     0.91650   0.40320   0.68230   0.01267  Uiso   1.00
C29    C     0.78780   0.36560   0.68040   0.01267  Uiso   1.00
C30    C     0.66830   0.40950   0.66640   0.01267  Uiso   1.00
C31    C     0.41760   0.74220   0.55330   0.01267  Uiso   1.00
C32    C     0.56600   0.72270   0.52370   0.01267  Uiso   1.00
C33    C     0.67290   0.75660   0.58450   0.01267  Uiso   1.00
C34    C     0.64770   0.73780   0.67290   0.01267  Uiso   1.00
C35    C     0.53370   0.61000   0.42770   0.01267  Uiso   1.00
C36    C     0.56830   0.38560   0.38060   0.01267  Uiso   1.00
C37    C     0.50960   0.45940   0.40000   0.01267  Uiso   1.00
C38    C     0.59080   0.52830   0.40330   0.01267  Uiso   1.00
C39    C     0.73160   0.51990   0.38320   0.01267  Uiso   1.00
C40    C     0.78230   0.44280   0.36420   0.01267  Uiso   1.00
C41    C     0.77620   0.07170   0.41490   0.01267  Uiso   1.00
C42    C     0.64250   0.11520   0.44280   0.01267  Uiso   1.00
C43    C     0.66950   0.15430   0.52670   0.01267  Uiso   1.00
C44    C     0.54390   0.19270   0.56490   0.01267  Uiso   1.00
C45    C     0.54920   0.14520   0.30550   0.01267  Uiso   1.00
C46    C     0.29360   0.97220   0.34340   0.01267  Uiso   1.00
C47    C     0.41850   0.01260   0.32880   0.01267  Uiso   1.00
C48    C     0.41650   0.09680   0.31770   0.01267  Uiso   1.00
C49    C     0.28780   0.13440   0.31960   0.01267  Uiso   1.00
C50    C     0.16830   0.09050   0.33360   0.01267  Uiso   1.00
C51    C     0.91760   0.75780   0.44670   0.01267  Uiso   1.00
C52    C     0.06600   0.77730   0.47630   0.01267  Uiso   1.00
C53    C     0.17290   0.74340   0.41550   0.01267  Uiso   1.00
C54    C     0.14770   0.76220   0.32710   0.01267  Uiso   1.00
C55    C     0.03370   0.89000   0.57230   0.01267  Uiso   1.00
C56    C     0.06830   0.11440   0.61940   0.01267  Uiso   1.00
C57    C     0.00960   0.04060   0.60000   0.01267  Uiso   1.00
C58    C     0.09080   0.97170   0.59670   0.01267  Uiso   1.00
C59    C     0.23160   0.98010   0.61680   0.01267  Uiso   1.00
C60    C     0.28230   0.05720   0.63580   0.01267  Uiso   1.00
C61    C     0.72380   0.92830   0.91490   0.01267  Uiso   1.00
C62    C     0.85750   0.88480   0.94280   0.01267  Uiso   1.00
C63    C     0.83050   0.84570   0.02670   0.01267  Uiso   1.00
C64    C     0.95610   0.80730   0.06490   0.01267  Uiso   1.00
C65    C     0.95080   0.85480   0.80550   0.01267  Uiso   1.00
C66    C     0.20640   0.02780   0.84340   0.01267  Uiso   1.00
C67    C     0.08150   0.98740   0.82880   0.01267  Uiso   1.00
C68    C     0.08350   0.90320   0.81770   0.01267  Uiso   1.00
C69    C     0.21220   0.86560   0.81960   0.01267  Uiso   1.00
C70    C     0.33170   0.90950   0.83360   0.01267  Uiso   1.00
C71    C     0.58240   0.24220   0.94670   0.01267  Uiso   1.00
C72    C     0.43400   0.22270   0.97630   0.01267  Uiso   1.00
C73    C     0.32710   0.25660   0.91550   0.01267  Uiso   1.00
C74    C     0.35230   0.23780   0.82710   0.01267  Uiso   1.00
C75    C     0.46630   0.11000   0.07230   0.01267  Uiso   1.00
C76    C     0.43170   0.88560   0.11940   0.01267  Uiso   1.00
C77    C     0.49040   0.95940   0.10000   0.01267  Uiso   1.00
C78    C     0.40920   0.02830   0.09670   0.01267  Uiso   1.00
C79    C     0.26840   0.01990   0.11680   0.01267  Uiso   1.00
C80    C     0.21770   0.94280   0.13580   0.01267  Uiso   1.00
N1     N     0.39410   0.67940   0.11700   0.01267  Uiso   1.00
N2     N     0.83050   0.50970   0.15240   0.01267  Uiso   1.00
N3     N     0.91250   0.36530   0.00840   0.01267  Uiso   1.00
N4     N     0.79560   0.62430   0.86440   0.01267  Uiso   1.00
N5     N     0.10590   0.32060   0.61700   0.01267  Uiso   1.00
N6     N     0.66950   0.49030   0.65240   0.01267  Uiso   1.00
N7     N     0.58750   0.63470   0.50840   0.01267  Uiso   1.00
N8     N     0.70440   0.37570   0.36440   0.01267  Uiso   1.00
N9     N     0.60590   0.17940   0.38300   0.01267  Uiso   1.00
N10    N     0.16950   0.00970   0.34760   0.01267  Uiso   1.00
N11    N     0.08750   0.86530   0.49160   0.01267  Uiso   1.00
N12    N     0.20440   0.12430   0.63560   0.01267  Uiso   1.00
N13    N     0.89410   0.82060   0.88300   0.01267  Uiso   1.00
N14    N     0.33050   0.99030   0.84760   0.01267  Uiso   1.00
N15    N     0.41250   0.13470   0.99160   0.01267  Uiso   1.00
N16    N     0.29560   0.87570   0.13560   0.01267  Uiso   1.00
O1     O     0.13380   0.61153   0.12370   0.01267  Uiso   1.00
O2     O     0.21010   0.49690   0.06690   0.01267  Uiso   1.00
O3     O     0.46070   0.69733   0.85785   0.01267  Uiso   1.00
O4     O     0.55510   0.71910   0.97781   0.01267  Uiso   1.00
O5     O     0.15690   0.31636   0.07911   0.01267  Uiso   1.00
O6     O     0.11900   0.18460   0.04930   0.01267  Uiso   1.00
O7     O     0.90030   0.32983   0.19453   0.01267  Uiso   1.00
O8     O     0.81290   0.20777   0.22331   0.01267  Uiso   1.00
O9     O     0.36620   0.38847   0.62370   0.01267  Uiso   1.00
O10    O     0.28990   0.50310   0.56690   0.01267  Uiso   1.00
O11    O     0.03930   0.30267   0.35785   0.01267  Uiso   1.00
O12    O     0.94490   0.28090   0.47781   0.01267  Uiso   1.00
O13    O     0.34310   0.68364   0.57911   0.01267  Uiso   1.00
O14    O     0.38100   0.81540   0.54930   0.01267  Uiso   1.00
O15    O     0.59970   0.67017   0.69453   0.01267  Uiso   1.00
O16    O     0.68710   0.79223   0.72331   0.01267  Uiso   1.00
O17    O     0.86620   0.11153   0.37630   0.01267  Uiso   1.00
O18    O     0.78990   0.99690   0.43310   0.01267  Uiso   1.00
O19    O     0.53930   0.19733   0.64215   0.01267  Uiso   1.00
O20    O     0.44490   0.21910   0.52219   0.01267  Uiso   1.00
O21    O     0.84310   0.81636   0.42089   0.01267  Uiso   1.00
O22    O     0.88100   0.68460   0.45070   0.01267  Uiso   1.00
O23    O     0.09970   0.82983   0.30547   0.01267  Uiso   1.00
O24    O     0.18710   0.70777   0.27669   0.01267  Uiso   1.00
O25    O     0.63380   0.88847   0.87630   0.01267  Uiso   1.00
O26    O     0.71010   0.00310   0.93310   0.01267  Uiso   1.00
O27    O     0.96070   0.80267   0.14215   0.01267  Uiso   1.00
O28    O     0.05510   0.78090   0.02219   0.01267  Uiso   1.00
O29    O     0.65690   0.18364   0.92089   0.01267  Uiso   1.00
O30    O     0.61900   0.31540   0.95070   0.01267  Uiso   1.00
O31    O     0.40030   0.17017   0.80547   0.01267  Uiso   1.00
O32    O     0.31290   0.29223   0.77669   0.01267  Uiso   1.00
