data_image0
_cell_length_a       19.21
_cell_length_b       19.21
_cell_length_c       10.994
_cell_angle_alpha    90
_cell_angle_beta     90
_cell_angle_gamma    90

_symmetry_space_group_name_H-M    "P 1"
_symmetry_int_tables_number       1

loop_
  _symmetry_equiv_pos_as_xyz
  'x, y, z'

loop_
  _atom_site_label
  _atom_site_occupancy
  _atom_site_fract_x
  _atom_site_fract_y
  _atom_site_fract_z
  _atom_site_thermal_displace_type
  _atom_site_B_iso_or_equiv
  _atom_site_type_symbol
  O1       1.0000 0.48383  0.38168  0.50820  Biso   1.000  O
  O2       1.0000 0.53560  0.43335  0.35060  Biso   1.000  O
  C1       1.0000 0.57970  0.30960  0.25990  Biso   1.000  C
  H1       1.0000 0.59430  0.35140  0.22590  Biso   1.000  H
  C2       1.0000 0.53420  0.31160  0.35680  Biso   1.000  C
  C3       1.0000 0.51490  0.38140  0.40950  Biso   1.000  C
  O3       1.0000 0.01617  0.11832  0.50820  Biso   1.000  O
  O4       1.0000 0.96440  0.06665  0.35060  Biso   1.000  O
  C4       1.0000 0.92030  0.19040  0.25990  Biso   1.000  C
  H2       1.0000 0.90570  0.14860  0.22590  Biso   1.000  H
  C5       1.0000 0.96580  0.18840  0.35680  Biso   1.000  C
  C6       1.0000 0.98510  0.11860  0.40950  Biso   1.000  C
  O5       1.0000 0.11832  0.48383  0.50820  Biso   1.000  O
  O6       1.0000 0.06665  0.53560  0.35060  Biso   1.000  O
  C7       1.0000 0.19040  0.57970  0.25990  Biso   1.000  C
  H3       1.0000 0.14860  0.59430  0.22590  Biso   1.000  H
  C8       1.0000 0.18840  0.53420  0.35680  Biso   1.000  C
  C9       1.0000 0.11860  0.51490  0.40950  Biso   1.000  C
  O7       1.0000 0.38168  0.01617  0.50820  Biso   1.000  O
  O8       1.0000 0.43335  0.96440  0.35060  Biso   1.000  O
  C10      1.0000 0.30960  0.92030  0.25990  Biso   1.000  C
  H4       1.0000 0.35140  0.90570  0.22590  Biso   1.000  H
  C11      1.0000 0.31160  0.96580  0.35680  Biso   1.000  C
  C12      1.0000 0.38140  0.98510  0.40950  Biso   1.000  C
  O9       1.0000 0.51617  0.88168  0.49180  Biso   1.000  O
  O10      1.0000 0.46440  0.93335  0.64940  Biso   1.000  O
  C13      1.0000 0.42030  0.80960  0.74010  Biso   1.000  C
  H5       1.0000 0.40570  0.85140  0.77410  Biso   1.000  H
  C14      1.0000 0.46580  0.81160  0.64320  Biso   1.000  C
  C15      1.0000 0.48510  0.88140  0.59050  Biso   1.000  C
  O11      1.0000 0.98383  0.61832  0.49180  Biso   1.000  O
  O12      1.0000 0.03560  0.56665  0.64940  Biso   1.000  O
  C16      1.0000 0.07970  0.69040  0.74010  Biso   1.000  C
  H6       1.0000 0.09430  0.64860  0.77410  Biso   1.000  H
  C17      1.0000 0.03420  0.68840  0.64320  Biso   1.000  C
  C18      1.0000 0.01490  0.61860  0.59050  Biso   1.000  C
  O13      1.0000 0.88168  0.98383  0.49180  Biso   1.000  O
  O14      1.0000 0.93335  0.03560  0.64940  Biso   1.000  O
  C19      1.0000 0.80960  0.07970  0.74010  Biso   1.000  C
  H7       1.0000 0.85140  0.09430  0.77410  Biso   1.000  H
  C20      1.0000 0.81160  0.03420  0.64320  Biso   1.000  C
  C21      1.0000 0.88140  0.01490  0.59050  Biso   1.000  C
  O15      1.0000 0.61832  0.51617  0.49180  Biso   1.000  O
  O16      1.0000 0.56665  0.46440  0.64940  Biso   1.000  O
  C22      1.0000 0.69040  0.42030  0.74010  Biso   1.000  C
  H8       1.0000 0.64860  0.40570  0.77410  Biso   1.000  H
  C23      1.0000 0.68840  0.46580  0.64320  Biso   1.000  C
  C24      1.0000 0.61860  0.48510  0.59050  Biso   1.000  C
  O17      1.0000 0.51617  0.61832  0.49180  Biso   1.000  O
  O18      1.0000 0.46440  0.56665  0.64940  Biso   1.000  O
  C25      1.0000 0.42030  0.69040  0.74010  Biso   1.000  C
  H9       1.0000 0.40570  0.64860  0.77410  Biso   1.000  H
  C26      1.0000 0.46580  0.68840  0.64320  Biso   1.000  C
  C27      1.0000 0.48510  0.61860  0.59050  Biso   1.000  C
  O19      1.0000 0.98383  0.88168  0.49180  Biso   1.000  O
  O20      1.0000 0.03560  0.93335  0.64940  Biso   1.000  O
  C28      1.0000 0.07970  0.80960  0.74010  Biso   1.000  C
  H10      1.0000 0.09430  0.85140  0.77410  Biso   1.000  H
  C29      1.0000 0.03420  0.81160  0.64320  Biso   1.000  C
  C30      1.0000 0.01490  0.88140  0.59050  Biso   1.000  C
  O21      1.0000 0.88168  0.51617  0.49180  Biso   1.000  O
  O22      1.0000 0.93335  0.46440  0.64940  Biso   1.000  O
  C31      1.0000 0.80960  0.42030  0.74010  Biso   1.000  C
  H11      1.0000 0.85140  0.40570  0.77410  Biso   1.000  H
  C32      1.0000 0.81160  0.46580  0.64320  Biso   1.000  C
  C33      1.0000 0.88140  0.48510  0.59050  Biso   1.000  C
  O23      1.0000 0.61832  0.98383  0.49180  Biso   1.000  O
  O24      1.0000 0.56665  0.03560  0.64940  Biso   1.000  O
  C34      1.0000 0.69040  0.07970  0.74010  Biso   1.000  C
  H12      1.0000 0.64860  0.09430  0.77410  Biso   1.000  H
  C35      1.0000 0.68840  0.03420  0.64320  Biso   1.000  C
  C36      1.0000 0.61860  0.01490  0.59050  Biso   1.000  C
  O25      1.0000 0.48383  0.11832  0.50820  Biso   1.000  O
  O26      1.0000 0.53560  0.06665  0.35060  Biso   1.000  O
  C37      1.0000 0.57970  0.19040  0.25990  Biso   1.000  C
  H13      1.0000 0.59430  0.14860  0.22590  Biso   1.000  H
  C38      1.0000 0.53420  0.18840  0.35680  Biso   1.000  C
  C39      1.0000 0.51490  0.11860  0.40950  Biso   1.000  C
  O27      1.0000 0.01617  0.38168  0.50820  Biso   1.000  O
  O28      1.0000 0.96440  0.43335  0.35060  Biso   1.000  O
  C40      1.0000 0.92030  0.30960  0.25990  Biso   1.000  C
  H14      1.0000 0.90570  0.35140  0.22590  Biso   1.000  H
  C41      1.0000 0.96580  0.31160  0.35680  Biso   1.000  C
  C42      1.0000 0.98510  0.38140  0.40950  Biso   1.000  C
  O29      1.0000 0.11832  0.01617  0.50820  Biso   1.000  O
  O30      1.0000 0.06665  0.96440  0.35060  Biso   1.000  O
  C43      1.0000 0.19040  0.92030  0.25990  Biso   1.000  C
  H15      1.0000 0.14860  0.90570  0.22590  Biso   1.000  H
  C44      1.0000 0.18840  0.96580  0.35680  Biso   1.000  C
  C45      1.0000 0.11860  0.98510  0.40950  Biso   1.000  C
  O31      1.0000 0.38168  0.48383  0.50820  Biso   1.000  O
  O32      1.0000 0.43335  0.53560  0.35060  Biso   1.000  O
  C46      1.0000 0.30960  0.57970  0.25990  Biso   1.000  C
  H16      1.0000 0.35140  0.59430  0.22590  Biso   1.000  H
  C47      1.0000 0.31160  0.53420  0.35680  Biso   1.000  C
  C48      1.0000 0.38140  0.51490  0.40950  Biso   1.000  C
  I1       1.0000 0.62904  0.25000  0.86411  Biso   1.000  I
  Cu1      1.0000 0.68147  0.25000  0.08659  Biso   1.000  Cu
  N1       1.0000 0.60380  0.25000  0.21250  Biso   1.000  N
  C49      1.0000 0.51150  0.25000  0.40690  Biso   1.000  C
  H17      1.0000 0.48140  0.25000  0.47320  Biso   1.000  H
  I2       1.0000 0.87096  0.25000  0.86411  Biso   1.000  I
  Cu2      1.0000 0.81853  0.25000  0.08659  Biso   1.000  Cu
  N2       1.0000 0.89620  0.25000  0.21250  Biso   1.000  N
  C50      1.0000 0.98850  0.25000  0.40690  Biso   1.000  C
  H18      1.0000 0.01860  0.25000  0.47320  Biso   1.000  H
  I3       1.0000 0.25000  0.62904  0.86411  Biso   1.000  I
  Cu3      1.0000 0.25000  0.68147  0.08659  Biso   1.000  Cu
  N3       1.0000 0.25000  0.60380  0.21250  Biso   1.000  N
  C51      1.0000 0.25000  0.51150  0.40690  Biso   1.000  C
  H19      1.0000 0.25000  0.48140  0.47320  Biso   1.000  H
  I4       1.0000 0.25000  0.87096  0.86411  Biso   1.000  I
  Cu4      1.0000 0.25000  0.81853  0.08659  Biso   1.000  Cu
  N4       1.0000 0.25000  0.89620  0.21250  Biso   1.000  N
  C52      1.0000 0.25000  0.98850  0.40690  Biso   1.000  C
  H20      1.0000 0.25000  0.01860  0.47320  Biso   1.000  H
  I5       1.0000 0.37096  0.75000  0.13589  Biso   1.000  I
  Cu5      1.0000 0.31853  0.75000  0.91341  Biso   1.000  Cu
  N5       1.0000 0.39620  0.75000  0.78750  Biso   1.000  N
  C53      1.0000 0.48850  0.75000  0.59310  Biso   1.000  C
  H21      1.0000 0.51860  0.75000  0.52680  Biso   1.000  H
  I6       1.0000 0.12904  0.75000  0.13589  Biso   1.000  I
  Cu6      1.0000 0.18147  0.75000  0.91341  Biso   1.000  Cu
  N6       1.0000 0.10380  0.75000  0.78750  Biso   1.000  N
  C54      1.0000 0.01150  0.75000  0.59310  Biso   1.000  C
  H22      1.0000 0.98140  0.75000  0.52680  Biso   1.000  H
  I7       1.0000 0.75000  0.12904  0.13589  Biso   1.000  I
  Cu7      1.0000 0.75000  0.18147  0.91341  Biso   1.000  Cu
  N7       1.0000 0.75000  0.10380  0.78750  Biso   1.000  N
  C55      1.0000 0.75000  0.01150  0.59310  Biso   1.000  C
  H23      1.0000 0.75000  0.98140  0.52680  Biso   1.000  H
  I8       1.0000 0.75000  0.37096  0.13589  Biso   1.000  I
  Cu8      1.0000 0.75000  0.31853  0.91341  Biso   1.000  Cu
  N8       1.0000 0.75000  0.39620  0.78750  Biso   1.000  N
  C56      1.0000 0.75000  0.48850  0.59310  Biso   1.000  C
  H24      1.0000 0.75000  0.51860  0.52680  Biso   1.000  H
  Cu9      1.0000 0.46954  0.46954  0.59500  Biso   1.000  Cu
  Cu10     1.0000 0.03046  0.03046  0.59500  Biso   1.000  Cu
  Cu11     1.0000 0.03046  0.46954  0.59500  Biso   1.000  Cu
  Cu12     1.0000 0.46954  0.03046  0.59500  Biso   1.000  Cu
  Cu13     1.0000 0.53046  0.96954  0.40500  Biso   1.000  Cu
  Cu14     1.0000 0.96954  0.53046  0.40500  Biso   1.000  Cu
  Cu15     1.0000 0.96954  0.96954  0.40500  Biso   1.000  Cu
  Cu16     1.0000 0.53046  0.53046  0.40500  Biso   1.000  Cu
