data_image0
_cell_length_a       18.129
_cell_length_b       18.129
_cell_length_c       21.841
_cell_angle_alpha    90
_cell_angle_beta     90
_cell_angle_gamma    90

_symmetry_space_group_name_H-M    "P 1"
_symmetry_int_tables_number       1

loop_
  _symmetry_equiv_pos_as_xyz
  'x, y, z'

loop_
  _atom_site_label
  _atom_site_occupancy
  _atom_site_fract_x
  _atom_site_fract_y
  _atom_site_fract_z
  _atom_site_thermal_displace_type
  _atom_site_B_iso_or_equiv
  _atom_site_type_symbol
  C1       1.0000 0.56360  0.84230  0.60480  Biso   1.000  C
  H1       1.0000 0.60890  0.85840  0.58740  Biso   1.000  H
  C2       1.0000 0.56580  0.79850  0.65630  Biso   1.000  C
  C3       1.0000 0.63700  0.77900  0.68730  Biso   1.000  C
  O1       1.0000 0.69620  0.80440  0.66441  Biso   1.000  O
  O2       1.0000 0.63170  0.74020  0.73495  Biso   1.000  O
  C4       1.0000 0.06360  0.34230  0.10480  Biso   1.000  C
  H2       1.0000 0.10890  0.35840  0.08740  Biso   1.000  H
  C5       1.0000 0.06580  0.29850  0.15630  Biso   1.000  C
  C6       1.0000 0.13700  0.27900  0.18730  Biso   1.000  C
  O3       1.0000 0.19620  0.30440  0.16441  Biso   1.000  O
  O4       1.0000 0.13170  0.24020  0.23495  Biso   1.000  O
  C7       1.0000 0.43640  0.15770  0.60480  Biso   1.000  C
  H3       1.0000 0.39110  0.14160  0.58740  Biso   1.000  H
  C8       1.0000 0.43420  0.20150  0.65630  Biso   1.000  C
  C9       1.0000 0.36300  0.22100  0.68730  Biso   1.000  C
  O5       1.0000 0.30380  0.19560  0.66441  Biso   1.000  O
  O6       1.0000 0.36830  0.25980  0.73495  Biso   1.000  O
  C10      1.0000 0.93640  0.65770  0.10480  Biso   1.000  C
  H4       1.0000 0.89110  0.64160  0.08740  Biso   1.000  H
  C11      1.0000 0.93420  0.70150  0.15630  Biso   1.000  C
  C12      1.0000 0.86300  0.72100  0.18730  Biso   1.000  C
  O7       1.0000 0.80380  0.69560  0.16441  Biso   1.000  O
  O8       1.0000 0.86830  0.75980  0.23495  Biso   1.000  O
  C13      1.0000 0.15770  0.56360  0.60480  Biso   1.000  C
  H5       1.0000 0.14160  0.60890  0.58740  Biso   1.000  H
  C14      1.0000 0.20150  0.56580  0.65630  Biso   1.000  C
  C15      1.0000 0.22100  0.63700  0.68730  Biso   1.000  C
  O9       1.0000 0.19560  0.69620  0.66441  Biso   1.000  O
  O10      1.0000 0.25980  0.63170  0.73495  Biso   1.000  O
  C16      1.0000 0.65770  0.06360  0.10480  Biso   1.000  C
  H6       1.0000 0.64160  0.10890  0.08740  Biso   1.000  H
  C17      1.0000 0.70150  0.06580  0.15630  Biso   1.000  C
  C18      1.0000 0.72100  0.13700  0.18730  Biso   1.000  C
  O11      1.0000 0.69560  0.19620  0.16441  Biso   1.000  O
  O12      1.0000 0.75980  0.13170  0.23495  Biso   1.000  O
  C19      1.0000 0.84230  0.43640  0.60480  Biso   1.000  C
  H7       1.0000 0.85840  0.39110  0.58740  Biso   1.000  H
  C20      1.0000 0.79850  0.43420  0.65630  Biso   1.000  C
  C21      1.0000 0.77900  0.36300  0.68730  Biso   1.000  C
  O13      1.0000 0.80440  0.30380  0.66441  Biso   1.000  O
  O14      1.0000 0.74020  0.36830  0.73495  Biso   1.000  O
  C22      1.0000 0.34230  0.93640  0.10480  Biso   1.000  C
  H8       1.0000 0.35840  0.89110  0.08740  Biso   1.000  H
  C23      1.0000 0.29850  0.93420  0.15630  Biso   1.000  C
  C24      1.0000 0.27900  0.86300  0.18730  Biso   1.000  C
  O15      1.0000 0.30440  0.80380  0.16441  Biso   1.000  O
  O16      1.0000 0.24020  0.86830  0.23495  Biso   1.000  O
  C25      1.0000 0.43640  0.84230  0.39520  Biso   1.000  C
  H9       1.0000 0.39110  0.85840  0.41260  Biso   1.000  H
  C26      1.0000 0.43420  0.79850  0.34370  Biso   1.000  C
  C27      1.0000 0.36300  0.77900  0.31270  Biso   1.000  C
  O17      1.0000 0.30380  0.80440  0.33559  Biso   1.000  O
  O18      1.0000 0.36830  0.74020  0.26505  Biso   1.000  O
  C28      1.0000 0.93640  0.34230  0.89520  Biso   1.000  C
  H10      1.0000 0.89110  0.35840  0.91260  Biso   1.000  H
  C29      1.0000 0.93420  0.29850  0.84370  Biso   1.000  C
  C30      1.0000 0.86300  0.27900  0.81270  Biso   1.000  C
  O19      1.0000 0.80380  0.30440  0.83559  Biso   1.000  O
  O20      1.0000 0.86830  0.24020  0.76505  Biso   1.000  O
  C31      1.0000 0.56360  0.15770  0.39520  Biso   1.000  C
  H11      1.0000 0.60890  0.14160  0.41260  Biso   1.000  H
  C32      1.0000 0.56580  0.20150  0.34370  Biso   1.000  C
  C33      1.0000 0.63700  0.22100  0.31270  Biso   1.000  C
  O21      1.0000 0.69620  0.19560  0.33559  Biso   1.000  O
  O22      1.0000 0.63170  0.25980  0.26505  Biso   1.000  O
  C34      1.0000 0.06360  0.65770  0.89520  Biso   1.000  C
  H12      1.0000 0.10890  0.64160  0.91260  Biso   1.000  H
  C35      1.0000 0.06580  0.70150  0.84370  Biso   1.000  C
  C36      1.0000 0.13700  0.72100  0.81270  Biso   1.000  C
  O23      1.0000 0.19620  0.69560  0.83559  Biso   1.000  O
  O24      1.0000 0.13170  0.75980  0.76505  Biso   1.000  O
  C37      1.0000 0.84230  0.56360  0.39520  Biso   1.000  C
  H13      1.0000 0.85840  0.60890  0.41260  Biso   1.000  H
  C38      1.0000 0.79850  0.56580  0.34370  Biso   1.000  C
  C39      1.0000 0.77900  0.63700  0.31270  Biso   1.000  C
  O25      1.0000 0.80440  0.69620  0.33559  Biso   1.000  O
  O26      1.0000 0.74020  0.63170  0.26505  Biso   1.000  O
  C40      1.0000 0.34230  0.06360  0.89520  Biso   1.000  C
  H14      1.0000 0.35840  0.10890  0.91260  Biso   1.000  H
  C41      1.0000 0.29850  0.06580  0.84370  Biso   1.000  C
  C42      1.0000 0.27900  0.13700  0.81270  Biso   1.000  C
  O27      1.0000 0.30440  0.19620  0.83559  Biso   1.000  O
  O28      1.0000 0.24020  0.13170  0.76505  Biso   1.000  O
  C43      1.0000 0.15770  0.43640  0.39520  Biso   1.000  C
  H15      1.0000 0.14160  0.39110  0.41260  Biso   1.000  H
  C44      1.0000 0.20150  0.43420  0.34370  Biso   1.000  C
  C45      1.0000 0.22100  0.36300  0.31270  Biso   1.000  C
  O29      1.0000 0.19560  0.30380  0.33559  Biso   1.000  O
  O30      1.0000 0.25980  0.36830  0.26505  Biso   1.000  O
  C46      1.0000 0.65770  0.93640  0.89520  Biso   1.000  C
  H16      1.0000 0.64160  0.89110  0.91260  Biso   1.000  H
  C47      1.0000 0.70150  0.93420  0.84370  Biso   1.000  C
  C48      1.0000 0.72100  0.86300  0.81270  Biso   1.000  C
  O31      1.0000 0.69560  0.80380  0.83559  Biso   1.000  O
  O32      1.0000 0.75980  0.86830  0.76505  Biso   1.000  O
  C49      1.0000 0.43640  0.15770  0.39520  Biso   1.000  C
  H17      1.0000 0.39110  0.14160  0.41260  Biso   1.000  H
  C50      1.0000 0.43420  0.20150  0.34370  Biso   1.000  C
  C51      1.0000 0.36300  0.22100  0.31270  Biso   1.000  C
  O33      1.0000 0.30380  0.19560  0.33559  Biso   1.000  O
  O34      1.0000 0.36830  0.25980  0.26505  Biso   1.000  O
  C52      1.0000 0.93640  0.65770  0.89520  Biso   1.000  C
  H18      1.0000 0.89110  0.64160  0.91260  Biso   1.000  H
  C53      1.0000 0.93420  0.70150  0.84370  Biso   1.000  C
  C54      1.0000 0.86300  0.72100  0.81270  Biso   1.000  C
  O35      1.0000 0.80380  0.69560  0.83559  Biso   1.000  O
  O36      1.0000 0.86830  0.75980  0.76505  Biso   1.000  O
  C55      1.0000 0.56360  0.84230  0.39520  Biso   1.000  C
  H19      1.0000 0.60890  0.85840  0.41260  Biso   1.000  H
  C56      1.0000 0.56580  0.79850  0.34370  Biso   1.000  C
  C57      1.0000 0.63700  0.77900  0.31270  Biso   1.000  C
  O37      1.0000 0.69620  0.80440  0.33559  Biso   1.000  O
  O38      1.0000 0.63170  0.74020  0.26505  Biso   1.000  O
  C58      1.0000 0.06360  0.34230  0.89520  Biso   1.000  C
  H20      1.0000 0.10890  0.35840  0.91260  Biso   1.000  H
  C59      1.0000 0.06580  0.29850  0.84370  Biso   1.000  C
  C60      1.0000 0.13700  0.27900  0.81270  Biso   1.000  C
  O39      1.0000 0.19620  0.30440  0.83559  Biso   1.000  O
  O40      1.0000 0.13170  0.24020  0.76505  Biso   1.000  O
  C61      1.0000 0.84230  0.43640  0.39520  Biso   1.000  C
  H21      1.0000 0.85840  0.39110  0.41260  Biso   1.000  H
  C62      1.0000 0.79850  0.43420  0.34370  Biso   1.000  C
  C63      1.0000 0.77900  0.36300  0.31270  Biso   1.000  C
  O41      1.0000 0.80440  0.30380  0.33559  Biso   1.000  O
  O42      1.0000 0.74020  0.36830  0.26505  Biso   1.000  O
  C64      1.0000 0.34230  0.93640  0.89520  Biso   1.000  C
  H22      1.0000 0.35840  0.89110  0.91260  Biso   1.000  H
  C65      1.0000 0.29850  0.93420  0.84370  Biso   1.000  C
  C66      1.0000 0.27900  0.86300  0.81270  Biso   1.000  C
  O43      1.0000 0.30440  0.80380  0.83559  Biso   1.000  O
  O44      1.0000 0.24020  0.86830  0.76505  Biso   1.000  O
  C67      1.0000 0.15770  0.56360  0.39520  Biso   1.000  C
  H23      1.0000 0.14160  0.60890  0.41260  Biso   1.000  H
  C68      1.0000 0.20150  0.56580  0.34370  Biso   1.000  C
  C69      1.0000 0.22100  0.63700  0.31270  Biso   1.000  C
  O45      1.0000 0.19560  0.69620  0.33559  Biso   1.000  O
  O46      1.0000 0.25980  0.63170  0.26505  Biso   1.000  O
  C70      1.0000 0.65770  0.06360  0.89520  Biso   1.000  C
  H24      1.0000 0.64160  0.10890  0.91260  Biso   1.000  H
  C71      1.0000 0.70150  0.06580  0.84370  Biso   1.000  C
  C72      1.0000 0.72100  0.13700  0.81270  Biso   1.000  C
  O47      1.0000 0.69560  0.19620  0.83559  Biso   1.000  O
  O48      1.0000 0.75980  0.13170  0.76505  Biso   1.000  O
  C73      1.0000 0.56360  0.15770  0.60480  Biso   1.000  C
  H25      1.0000 0.60890  0.14160  0.58740  Biso   1.000  H
  C74      1.0000 0.56580  0.20150  0.65630  Biso   1.000  C
  C75      1.0000 0.63700  0.22100  0.68730  Biso   1.000  C
  O49      1.0000 0.69620  0.19560  0.66441  Biso   1.000  O
  O50      1.0000 0.63170  0.25980  0.73495  Biso   1.000  O
  C76      1.0000 0.06360  0.65770  0.10480  Biso   1.000  C
  H26      1.0000 0.10890  0.64160  0.08740  Biso   1.000  H
  C77      1.0000 0.06580  0.70150  0.15630  Biso   1.000  C
  C78      1.0000 0.13700  0.72100  0.18730  Biso   1.000  C
  O51      1.0000 0.19620  0.69560  0.16441  Biso   1.000  O
  O52      1.0000 0.13170  0.75980  0.23495  Biso   1.000  O
  C79      1.0000 0.43640  0.84230  0.60480  Biso   1.000  C
  H27      1.0000 0.39110  0.85840  0.58740  Biso   1.000  H
  C80      1.0000 0.43420  0.79850  0.65630  Biso   1.000  C
  C81      1.0000 0.36300  0.77900  0.68730  Biso   1.000  C
  O53      1.0000 0.30380  0.80440  0.66441  Biso   1.000  O
  O54      1.0000 0.36830  0.74020  0.73495  Biso   1.000  O
  C82      1.0000 0.93640  0.34230  0.10480  Biso   1.000  C
  H28      1.0000 0.89110  0.35840  0.08740  Biso   1.000  H
  C83      1.0000 0.93420  0.29850  0.15630  Biso   1.000  C
  C84      1.0000 0.86300  0.27900  0.18730  Biso   1.000  C
  O55      1.0000 0.80380  0.30440  0.16441  Biso   1.000  O
  O56      1.0000 0.86830  0.24020  0.23495  Biso   1.000  O
  C85      1.0000 0.15770  0.43640  0.60480  Biso   1.000  C
  H29      1.0000 0.14160  0.39110  0.58740  Biso   1.000  H
  C86      1.0000 0.20150  0.43420  0.65630  Biso   1.000  C
  C87      1.0000 0.22100  0.36300  0.68730  Biso   1.000  C
  O57      1.0000 0.19560  0.30380  0.66441  Biso   1.000  O
  O58      1.0000 0.25980  0.36830  0.73495  Biso   1.000  O
  C88      1.0000 0.65770  0.93640  0.10480  Biso   1.000  C
  H30      1.0000 0.64160  0.89110  0.08740  Biso   1.000  H
  C89      1.0000 0.70150  0.93420  0.15630  Biso   1.000  C
  C90      1.0000 0.72100  0.86300  0.18730  Biso   1.000  C
  O59      1.0000 0.69560  0.80380  0.16441  Biso   1.000  O
  O60      1.0000 0.75980  0.86830  0.23495  Biso   1.000  O
  C91      1.0000 0.84230  0.56360  0.60480  Biso   1.000  C
  H31      1.0000 0.85840  0.60890  0.58740  Biso   1.000  H
  C92      1.0000 0.79850  0.56580  0.65630  Biso   1.000  C
  C93      1.0000 0.77900  0.63700  0.68730  Biso   1.000  C
  O61      1.0000 0.80440  0.69620  0.66441  Biso   1.000  O
  O62      1.0000 0.74020  0.63170  0.73495  Biso   1.000  O
  C94      1.0000 0.34230  0.06360  0.10480  Biso   1.000  C
  H32      1.0000 0.35840  0.10890  0.08740  Biso   1.000  H
  C95      1.0000 0.29850  0.06580  0.15630  Biso   1.000  C
  C96      1.0000 0.27900  0.13700  0.18730  Biso   1.000  C
  O63      1.0000 0.30440  0.19620  0.16441  Biso   1.000  O
  O64      1.0000 0.24020  0.13170  0.23495  Biso   1.000  O
  I1       1.0000 0.37427  0.00000  0.50000  Biso   1.000  I
  I2       1.0000 0.87427  0.50000  0.00000  Biso   1.000  I
  I3       1.0000 0.62573  0.00000  0.50000  Biso   1.000  I
  I4       1.0000 0.12573  0.50000  0.00000  Biso   1.000  I
  I5       1.0000 0.00000  0.37427  0.50000  Biso   1.000  I
  I6       1.0000 0.50000  0.87427  0.00000  Biso   1.000  I
  I7       1.0000 0.00000  0.62573  0.50000  Biso   1.000  I
  I8       1.0000 0.50000  0.12573  0.00000  Biso   1.000  I
  Cu1      1.0000 0.50000  0.92657  0.50000  Biso   1.000  Cu
  Cu2      1.0000 0.00000  0.42657  0.00000  Biso   1.000  Cu
  Cu3      1.0000 0.50000  0.07343  0.50000  Biso   1.000  Cu
  Cu4      1.0000 0.00000  0.57343  0.00000  Biso   1.000  Cu
  Cu5      1.0000 0.07343  0.50000  0.50000  Biso   1.000  Cu
  Cu6      1.0000 0.57343  0.00000  0.00000  Biso   1.000  Cu
  Cu7      1.0000 0.92657  0.50000  0.50000  Biso   1.000  Cu
  Cu8      1.0000 0.42657  0.00000  0.00000  Biso   1.000  Cu
  N1       1.0000 0.50000  0.86340  0.57790  Biso   1.000  N
  C97      1.0000 0.50000  0.77590  0.68260  Biso   1.000  C
  H33      1.0000 0.50000  0.74540  0.71800  Biso   1.000  H
  N2       1.0000 0.00000  0.36340  0.07790  Biso   1.000  N
  C98      1.0000 0.00000  0.27590  0.18260  Biso   1.000  C
  H34      1.0000 0.00000  0.24540  0.21800  Biso   1.000  H
  N3       1.0000 0.50000  0.13660  0.57790  Biso   1.000  N
  C99      1.0000 0.50000  0.22410  0.68260  Biso   1.000  C
  H35      1.0000 0.50000  0.25460  0.71800  Biso   1.000  H
  N4       1.0000 0.00000  0.63660  0.07790  Biso   1.000  N
  C100     1.0000 0.00000  0.72410  0.18260  Biso   1.000  C
  H36      1.0000 0.00000  0.75460  0.21800  Biso   1.000  H
  N5       1.0000 0.13660  0.50000  0.57790  Biso   1.000  N
  C101     1.0000 0.22410  0.50000  0.68260  Biso   1.000  C
  H37      1.0000 0.25460  0.50000  0.71800  Biso   1.000  H
  N6       1.0000 0.63660  0.00000  0.07790  Biso   1.000  N
  C102     1.0000 0.72410  0.00000  0.18260  Biso   1.000  C
  H38      1.0000 0.75460  0.00000  0.21800  Biso   1.000  H
  N7       1.0000 0.86340  0.50000  0.57790  Biso   1.000  N
  C103     1.0000 0.77590  0.50000  0.68260  Biso   1.000  C
  H39      1.0000 0.74540  0.50000  0.71800  Biso   1.000  H
  N8       1.0000 0.36340  0.00000  0.07790  Biso   1.000  N
  C104     1.0000 0.27590  0.00000  0.18260  Biso   1.000  C
  H40      1.0000 0.24540  0.00000  0.21800  Biso   1.000  H
  N9       1.0000 0.50000  0.86340  0.42210  Biso   1.000  N
  C105     1.0000 0.50000  0.77590  0.31740  Biso   1.000  C
  H41      1.0000 0.50000  0.74540  0.28200  Biso   1.000  H
  N10      1.0000 0.00000  0.36340  0.92210  Biso   1.000  N
  C106     1.0000 0.00000  0.27590  0.81740  Biso   1.000  C
  H42      1.0000 0.00000  0.24540  0.78200  Biso   1.000  H
  N11      1.0000 0.50000  0.13660  0.42210  Biso   1.000  N
  C107     1.0000 0.50000  0.22410  0.31740  Biso   1.000  C
  H43      1.0000 0.50000  0.25460  0.28200  Biso   1.000  H
  N12      1.0000 0.00000  0.63660  0.92210  Biso   1.000  N
  C108     1.0000 0.00000  0.72410  0.81740  Biso   1.000  C
  H44      1.0000 0.00000  0.75460  0.78200  Biso   1.000  H
  N13      1.0000 0.86340  0.50000  0.42210  Biso   1.000  N
  C109     1.0000 0.77590  0.50000  0.31740  Biso   1.000  C
  H45      1.0000 0.74540  0.50000  0.28200  Biso   1.000  H
  N14      1.0000 0.36340  0.00000  0.92210  Biso   1.000  N
  C110     1.0000 0.27590  0.00000  0.81740  Biso   1.000  C
  H46      1.0000 0.24540  0.00000  0.78200  Biso   1.000  H
  N15      1.0000 0.13660  0.50000  0.42210  Biso   1.000  N
  C111     1.0000 0.22410  0.50000  0.31740  Biso   1.000  C
  H47      1.0000 0.25460  0.50000  0.28200  Biso   1.000  H
  N16      1.0000 0.63660  0.00000  0.92210  Biso   1.000  N
  C112     1.0000 0.72410  0.00000  0.81740  Biso   1.000  C
  H48      1.0000 0.75460  0.00000  0.78200  Biso   1.000  H
  Cu9      1.0000 0.78876  0.78876  0.70935  Biso   1.000  Cu
  Cu10     1.0000 0.28876  0.28876  0.20935  Biso   1.000  Cu
  Cu11     1.0000 0.21124  0.21124  0.70935  Biso   1.000  Cu
  Cu12     1.0000 0.71124  0.71124  0.20935  Biso   1.000  Cu
  Cu13     1.0000 0.21124  0.78876  0.70935  Biso   1.000  Cu
  Cu14     1.0000 0.71124  0.28876  0.20935  Biso   1.000  Cu
  Cu15     1.0000 0.78876  0.21124  0.70935  Biso   1.000  Cu
  Cu16     1.0000 0.28876  0.71124  0.20935  Biso   1.000  Cu
  Cu17     1.0000 0.21124  0.78876  0.29065  Biso   1.000  Cu
  Cu18     1.0000 0.71124  0.28876  0.79065  Biso   1.000  Cu
  Cu19     1.0000 0.78876  0.21124  0.29065  Biso   1.000  Cu
  Cu20     1.0000 0.28876  0.71124  0.79065  Biso   1.000  Cu
  Cu21     1.0000 0.78876  0.78876  0.29065  Biso   1.000  Cu
  Cu22     1.0000 0.28876  0.28876  0.79065  Biso   1.000  Cu
  Cu23     1.0000 0.21124  0.21124  0.29065  Biso   1.000  Cu
  Cu24     1.0000 0.71124  0.71124  0.79065  Biso   1.000  Cu
