data_image0
_cell_length_a       15.707
_cell_length_b       15.707
_cell_length_c       7.204
_cell_angle_alpha    90
_cell_angle_beta     90
_cell_angle_gamma    120

_symmetry_space_group_name_H-M    "P 1"
_symmetry_int_tables_number       1

loop_
  _symmetry_equiv_pos_as_xyz
  'x, y, z'

loop_
  _atom_site_label
  _atom_site_occupancy
  _atom_site_fract_x
  _atom_site_fract_y
  _atom_site_fract_z
  _atom_site_thermal_displace_type
  _atom_site_B_iso_or_equiv
  _atom_site_type_symbol
  Ag1      1.0000 0.52846  0.26432  0.99999  Biso   1.000  Ag
  N1       1.0000 0.51500  0.40390  0.31070  Biso   1.000  N
  N2       1.0000 0.40420  0.51620  0.31190  Biso   1.000  N
  C1       1.0000 0.52210  0.35230  0.20710  Biso   1.000  C
  C2       1.0000 0.35310  0.52290  0.20430  Biso   1.000  C
  N3       1.0000 0.37140  0.37300  0.62580  Biso   1.000  N
  C3       1.0000 0.36550  0.28330  0.66290  Biso   1.000  C
  C4       1.0000 0.27900  0.20570  0.73300  Biso   1.000  C
  C5       1.0000 0.19850  0.21780  0.76700  Biso   1.000  C
  C6       1.0000 0.20450  0.30750  0.73000  Biso   1.000  C
  C7       1.0000 0.29090  0.38510  0.65920  Biso   1.000  C
  C8       1.0000 0.10700  0.24700  0.75500  Biso   1.000  C
  N4       1.0000 0.01850  0.22300  0.77800  Biso   1.000  N
  Ag2      1.0000 0.73568  0.26414  0.99999  Biso   1.000  Ag
  N5       1.0000 0.59610  0.11110  0.31070  Biso   1.000  N
  N6       1.0000 0.48380  0.88800  0.31190  Biso   1.000  N
  C9       1.0000 0.64770  0.16980  0.20710  Biso   1.000  C
  C10      1.0000 0.47710  0.83020  0.20430  Biso   1.000  C
  N7       1.0000 0.62700  0.99840  0.62580  Biso   1.000  N
  C11      1.0000 0.71670  0.08220  0.66290  Biso   1.000  C
  C12      1.0000 0.79430  0.07330  0.73300  Biso   1.000  C
  C13      1.0000 0.78220  0.98070  0.76700  Biso   1.000  C
  C14      1.0000 0.69250  0.89700  0.73000  Biso   1.000  C
  C15      1.0000 0.61490  0.90580  0.65920  Biso   1.000  C
  C16      1.0000 0.75300  0.86000  0.75500  Biso   1.000  C
  N8       1.0000 0.77700  0.79550  0.77800  Biso   1.000  N
  Ag3      1.0000 0.73586  0.47154  0.99999  Biso   1.000  Ag
  N9       1.0000 0.88890  0.48500  0.31070  Biso   1.000  N
  N10      1.0000 0.11200  0.59580  0.31190  Biso   1.000  N
  C17      1.0000 0.83020  0.47790  0.20710  Biso   1.000  C
  C18      1.0000 0.16980  0.64690  0.20430  Biso   1.000  C
  N11      1.0000 0.00160  0.62860  0.62580  Biso   1.000  N
  C19      1.0000 0.91780  0.63450  0.66290  Biso   1.000  C
  C20      1.0000 0.92670  0.72100  0.73300  Biso   1.000  C
  C21      1.0000 0.01930  0.80150  0.76700  Biso   1.000  C
  C22      1.0000 0.10300  0.79550  0.73000  Biso   1.000  C
  C23      1.0000 0.09420  0.70910  0.65920  Biso   1.000  C
  C24      1.0000 0.14000  0.89300  0.75500  Biso   1.000  C
  N12      1.0000 0.20450  0.98150  0.77800  Biso   1.000  N
  Ag4      1.0000 0.47154  0.73568  0.00001  Biso   1.000  Ag
  N13      1.0000 0.48500  0.59610  0.68930  Biso   1.000  N
  N14      1.0000 0.59580  0.48380  0.68810  Biso   1.000  N
  C25      1.0000 0.47790  0.64770  0.79290  Biso   1.000  C
  C26      1.0000 0.64690  0.47710  0.79570  Biso   1.000  C
  N15      1.0000 0.62860  0.62700  0.37420  Biso   1.000  N
  C27      1.0000 0.63450  0.71670  0.33710  Biso   1.000  C
  C28      1.0000 0.72100  0.79430  0.26700  Biso   1.000  C
  C29      1.0000 0.80150  0.78220  0.23300  Biso   1.000  C
  C30      1.0000 0.79550  0.69250  0.27000  Biso   1.000  C
  C31      1.0000 0.70910  0.61490  0.34080  Biso   1.000  C
  C32      1.0000 0.89300  0.75300  0.24500  Biso   1.000  C
  N16      1.0000 0.98150  0.77700  0.22200  Biso   1.000  N
  Ag5      1.0000 0.26432  0.73586  0.00001  Biso   1.000  Ag
  N17      1.0000 0.40390  0.88890  0.68930  Biso   1.000  N
  N18      1.0000 0.51620  0.11200  0.68810  Biso   1.000  N
  C33      1.0000 0.35230  0.83020  0.79290  Biso   1.000  C
  C34      1.0000 0.52290  0.16980  0.79570  Biso   1.000  C
  N19      1.0000 0.37300  0.00160  0.37420  Biso   1.000  N
  C35      1.0000 0.28330  0.91780  0.33710  Biso   1.000  C
  C36      1.0000 0.20570  0.92670  0.26700  Biso   1.000  C
  C37      1.0000 0.21780  0.01930  0.23300  Biso   1.000  C
  C38      1.0000 0.30750  0.10300  0.27000  Biso   1.000  C
  C39      1.0000 0.38510  0.09420  0.34080  Biso   1.000  C
  C40      1.0000 0.24700  0.14000  0.24500  Biso   1.000  C
  N20      1.0000 0.22300  0.20450  0.22200  Biso   1.000  N
  Ag6      1.0000 0.26414  0.52846  0.00001  Biso   1.000  Ag
  N21      1.0000 0.11110  0.51500  0.68930  Biso   1.000  N
  N22      1.0000 0.88800  0.40420  0.68810  Biso   1.000  N
  C41      1.0000 0.16980  0.52210  0.79290  Biso   1.000  C
  C42      1.0000 0.83020  0.35310  0.79570  Biso   1.000  C
  N23      1.0000 0.99840  0.37140  0.37420  Biso   1.000  N
  C43      1.0000 0.08220  0.36550  0.33710  Biso   1.000  C
  C44      1.0000 0.07330  0.27900  0.26700  Biso   1.000  C
  C45      1.0000 0.98070  0.19850  0.23300  Biso   1.000  C
  C46      1.0000 0.89700  0.20450  0.27000  Biso   1.000  C
  C47      1.0000 0.90580  0.29090  0.34080  Biso   1.000  C
  C48      1.0000 0.86000  0.10700  0.24500  Biso   1.000  C
  N24      1.0000 0.79550  0.01850  0.22200  Biso   1.000  N
  Fe1      1.0000 0.50000  0.50000  0.50000  Biso   1.000  Fe
  Fe2      1.0000 0.50000  0.00000  0.50000  Biso   1.000  Fe
  Fe3      1.0000 0.00000  0.50000  0.50000  Biso   1.000  Fe
