data_ENAFOP_ion_b
_audit_creation_date              2014-07-02
_audit_creation_method            'Materials Studio'
_symmetry_space_group_name_H-M    'P1'
_symmetry_Int_Tables_number       1
_symmetry_cell_setting            triclinic
loop_
_symmetry_equiv_pos_as_xyz
  x,y,z
_cell_length_a                    18.5386
_cell_length_b                    18.6236
_cell_length_c                    27.2733
_cell_angle_alpha                 92.9860
_cell_angle_beta                  107.8710
_cell_angle_gamma                 107.6240
loop_
_atom_site_label
_atom_site_type_symbol
_atom_site_fract_x
_atom_site_fract_y
_atom_site_fract_z
_atom_site_U_iso_or_equiv
_atom_site_adp_type
_atom_site_occupancy
Gd1    Gd    0.51076   0.23482   0.89861   0.01267  Uiso   1.00
O1     O     0.64880   0.27730   0.95356   0.01267  Uiso   1.00
C1     C     0.69740   0.34590   0.96280   0.01267  Uiso   1.00
O2     O     0.75980   0.37170   0.00192   0.01267  Uiso   1.00
C2     C     0.67620   0.39870   0.92600   0.01267  Uiso   1.00
H1     H     0.72440   0.42910   0.91850   0.01267  Uiso   1.00
H2     H     0.65620   0.43430   0.94190   0.01267  Uiso   1.00
N1     N     0.61130   0.35170   0.87570   0.01267  Uiso   1.00
C3     C     0.57030   0.40020   0.84640   0.01267  Uiso   1.00
H3     H     0.59870   0.42360   0.82280   0.01267  Uiso   1.00
H4     H     0.57090   0.44170   0.87090   0.01267  Uiso   1.00
C4     C     0.48080   0.35080   0.81360   0.01267  Uiso   1.00
O3     O     0.44780   0.29210   0.82940   0.01267  Uiso   1.00
O4     O     0.44810   0.37670   0.77460   0.01267  Uiso   1.00
C5     C     0.65350   0.32150   0.84500   0.01267  Uiso   1.00
H5     H     0.68930   0.29700   0.86720   0.01267  Uiso   1.00
H6     H     0.68660   0.36370   0.83230   0.01267  Uiso   1.00
C6     C     0.58960   0.26380   0.79930   0.01267  Uiso   1.00
C7     C     0.58140   0.26970   0.74730   0.01267  Uiso   1.00
H7     H     0.61760   0.31120   0.73870   0.01267  Uiso   1.00
C8     C     0.51980   0.21430   0.70790   0.01267  Uiso   1.00
C9     C     0.47190   0.15610   0.72270   0.01267  Uiso   1.00
H8     H     0.42940   0.11730   0.69670   0.01267  Uiso   1.00
C10    C     0.48270   0.15120   0.77400   0.01267  Uiso   1.00
N2     N     0.54210   0.20570   0.81350   0.01267  Uiso   1.00
C11    C     0.45030   0.08390   0.79490   0.01267  Uiso   1.00
H9     H     0.49280   0.06150   0.80970   0.01267  Uiso   1.00
H10    H     0.40620   0.04550   0.76650   0.01267  Uiso   1.00
N3     N     0.41880   0.10350   0.83680   0.01267  Uiso   1.00
C12    C     0.41580   0.04530   0.86860   0.01267  Uiso   1.00
H11    H     0.39300   0.99430   0.84680   0.01267  Uiso   1.00
H12    H     0.38200   0.04800   0.89010   0.01267  Uiso   1.00
C13    C     0.50690   0.06020   0.90520   0.01267  Uiso   1.00
O5     O     0.55300   0.12630   0.91776   0.01267  Uiso   1.00
O6     O     0.52430   0.00470   0.92430   0.01267  Uiso   1.00
O7     O     0.37010   0.19120   0.88940   0.01267  Uiso   1.00
O8     O     0.24490   0.13100   0.84600   0.01267  Uiso   1.00
C14    C     0.31810   0.14760   0.85550   0.01267  Uiso   1.00
C15    C     0.33940   0.11260   0.81290   0.01267  Uiso   1.00
H13    H     0.29800   0.06230   0.79610   0.01267  Uiso   1.00
H14    H     0.34160   0.14600   0.78600   0.01267  Uiso   1.00
C16    C     0.51140   0.22170   0.65540   0.01267  Uiso   1.00
C17    C     0.50970   0.23140   0.61130   0.01267  Uiso   1.00
C18    C     0.50770   0.24300   0.55920   0.01267  Uiso   1.00
C19    C     0.43380   0.21450   0.51720   0.01267  Uiso   1.00
H15    H     0.38430   0.18910   0.52210   0.01267  Uiso   1.00
C20    C     0.43890   0.22650   0.46810   0.01267  Uiso   1.00
H16    H     0.39200   0.20360   0.43830   0.01267  Uiso   1.00
C21    C     0.50480   0.26750   0.46080   0.01267  Uiso   1.00
C22    C     0.58170   0.29080   0.50300   0.01267  Uiso   1.00
H17    H     0.63130   0.31180   0.49710   0.01267  Uiso   1.00
C23    C     0.57850   0.28050   0.55320   0.01267  Uiso   1.00
H18    H     0.62620   0.29990   0.58280   0.01267  Uiso   1.00
C24    C     0.50720   0.28030   0.41010   0.01267  Uiso   1.00
C25    C     0.50210   0.28930   0.36520   0.01267  Uiso   1.00
C26    C     0.49730   0.30270   0.31300   0.01267  Uiso   1.00
C27    C     0.54300   0.36610   0.30280   0.01267  Uiso   1.00
H19    H     0.58350   0.40310   0.33080   0.01267  Uiso   1.00
C28    C     0.53240   0.37920   0.25100   0.01267  Uiso   1.00
N4     N     0.47940   0.32300   0.21080   0.01267  Uiso   1.00
C29    C     0.43530   0.25940   0.22120   0.01267  Uiso   1.00
C30    C     0.43900   0.24490   0.27180   0.01267  Uiso   1.00
H20    H     0.40480   0.19950   0.27800   0.01267  Uiso   1.00
C31    C     0.37600   0.20170   0.17490   0.01267  Uiso   1.00
H21    H     0.34880   0.15520   0.18710   0.01267  Uiso   1.00
H22    H     0.33440   0.22270   0.15550   0.01267  Uiso   1.00
N5     N     0.41620   0.18100   0.13930   0.01267  Uiso   1.00
C32    C     0.35360   0.15090   0.08670   0.01267  Uiso   1.00
H23    H     0.30110   0.12350   0.09040   0.01267  Uiso   1.00
H24    H     0.36830   0.11450   0.06730   0.01267  Uiso   1.00
C33    C     0.34630   0.21970   0.05540   0.01267  Uiso   1.00
O9     O     0.38390   0.28570   0.07510   0.01267  Uiso   1.00
O10    O     0.29880   0.20000   0.00960   0.01267  Uiso   1.00
C34    C     0.46180   0.13390   0.16080   0.01267  Uiso   1.00
H25    H     0.46300   0.10050   0.13190   0.01267  Uiso   1.00
H26    H     0.43410   0.10070   0.18140   0.01267  Uiso   1.00
C35    C     0.54750   0.17760   0.19550   0.01267  Uiso   1.00
O11    O     0.57790   0.24330   0.18840   0.01267  Uiso   1.00
O12    O     0.58160   0.14220   0.22650   0.01267  Uiso   1.00
C36    C     0.57790   0.44680   0.23700   0.01267  Uiso   1.00
H27    H     0.62020   0.47920   0.26910   0.01267  Uiso   1.00
H28    H     0.54190   0.47580   0.22190   0.01267  Uiso   1.00
N6     N     0.61670   0.43120   0.19870   0.01267  Uiso   1.00
C37    C     0.68780   0.40930   0.22310   0.01267  Uiso   1.00
H29    H     0.67660   0.37430   0.24800   0.01267  Uiso   1.00
H30    H     0.73380   0.45540   0.24280   0.01267  Uiso   1.00
C38    C     0.70940   0.37080   0.18280   0.01267  Uiso   1.00
O13    O     0.65530   0.35320   0.13530   0.01267  Uiso   1.00
O14    O     0.77320   0.35660   0.19600   0.01267  Uiso   1.00
C39    C     0.64200   0.49800   0.17480   0.01267  Uiso   1.00
H31    H     0.68580   0.49540   0.16200   0.01267  Uiso   1.00
H32    H     0.66290   0.54460   0.20110   0.01267  Uiso   1.00
C40    C     0.57330   0.50150   0.13090   0.01267  Uiso   1.00
O15    O     0.58560   0.56380   0.11270   0.01267  Uiso   1.00
O16    O     0.50630   0.43630   0.11120   0.01267  Uiso   1.00
Gd2    Gd    0.51597   0.31107   0.12627   0.01267  Uiso   1.00
Gd3    Gd    0.87630   0.21949   0.89369   0.01267  Uiso   1.00
O17    O     0.86930   0.13090   0.82520   0.01267  Uiso   1.00
C41    C     0.82100   0.06330   0.81040   0.01267  Uiso   1.00
O18    O     0.81900   0.01980   0.77260   0.01267  Uiso   1.00
C42    C     0.76860   0.03310   0.84060   0.01267  Uiso   1.00
H33    H     0.71690   0.99710   0.81640   0.01267  Uiso   1.00
H34    H     0.79380   0.00380   0.86560   0.01267  Uiso   1.00
N7     N     0.75150   0.09050   0.86960   0.01267  Uiso   1.00
C43    C     0.73940   0.06750   0.91830   0.01267  Uiso   1.00
H35    H     0.77520   0.03850   0.93370   0.01267  Uiso   1.00
H36    H     0.68310   0.03400   0.91060   0.01267  Uiso   1.00
C44    C     0.75780   0.13830   0.95700   0.01267  Uiso   1.00
O19    O     0.79530   0.20290   0.94793   0.01267  Uiso   1.00
O20    O     0.73780   0.13010   0.99684   0.01267  Uiso   1.00
C45    C     0.67960   0.10370   0.83700   0.01267  Uiso   1.00
H37    H     0.66310   0.13640   0.85820   0.01267  Uiso   1.00
H38    H     0.63500   0.05440   0.82330   0.01267  Uiso   1.00
C46    C     0.69570   0.14190   0.79240   0.01267  Uiso   1.00
C47    C     0.65160   0.10820   0.74020   0.01267  Uiso   1.00
H39    H     0.60920   0.06070   0.73230   0.01267  Uiso   1.00
C48    C     0.66970   0.14370   0.70090   0.01267  Uiso   1.00
C49    C     0.73140   0.21250   0.71660   0.01267  Uiso   1.00
H40    H     0.74610   0.23900   0.69040   0.01267  Uiso   1.00
C50    C     0.77350   0.24560   0.76810   0.01267  Uiso   1.00
N8     N     0.75480   0.20680   0.80650   0.01267  Uiso   1.00
C51    C     0.82590   0.32240   0.78770   0.01267  Uiso   1.00
H41    H     0.79820   0.35180   0.80180   0.01267  Uiso   1.00
H42    H     0.84040   0.34670   0.75910   0.01267  Uiso   1.00
N9     N     0.90300   0.32310   0.83140   0.01267  Uiso   1.00
C52    C     0.93670   0.39710   0.86370   0.01267  Uiso   1.00
H43    H     0.93280   0.43730   0.84170   0.01267  Uiso   1.00
H44    H     0.99410   0.40730   0.88390   0.01267  Uiso   1.00
C53    C     0.88790   0.39730   0.90190   0.01267  Uiso   1.00
O21    O     0.85580   0.33700   0.91403   0.01267  Uiso   1.00
O22    O     0.89590   0.46280   0.92240   0.01267  Uiso   1.00
O23    O     0.00610   0.26050   0.88590   0.01267  Uiso   1.00
O24    O     0.08910   0.30310   0.84110   0.01267  Uiso   1.00
C54    C     0.02210   0.28930   0.84800   0.01267  Uiso   1.00
C55    C     0.95360   0.30620   0.80480   0.01267  Uiso   1.00
H45    H     0.97640   0.35030   0.78900   0.01267  Uiso   1.00
H46    H     0.92260   0.26130   0.77700   0.01267  Uiso   1.00
C56    C     0.62760   0.11070   0.64600   0.01267  Uiso   1.00
C57    C     0.59250   0.07860   0.60350   0.01267  Uiso   1.00
C58    C     0.54430   0.03840   0.55110   0.01267  Uiso   1.00
C59    C     0.49920   0.96590   0.54090   0.01267  Uiso   1.00
H47    H     0.49660   0.93930   0.56940   0.01267  Uiso   1.00
C60    C     0.54460   0.07360   0.50910   0.01267  Uiso   1.00
H48    H     0.57540   0.12610   0.51400   0.01267  Uiso   1.00
Gd4    Gd    0.11139   0.24585   0.12051   0.01267  Uiso   1.00
O25    O     0.11550   0.34070   0.18340   0.01267  Uiso   1.00
C61    C     0.15940   0.41420   0.19040   0.01267  Uiso   1.00
O26    O     0.16230   0.46340   0.22410   0.01267  Uiso   1.00
C62    C     0.20860   0.43800   0.15470   0.01267  Uiso   1.00
H49    H     0.17890   0.46010   0.12630   0.01267  Uiso   1.00
H50    H     0.26010   0.47830   0.17490   0.01267  Uiso   1.00
N10    N     0.22550   0.37630   0.13200   0.01267  Uiso   1.00
C63    C     0.23030   0.38350   0.07710   0.01267  Uiso   1.00
H51    H     0.19370   0.41000   0.05850   0.01267  Uiso   1.00
H52    H     0.28580   0.41340   0.07950   0.01267  Uiso   1.00
C64    C     0.20620   0.30460   0.04810   0.01267  Uiso   1.00
O27    O     0.20740   0.30420   0.00200   0.01267  Uiso   1.00
O28    O     0.18760   0.24970   0.06630   0.01267  Uiso   1.00
C65    C     0.30500   0.37520   0.16750   0.01267  Uiso   1.00
H53    H     0.34360   0.42790   0.17940   0.01267  Uiso   1.00
H54    H     0.32730   0.34560   0.14860   0.01267  Uiso   1.00
C66    C     0.29270   0.33940   0.21340   0.01267  Uiso   1.00
C67    C     0.33910   0.38020   0.26310   0.01267  Uiso   1.00
H55    H     0.37750   0.42970   0.26870   0.01267  Uiso   1.00
C68    C     0.32520   0.34250   0.30490   0.01267  Uiso   1.00
C69    C     0.26760   0.27360   0.29650   0.01267  Uiso   1.00
H56    H     0.25610   0.25150   0.32500   0.01267  Uiso   1.00
C70    C     0.22410   0.23440   0.24420   0.01267  Uiso   1.00
N11    N     0.23800   0.27020   0.20330   0.01267  Uiso   1.00
C71    C     0.16600   0.16110   0.23090   0.01267  Uiso   1.00
H57    H     0.15860   0.14310   0.26310   0.01267  Uiso   1.00
H58    H     0.18600   0.12560   0.21480   0.01267  Uiso   1.00
N12    N     0.08670   0.15860   0.19390   0.01267  Uiso   1.00
C72    C     0.04120   0.19300   0.21990   0.01267  Uiso   1.00
H59    H     0.01430   0.15560   0.23870   0.01267  Uiso   1.00
H60    H     0.07890   0.23870   0.24560   0.01267  Uiso   1.00
C73    C     0.98070   0.21430   0.17960   0.01267  Uiso   1.00
O29    O     0.98100   0.20990   0.13090   0.01267  Uiso   1.00
O30    O     0.92850   0.23410   0.19370   0.01267  Uiso   1.00
O31    O     0.10620   0.11350   0.10420   0.01267  Uiso   1.00
O32    O     0.04350   0.99350   0.10560   0.01267  Uiso   1.00
C74    C     0.06340   0.06030   0.12680   0.01267  Uiso   1.00
C75    C     0.03930   0.08230   0.16950   0.01267  Uiso   1.00
H61    H     0.98180   0.07790   0.15610   0.01267  Uiso   1.00
H62    H     0.04570   0.04740   0.19550   0.01267  Uiso   1.00
C76    C     0.36900   0.38430   0.35640   0.01267  Uiso   1.00
C77    C     0.40670   0.41890   0.40030   0.01267  Uiso   1.00
C78    C     0.45430   0.46300   0.45150   0.01267  Uiso   1.00
C79    C     0.53020   0.48190   0.46590   0.01267  Uiso   1.00
H63    H     0.55320   0.46990   0.44130   0.01267  Uiso   1.00
C80    C     0.41700   0.48010   0.48350   0.01267  Uiso   1.00
H64    H     0.36030   0.46780   0.47310   0.01267  Uiso   1.00
C81    C     0.51240   0.24590   0.02820   0.01267  Uiso   1.00
O33    O     0.51020   0.21270   0.98472   0.01267  Uiso   1.00
O34    O     0.51370   0.21130   0.06722   0.01267  Uiso   1.00
O35    O     0.51620   0.31680   0.03520   0.01267  Uiso   1.00
O36    O     0.50750   0.34940   0.94150   0.01267  Uiso   1.00
H65    H     0.51010   0.34470   0.97240   0.01267  Uiso   1.00
H66    H     0.48220   0.37710   0.92570   0.01267  Uiso   1.00
C82    C     0.00980   0.26710   0.02410   0.01267  Uiso   1.00
O37    O     0.05310   0.32140   0.06340   0.01267  Uiso   1.00
O38    O     0.96710   0.28200   0.98214   0.01267  Uiso   1.00
O39    O     0.01350   0.19880   0.03010   0.01267  Uiso   1.00
Na1    Na    0.63792   0.17586   0.00540   0.01267  Uiso   1.00
Na2    Na    0.86473   0.32655   0.00293   0.01267  Uiso   1.00
Na3    Na    0.82509   0.28230   0.14436   0.01267  Uiso   1.00
Na4    Na    0.81820   0.50190   0.05160   0.01267  Uiso   1.00
Na5    Na    0.74110   0.02260   0.04730   0.01267  Uiso   1.00
Na6    Na    0.82970   0.78450   0.14570   0.01267  Uiso   1.00
Na7    Na    0.66840   0.58130   0.05770   0.01267  Uiso   1.00
Na8    Na    0.97630   0.30930   0.29220   0.01267  Uiso   1.00
O40    O     0.86230   0.25100   0.07081   0.01267  Uiso   1.00
H67    H     0.82530   0.21480   0.04910   0.01267  Uiso   1.00
H68    H     0.89970   0.23770   0.08990   0.01267  Uiso   1.00
O41    O     0.71110   0.28040   0.07361   0.01267  Uiso   1.00
H69    H     0.69390   0.30280   0.09260   0.01267  Uiso   1.00
H70    H     0.72560   0.30760   0.05230   0.01267  Uiso   1.00
O42    O     0.60310   0.11950   0.07340   0.01267  Uiso   1.00
H71    H     0.56370   0.13000   0.07670   0.01267  Uiso   1.00
O43    O     0.92470   0.12460   0.93710   0.01267  Uiso   1.00
H72    H     0.95400   0.14370   0.96810   0.01267  Uiso   1.00
H73    H     0.93400   0.08770   0.92380   0.01267  Uiso   1.00
O44    O     0.96970   0.41530   0.07100   0.01267  Uiso   1.00
H74    H     0.00140   0.44500   0.05870   0.01267  Uiso   1.00
O45    O     0.92590   0.55620   0.01580   0.01267  Uiso   1.00
H75    H     0.91710   0.52840   0.98780   0.01267  Uiso   1.00
O46    O     0.91420   0.40450   0.15600   0.01267  Uiso   1.00
H76    H     0.88880   0.43550   0.15150   0.01267  Uiso   1.00
H77    H     0.93040   0.40780   0.13040   0.01267  Uiso   1.00
O47    O     0.66710   0.45500   0.05600   0.01267  Uiso   1.00
O48    O     0.74800   0.16540   0.15590   0.01267  Uiso   1.00
H78    H     0.70370   0.14960   0.13130   0.01267  Uiso   1.00
O49    O     0.60110   0.95190   0.01210   0.01267  Uiso   1.00
H79    H     0.57980   0.96910   0.98560   0.01267  Uiso   1.00
O50    O     0.79320   0.60930   0.06610   0.01267  Uiso   1.00
H80    H     0.82810   0.63490   0.09370   0.01267  Uiso   1.00
H81    H     0.79160   0.63740   0.04320   0.01267  Uiso   1.00
O51    O     0.69310   0.71830   0.06270   0.01267  Uiso   1.00
H82    H     0.67390   0.74540   0.07680   0.01267  Uiso   1.00
O52    O     0.73790   0.69760   0.18200   0.01267  Uiso   1.00
O53    O     0.77210   0.91940   0.06260   0.01267  Uiso   1.00
H83    H     0.76670   0.90450   0.09020   0.01267  Uiso   1.00
H84    H     0.74980   0.88160   0.03860   0.01267  Uiso   1.00
O54    O     0.82280   0.49450   0.14030   0.01267  Uiso   1.00
O55    O     0.88890   0.06760   0.04870   0.01267  Uiso   1.00
H85    H     0.92400   0.10440   0.04350   0.01267  Uiso   1.00
O56    O     0.83800   0.32910   0.29500   0.01267  Uiso   1.00
H86    H     0.81280   0.33750   0.26580   0.01267  Uiso   1.00
O57    O     0.82660   0.06730   0.14250   0.01267  Uiso   1.00
H87    H     0.81170   0.09980   0.15540   0.01267  Uiso   1.00
O58    O     0.61340   0.58210   0.97480   0.01267  Uiso   1.00
O59    O     0.94110   0.88250   0.18390   0.01267  Uiso   1.00
H88    H     0.96520   0.87470   0.21360   0.01267  Uiso   1.00
Gd5    Gd    0.48924   0.76518   0.10139   0.01267  Uiso   1.00
O60    O     0.35120   0.72270   0.04644   0.01267  Uiso   1.00
C83    C     0.30260   0.65410   0.03720   0.01267  Uiso   1.00
O61    O     0.24020   0.62830   0.99808   0.01267  Uiso   1.00
C84    C     0.32380   0.60130   0.07400   0.01267  Uiso   1.00
H89    H     0.27560   0.57090   0.08150   0.01267  Uiso   1.00
H90    H     0.34380   0.56570   0.05810   0.01267  Uiso   1.00
N13    N     0.38870   0.64830   0.12430   0.01267  Uiso   1.00
C85    C     0.42970   0.59980   0.15360   0.01267  Uiso   1.00
H91    H     0.40130   0.57640   0.17720   0.01267  Uiso   1.00
H92    H     0.42910   0.55830   0.12910   0.01267  Uiso   1.00
C86    C     0.51920   0.64920   0.18640   0.01267  Uiso   1.00
O62    O     0.55220   0.70790   0.17060   0.01267  Uiso   1.00
O63    O     0.55190   0.62330   0.22540   0.01267  Uiso   1.00
C87    C     0.34650   0.67850   0.15500   0.01267  Uiso   1.00
H93    H     0.31070   0.70300   0.13280   0.01267  Uiso   1.00
H94    H     0.31340   0.63630   0.16770   0.01267  Uiso   1.00
C88    C     0.41040   0.73620   0.20070   0.01267  Uiso   1.00
C89    C     0.41860   0.73030   0.25270   0.01267  Uiso   1.00
H95    H     0.38240   0.68880   0.26130   0.01267  Uiso   1.00
C90    C     0.48020   0.78570   0.29210   0.01267  Uiso   1.00
C91    C     0.52810   0.84390   0.27730   0.01267  Uiso   1.00
H96    H     0.57060   0.88270   0.30330   0.01267  Uiso   1.00
C92    C     0.51730   0.84880   0.22600   0.01267  Uiso   1.00
N14    N     0.45790   0.79430   0.18650   0.01267  Uiso   1.00
C93    C     0.54970   0.91610   0.20510   0.01267  Uiso   1.00
H97    H     0.50720   0.93850   0.19030   0.01267  Uiso   1.00
H98    H     0.59380   0.95450   0.23350   0.01267  Uiso   1.00
N15    N     0.58120   0.89650   0.16320   0.01267  Uiso   1.00
C94    C     0.58420   0.95470   0.13140   0.01267  Uiso   1.00
H99    H     0.60700   0.00570   0.15320   0.01267  Uiso   1.00
H100   H     0.61800   0.95200   0.10990   0.01267  Uiso   1.00
C95    C     0.49310   0.93980   0.09480   0.01267  Uiso   1.00
O64    O     0.44700   0.87370   0.08224   0.01267  Uiso   1.00
O65    O     0.47570   0.99530   0.07570   0.01267  Uiso   1.00
O66    O     0.62990   0.80880   0.11060   0.01267  Uiso   1.00
O67    O     0.75510   0.86900   0.15400   0.01267  Uiso   1.00
C96    C     0.68190   0.85240   0.14450   0.01267  Uiso   1.00
C97    C     0.66060   0.88740   0.18710   0.01267  Uiso   1.00
H101   H     0.70200   0.93770   0.20390   0.01267  Uiso   1.00
H102   H     0.65840   0.85400   0.21400   0.01267  Uiso   1.00
C98    C     0.48860   0.77830   0.34460   0.01267  Uiso   1.00
C99    C     0.49030   0.76860   0.38870   0.01267  Uiso   1.00
C100   C     0.49230   0.75700   0.44080   0.01267  Uiso   1.00
C101   C     0.56620   0.78550   0.48280   0.01267  Uiso   1.00
H103   H     0.61570   0.81090   0.47790   0.01267  Uiso   1.00
C102   C     0.56110   0.77350   0.53190   0.01267  Uiso   1.00
H104   H     0.60800   0.79640   0.56170   0.01267  Uiso   1.00
C103   C     0.49520   0.73250   0.53920   0.01267  Uiso   1.00
C104   C     0.41830   0.70920   0.49700   0.01267  Uiso   1.00
H105   H     0.36870   0.68820   0.50290   0.01267  Uiso   1.00
C105   C     0.42150   0.71950   0.44680   0.01267  Uiso   1.00
H106   H     0.37380   0.70010   0.41720   0.01267  Uiso   1.00
C106   C     0.49280   0.71970   0.58990   0.01267  Uiso   1.00
C107   C     0.49790   0.71070   0.63480   0.01267  Uiso   1.00
C108   C     0.50270   0.69730   0.68700   0.01267  Uiso   1.00
C109   C     0.45700   0.63390   0.69720   0.01267  Uiso   1.00
H107   H     0.41650   0.59690   0.66920   0.01267  Uiso   1.00
C110   C     0.46760   0.62080   0.74900   0.01267  Uiso   1.00
N16    N     0.52060   0.67700   0.78920   0.01267  Uiso   1.00
C111   C     0.56470   0.74060   0.77880   0.01267  Uiso   1.00
C112   C     0.56100   0.75510   0.72820   0.01267  Uiso   1.00
H108   H     0.59520   0.80050   0.72200   0.01267  Uiso   1.00
C113   C     0.62400   0.79830   0.82510   0.01267  Uiso   1.00
H109   H     0.65120   0.84480   0.81290   0.01267  Uiso   1.00
H110   H     0.66560   0.77730   0.84450   0.01267  Uiso   1.00
N17    N     0.58380   0.81900   0.86070   0.01267  Uiso   1.00
C114   C     0.64640   0.84910   0.91330   0.01267  Uiso   1.00
H111   H     0.69890   0.87650   0.90960   0.01267  Uiso   1.00
H112   H     0.63170   0.88550   0.93270   0.01267  Uiso   1.00
C115   C     0.65370   0.78030   0.94460   0.01267  Uiso   1.00
O68    O     0.61610   0.71430   0.92490   0.01267  Uiso   1.00
O69    O     0.70120   0.80000   0.99040   0.01267  Uiso   1.00
C116   C     0.53820   0.86610   0.83920   0.01267  Uiso   1.00
H113   H     0.53700   0.89950   0.86810   0.01267  Uiso   1.00
H114   H     0.56590   0.89930   0.81860   0.01267  Uiso   1.00
C117   C     0.45250   0.82240   0.80450   0.01267  Uiso   1.00
O70    O     0.42210   0.75670   0.81160   0.01267  Uiso   1.00
O71    O     0.41840   0.85780   0.77350   0.01267  Uiso   1.00
C118   C     0.42210   0.55320   0.76300   0.01267  Uiso   1.00
H115   H     0.37980   0.52080   0.73090   0.01267  Uiso   1.00
H116   H     0.45810   0.52420   0.77810   0.01267  Uiso   1.00
N18    N     0.38330   0.56880   0.80130   0.01267  Uiso   1.00
C119   C     0.31220   0.59070   0.77690   0.01267  Uiso   1.00
H117   H     0.32340   0.62570   0.75200   0.01267  Uiso   1.00
H118   H     0.26620   0.54460   0.75720   0.01267  Uiso   1.00
C120   C     0.29060   0.62920   0.81720   0.01267  Uiso   1.00
O72    O     0.34470   0.64680   0.86470   0.01267  Uiso   1.00
O73    O     0.22680   0.64340   0.80400   0.01267  Uiso   1.00
C121   C     0.35800   0.50200   0.82520   0.01267  Uiso   1.00
H119   H     0.31420   0.50460   0.83800   0.01267  Uiso   1.00
H120   H     0.33710   0.45540   0.79890   0.01267  Uiso   1.00
C122   C     0.42670   0.49850   0.86910   0.01267  Uiso   1.00
O74    O     0.41440   0.43620   0.88730   0.01267  Uiso   1.00
O75    O     0.49370   0.56370   0.88880   0.01267  Uiso   1.00
Gd6    Gd    0.48403   0.68893   0.87373   0.01267  Uiso   1.00
Gd7    Gd    0.12370   0.78051   0.10631   0.01267  Uiso   1.00
O76    O     0.13070   0.86910   0.17480   0.01267  Uiso   1.00
C123   C     0.17900   0.93670   0.18960   0.01267  Uiso   1.00
O77    O     0.18100   0.98020   0.22740   0.01267  Uiso   1.00
C124   C     0.23140   0.96690   0.15940   0.01267  Uiso   1.00
H121   H     0.28310   0.00290   0.18360   0.01267  Uiso   1.00
H122   H     0.20620   0.99620   0.13440   0.01267  Uiso   1.00
N19    N     0.24850   0.90950   0.13040   0.01267  Uiso   1.00
C125   C     0.26060   0.93250   0.08170   0.01267  Uiso   1.00
H123   H     0.22480   0.96150   0.06630   0.01267  Uiso   1.00
H124   H     0.31690   0.96600   0.08940   0.01267  Uiso   1.00
C126   C     0.24220   0.86170   0.04300   0.01267  Uiso   1.00
O78    O     0.20470   0.79710   0.05207   0.01267  Uiso   1.00
O79    O     0.26220   0.86990   0.00316   0.01267  Uiso   1.00
C127   C     0.32040   0.89630   0.16300   0.01267  Uiso   1.00
H125   H     0.33690   0.86360   0.14180   0.01267  Uiso   1.00
H126   H     0.36500   0.94560   0.17670   0.01267  Uiso   1.00
C128   C     0.30430   0.85810   0.20760   0.01267  Uiso   1.00
C129   C     0.34840   0.89180   0.25980   0.01267  Uiso   1.00
H127   H     0.39080   0.93930   0.26770   0.01267  Uiso   1.00
C130   C     0.33030   0.85630   0.29910   0.01267  Uiso   1.00
C131   C     0.26860   0.78750   0.28340   0.01267  Uiso   1.00
H128   H     0.25390   0.76100   0.30960   0.01267  Uiso   1.00
C132   C     0.22650   0.75440   0.23190   0.01267  Uiso   1.00
N20    N     0.24520   0.79320   0.19350   0.01267  Uiso   1.00
C133   C     0.17410   0.67760   0.21230   0.01267  Uiso   1.00
H129   H     0.20180   0.64820   0.19820   0.01267  Uiso   1.00
H130   H     0.15960   0.65330   0.24090   0.01267  Uiso   1.00
N21    N     0.09700   0.67690   0.16860   0.01267  Uiso   1.00
C134   C     0.06330   0.60290   0.13630   0.01267  Uiso   1.00
H131   H     0.06720   0.56270   0.15830   0.01267  Uiso   1.00
H132   H     0.00590   0.59270   0.11610   0.01267  Uiso   1.00
C135   C     0.11210   0.60270   0.09810   0.01267  Uiso   1.00
O80    O     0.14420   0.66300   0.08597   0.01267  Uiso   1.00
O81    O     0.10410   0.53720   0.07760   0.01267  Uiso   1.00
O82    O     0.99390   0.73950   0.11410   0.01267  Uiso   1.00
O83    O     0.91090   0.69690   0.15890   0.01267  Uiso   1.00
C136   C     0.97790   0.71070   0.15200   0.01267  Uiso   1.00
C137   C     0.04640   0.69380   0.19520   0.01267  Uiso   1.00
H133   H     0.02360   0.64970   0.21100   0.01267  Uiso   1.00
H134   H     0.07740   0.73870   0.22300   0.01267  Uiso   1.00
C138   C     0.37240   0.88930   0.35400   0.01267  Uiso   1.00
C139   C     0.40750   0.92140   0.39650   0.01267  Uiso   1.00
C140   C     0.45570   0.96160   0.44890   0.01267  Uiso   1.00
C141   C     0.50080   0.03410   0.45910   0.01267  Uiso   1.00
H135   H     0.50340   0.06070   0.43060   0.01267  Uiso   1.00
C142   C     0.45540   0.92640   0.49090   0.01267  Uiso   1.00
H136   H     0.42460   0.87390   0.48600   0.01267  Uiso   1.00
Gd8    Gd    0.88861   0.75415   0.87949   0.01267  Uiso   1.00
O84    O     0.88450   0.65930   0.81660   0.01267  Uiso   1.00
C143   C     0.84060   0.58580   0.80960   0.01267  Uiso   1.00
O85    O     0.83770   0.53660   0.77590   0.01267  Uiso   1.00
C144   C     0.79140   0.56200   0.84530   0.01267  Uiso   1.00
H137   H     0.82110   0.53990   0.87370   0.01267  Uiso   1.00
H138   H     0.73990   0.52170   0.82510   0.01267  Uiso   1.00
N22    N     0.77450   0.62370   0.86800   0.01267  Uiso   1.00
C145   C     0.76970   0.61650   0.92290   0.01267  Uiso   1.00
H139   H     0.80630   0.59000   0.94150   0.01267  Uiso   1.00
H140   H     0.71420   0.58660   0.92050   0.01267  Uiso   1.00
C146   C     0.79380   0.69540   0.95190   0.01267  Uiso   1.00
O86    O     0.79260   0.69580   0.99800   0.01267  Uiso   1.00
O87    O     0.81240   0.75030   0.93370   0.01267  Uiso   1.00
C147   C     0.69500   0.62480   0.83250   0.01267  Uiso   1.00
H141   H     0.65640   0.57210   0.82060   0.01267  Uiso   1.00
H142   H     0.67270   0.65440   0.85140   0.01267  Uiso   1.00
C148   C     0.70730   0.66060   0.78660   0.01267  Uiso   1.00
C149   C     0.66090   0.61980   0.73690   0.01267  Uiso   1.00
H143   H     0.62250   0.57030   0.73130   0.01267  Uiso   1.00
C150   C     0.67480   0.65750   0.69510   0.01267  Uiso   1.00
C151   C     0.73240   0.72640   0.70350   0.01267  Uiso   1.00
H144   H     0.74390   0.74850   0.67500   0.01267  Uiso   1.00
C152   C     0.77590   0.76560   0.75580   0.01267  Uiso   1.00
N23    N     0.76200   0.72980   0.79670   0.01267  Uiso   1.00
C153   C     0.83400   0.83890   0.76910   0.01267  Uiso   1.00
H145   H     0.84140   0.85690   0.73690   0.01267  Uiso   1.00
H146   H     0.81400   0.87440   0.78520   0.01267  Uiso   1.00
N24    N     0.91330   0.84140   0.80610   0.01267  Uiso   1.00
C154   C     0.95880   0.80700   0.78010   0.01267  Uiso   1.00
H147   H     0.98570   0.84440   0.76130   0.01267  Uiso   1.00
H148   H     0.92110   0.76130   0.75440   0.01267  Uiso   1.00
C155   C     0.01930   0.78570   0.82040   0.01267  Uiso   1.00
O88    O     0.01900   0.79010   0.86910   0.01267  Uiso   1.00
O89    O     0.07150   0.76590   0.80630   0.01267  Uiso   1.00
O90    O     0.89380   0.88650   0.89580   0.01267  Uiso   1.00
O91    O     0.95650   0.00650   0.89440   0.01267  Uiso   1.00
C156   C     0.93660   0.93970   0.87320   0.01267  Uiso   1.00
C157   C     0.96070   0.91770   0.83050   0.01267  Uiso   1.00
H149   H     0.01820   0.92210   0.84390   0.01267  Uiso   1.00
H150   H     0.95430   0.95260   0.80450   0.01267  Uiso   1.00
C158   C     0.63100   0.61570   0.64360   0.01267  Uiso   1.00
C159   C     0.59330   0.58110   0.59970   0.01267  Uiso   1.00
C160   C     0.54570   0.53700   0.54850   0.01267  Uiso   1.00
C161   C     0.46980   0.51810   0.53410   0.01267  Uiso   1.00
H151   H     0.44680   0.53010   0.55870   0.01267  Uiso   1.00
C162   C     0.58300   0.51990   0.51650   0.01267  Uiso   1.00
H152   H     0.63970   0.53220   0.52690   0.01267  Uiso   1.00
C163   C     0.48760   0.75410   0.97180   0.01267  Uiso   1.00
O92    O     0.48980   0.78730   0.01528   0.01267  Uiso   1.00
O93    O     0.48630   0.78870   0.93278   0.01267  Uiso   1.00
O94    O     0.48380   0.68320   0.96480   0.01267  Uiso   1.00
O95    O     0.49250   0.65060   0.05850   0.01267  Uiso   1.00
H153   H     0.48990   0.65530   0.02760   0.01267  Uiso   1.00
H154   H     0.51780   0.62290   0.07430   0.01267  Uiso   1.00
C164   C     0.99020   0.73290   0.97590   0.01267  Uiso   1.00
O96    O     0.94690   0.67860   0.93660   0.01267  Uiso   1.00
O97    O     0.03290   0.71800   0.01786   0.01267  Uiso   1.00
O98    O     0.98650   0.80120   0.96990   0.01267  Uiso   1.00
Na9    Na    0.36208   0.82414   0.99460   0.01267  Uiso   1.00
Na10   Na    0.13527   0.67345   0.99707   0.01267  Uiso   1.00
Na11   Na    0.17491   0.71770   0.85564   0.01267  Uiso   1.00
Na12   Na    0.18180   0.49810   0.94840   0.01267  Uiso   1.00
Na13   Na    0.25890   0.97740   0.95270   0.01267  Uiso   1.00
Na14   Na    0.17030   0.21550   0.85430   0.01267  Uiso   1.00
Na15   Na    0.33160   0.41870   0.94230   0.01267  Uiso   1.00
Na16   Na    0.02370   0.69070   0.70780   0.01267  Uiso   1.00
O99    O     0.13770   0.74900   0.92919   0.01267  Uiso   1.00
H155   H     0.17470   0.78520   0.95090   0.01267  Uiso   1.00
H156   H     0.10030   0.76230   0.91010   0.01267  Uiso   1.00
O100   O     0.28890   0.71960   0.92639   0.01267  Uiso   1.00
H157   H     0.30610   0.69720   0.90740   0.01267  Uiso   1.00
H158   H     0.27440   0.69240   0.94770   0.01267  Uiso   1.00
O101   O     0.39690   0.88050   0.92660   0.01267  Uiso   1.00
H159   H     0.43630   0.87000   0.92330   0.01267  Uiso   1.00
O102   O     0.07530   0.87540   0.06290   0.01267  Uiso   1.00
H160   H     0.04600   0.85630   0.03190   0.01267  Uiso   1.00
H161   H     0.06600   0.91230   0.07620   0.01267  Uiso   1.00
O103   O     0.03030   0.58470   0.92900   0.01267  Uiso   1.00
H162   H     0.99860   0.55500   0.94130   0.01267  Uiso   1.00
O104   O     0.07410   0.44380   0.98420   0.01267  Uiso   1.00
H163   H     0.08290   0.47160   0.01220   0.01267  Uiso   1.00
O105   O     0.08580   0.59550   0.84400   0.01267  Uiso   1.00
H164   H     0.11120   0.56450   0.84850   0.01267  Uiso   1.00
H165   H     0.06960   0.59220   0.86960   0.01267  Uiso   1.00
O106   O     0.33290   0.54500   0.94400   0.01267  Uiso   1.00
O107   O     0.25200   0.83460   0.84410   0.01267  Uiso   1.00
H166   H     0.29630   0.85040   0.86870   0.01267  Uiso   1.00
O108   O     0.39890   0.04810   0.98790   0.01267  Uiso   1.00
H167   H     0.42020   0.03090   0.01440   0.01267  Uiso   1.00
O109   O     0.20680   0.39070   0.93390   0.01267  Uiso   1.00
H168   H     0.17190   0.36510   0.90630   0.01267  Uiso   1.00
H169   H     0.20840   0.36260   0.95680   0.01267  Uiso   1.00
O110   O     0.30690   0.28170   0.93730   0.01267  Uiso   1.00
H170   H     0.32610   0.25460   0.92320   0.01267  Uiso   1.00
O111   O     0.26210   0.30240   0.81800   0.01267  Uiso   1.00
O112   O     0.22790   0.08060   0.93740   0.01267  Uiso   1.00
H171   H     0.23330   0.09550   0.90980   0.01267  Uiso   1.00
H172   H     0.25020   0.11840   0.96140   0.01267  Uiso   1.00
O113   O     0.17720   0.50550   0.85970   0.01267  Uiso   1.00
O114   O     0.11110   0.93240   0.95130   0.01267  Uiso   1.00
H173   H     0.07600   0.89560   0.95650   0.01267  Uiso   1.00
O115   O     0.16200   0.67090   0.70500   0.01267  Uiso   1.00
H174   H     0.18720   0.66250   0.73420   0.01267  Uiso   1.00
O116   O     0.17340   0.93270   0.85750   0.01267  Uiso   1.00
H175   H     0.18830   0.90020   0.84460   0.01267  Uiso   1.00
O117   O     0.38660   0.41790   0.02520   0.01267  Uiso   1.00
O118   O     0.05890   0.11750   0.81610   0.01267  Uiso   1.00
H176   H     0.03480   0.12530   0.78640   0.01267  Uiso   1.00
