data_image0
_cell_length_a       12.3348
_cell_length_b       9.936
_cell_length_c       17.8259
_cell_angle_alpha    90
_cell_angle_beta     90
_cell_angle_gamma    90

_symmetry_space_group_name_H-M    "P 1"
_symmetry_int_tables_number       1

loop_
  _symmetry_equiv_pos_as_xyz
  'x, y, z'

loop_
  _atom_site_label
  _atom_site_occupancy
  _atom_site_fract_x
  _atom_site_fract_y
  _atom_site_fract_z
  _atom_site_thermal_displace_type
  _atom_site_B_iso_or_equiv
  _atom_site_type_symbol
  O1       1.0000 0.35450  0.44860  0.91722  Biso   1.000  O
  O2       1.0000 0.27960  0.26000  0.87700  Biso   1.000  O
  N1       1.0000 0.52880  0.04890  0.16870  Biso   1.000  N
  N2       1.0000 0.47200  0.95520  0.20860  Biso   1.000  N
  N3       1.0000 0.63300  0.99520  0.26230  Biso   1.000  N
  C1       1.0000 0.33850  0.32180  0.92200  Biso   1.000  C
  C2       1.0000 0.39360  0.24810  0.98460  Biso   1.000  C
  C3       1.0000 0.47550  0.30640  0.02480  Biso   1.000  C
  H1       1.0000 0.50090  0.39120  0.01130  Biso   1.000  H
  C4       1.0000 0.52070  0.24060  0.08550  Biso   1.000  C
  H2       1.0000 0.57650  0.28030  0.11270  Biso   1.000  H
  C5       1.0000 0.48210  0.11490  0.10510  Biso   1.000  C
  C6       1.0000 0.40110  0.05460  0.06580  Biso   1.000  C
  H3       1.0000 0.37570  0.96980  0.07920  Biso   1.000  H
  C7       1.0000 0.35750  0.12310  0.00530  Biso   1.000  C
  H4       1.0000 0.30200  0.08310  0.97790  Biso   1.000  H
  C8       1.0000 0.53710  0.92760  0.26400  Biso   1.000  C
  H5       1.0000 0.51940  0.86670  0.30170  Biso   1.000  H
  C9       1.0000 0.62410  0.06960  0.20090  Biso   1.000  C
  H6       1.0000 0.67710  0.12790  0.18300  Biso   1.000  H
  O3       1.0000 0.14550  0.55140  0.91722  Biso   1.000  O
  O4       1.0000 0.22040  0.74000  0.87700  Biso   1.000  O
  N4       1.0000 0.97120  0.95110  0.16870  Biso   1.000  N
  N5       1.0000 0.02800  0.04480  0.20860  Biso   1.000  N
  N6       1.0000 0.86700  0.00480  0.26230  Biso   1.000  N
  C10      1.0000 0.16150  0.67820  0.92200  Biso   1.000  C
  C11      1.0000 0.10640  0.75190  0.98460  Biso   1.000  C
  C12      1.0000 0.02450  0.69360  0.02480  Biso   1.000  C
  H7       1.0000 0.99910  0.60880  0.01130  Biso   1.000  H
  C13      1.0000 0.97930  0.75940  0.08550  Biso   1.000  C
  H8       1.0000 0.92350  0.71970  0.11270  Biso   1.000  H
  C14      1.0000 0.01790  0.88510  0.10510  Biso   1.000  C
  C15      1.0000 0.09890  0.94540  0.06580  Biso   1.000  C
  H9       1.0000 0.12430  0.03020  0.07920  Biso   1.000  H
  C16      1.0000 0.14250  0.87690  0.00530  Biso   1.000  C
  H10      1.0000 0.19800  0.91690  0.97790  Biso   1.000  H
  C17      1.0000 0.96290  0.07240  0.26400  Biso   1.000  C
  H11      1.0000 0.98060  0.13330  0.30170  Biso   1.000  H
  C18      1.0000 0.87590  0.93040  0.20090  Biso   1.000  C
  H12      1.0000 0.82290  0.87210  0.18300  Biso   1.000  H
  O5       1.0000 0.85450  0.05140  0.41722  Biso   1.000  O
  O6       1.0000 0.77960  0.24000  0.37700  Biso   1.000  O
  N7       1.0000 0.02880  0.45110  0.66870  Biso   1.000  N
  N8       1.0000 0.97200  0.54480  0.70860  Biso   1.000  N
  N9       1.0000 0.13300  0.50480  0.76230  Biso   1.000  N
  C19      1.0000 0.83850  0.17820  0.42200  Biso   1.000  C
  C20      1.0000 0.89360  0.25190  0.48460  Biso   1.000  C
  C21      1.0000 0.97550  0.19360  0.52480  Biso   1.000  C
  H13      1.0000 0.00090  0.10880  0.51130  Biso   1.000  H
  C22      1.0000 0.02070  0.25940  0.58550  Biso   1.000  C
  H14      1.0000 0.07650  0.21970  0.61270  Biso   1.000  H
  C23      1.0000 0.98210  0.38510  0.60510  Biso   1.000  C
  C24      1.0000 0.90110  0.44540  0.56580  Biso   1.000  C
  H15      1.0000 0.87570  0.53020  0.57920  Biso   1.000  H
  C25      1.0000 0.85750  0.37690  0.50530  Biso   1.000  C
  H16      1.0000 0.80200  0.41690  0.47790  Biso   1.000  H
  C26      1.0000 0.03710  0.57240  0.76400  Biso   1.000  C
  H17      1.0000 0.01940  0.63330  0.80170  Biso   1.000  H
  C27      1.0000 0.12410  0.43040  0.70090  Biso   1.000  C
  H18      1.0000 0.17710  0.37210  0.68300  Biso   1.000  H
  O7       1.0000 0.64550  0.94860  0.41722  Biso   1.000  O
  O8       1.0000 0.72040  0.76000  0.37700  Biso   1.000  O
  N10      1.0000 0.47120  0.54890  0.66870  Biso   1.000  N
  N11      1.0000 0.52800  0.45520  0.70860  Biso   1.000  N
  N12      1.0000 0.36700  0.49520  0.76230  Biso   1.000  N
  C28      1.0000 0.66150  0.82180  0.42200  Biso   1.000  C
  C29      1.0000 0.60640  0.74810  0.48460  Biso   1.000  C
  C30      1.0000 0.52450  0.80640  0.52480  Biso   1.000  C
  H19      1.0000 0.49910  0.89120  0.51130  Biso   1.000  H
  C31      1.0000 0.47930  0.74060  0.58550  Biso   1.000  C
  H20      1.0000 0.42350  0.78030  0.61270  Biso   1.000  H
  C32      1.0000 0.51790  0.61490  0.60510  Biso   1.000  C
  C33      1.0000 0.59890  0.55460  0.56580  Biso   1.000  C
  H21      1.0000 0.62430  0.46980  0.57920  Biso   1.000  H
  C34      1.0000 0.64250  0.62310  0.50530  Biso   1.000  C
  H22      1.0000 0.69800  0.58310  0.47790  Biso   1.000  H
  C35      1.0000 0.46290  0.42760  0.76400  Biso   1.000  C
  H23      1.0000 0.48060  0.36670  0.80170  Biso   1.000  H
  C36      1.0000 0.37590  0.56960  0.70090  Biso   1.000  C
  H24      1.0000 0.32290  0.62790  0.68300  Biso   1.000  H
  Cu1      1.0000 0.25000  0.50000  0.83816  Biso   1.000  Cu
  Cu2      1.0000 0.75000  0.00000  0.33816  Biso   1.000  Cu
  O9       1.0000 0.14550  0.94860  0.58278  Biso   1.000  O
  O10      1.0000 0.22040  0.76000  0.62300  Biso   1.000  O
  N13      1.0000 0.97120  0.54890  0.33130  Biso   1.000  N
  N14      1.0000 0.02800  0.45520  0.29140  Biso   1.000  N
  N15      1.0000 0.86700  0.49520  0.23770  Biso   1.000  N
  C37      1.0000 0.16150  0.82180  0.57800  Biso   1.000  C
  C38      1.0000 0.10640  0.74810  0.51540  Biso   1.000  C
  C39      1.0000 0.02450  0.80640  0.47520  Biso   1.000  C
  H25      1.0000 0.99910  0.89120  0.48870  Biso   1.000  H
  C40      1.0000 0.97930  0.74060  0.41450  Biso   1.000  C
  H26      1.0000 0.92350  0.78030  0.38730  Biso   1.000  H
  C41      1.0000 0.01790  0.61490  0.39490  Biso   1.000  C
  C42      1.0000 0.09890  0.55460  0.43420  Biso   1.000  C
  H27      1.0000 0.12430  0.46980  0.42080  Biso   1.000  H
  C43      1.0000 0.14250  0.62310  0.49470  Biso   1.000  C
  H28      1.0000 0.19800  0.58310  0.52210  Biso   1.000  H
  C44      1.0000 0.96290  0.42760  0.23600  Biso   1.000  C
  H29      1.0000 0.98060  0.36670  0.19830  Biso   1.000  H
  C45      1.0000 0.87590  0.56960  0.29910  Biso   1.000  C
  H30      1.0000 0.82290  0.62790  0.31700  Biso   1.000  H
  O11      1.0000 0.35450  0.05140  0.58278  Biso   1.000  O
  O12      1.0000 0.27960  0.24000  0.62300  Biso   1.000  O
  N16      1.0000 0.52880  0.45110  0.33130  Biso   1.000  N
  N17      1.0000 0.47200  0.54480  0.29140  Biso   1.000  N
  N18      1.0000 0.63300  0.50480  0.23770  Biso   1.000  N
  C46      1.0000 0.33850  0.17820  0.57800  Biso   1.000  C
  C47      1.0000 0.39360  0.25190  0.51540  Biso   1.000  C
  C48      1.0000 0.47550  0.19360  0.47520  Biso   1.000  C
  H31      1.0000 0.50090  0.10880  0.48870  Biso   1.000  H
  C49      1.0000 0.52070  0.25940  0.41450  Biso   1.000  C
  H32      1.0000 0.57650  0.21970  0.38730  Biso   1.000  H
  C50      1.0000 0.48210  0.38510  0.39490  Biso   1.000  C
  C51      1.0000 0.40110  0.44540  0.43420  Biso   1.000  C
  H33      1.0000 0.37570  0.53020  0.42080  Biso   1.000  H
  C52      1.0000 0.35750  0.37690  0.49470  Biso   1.000  C
  H34      1.0000 0.30200  0.41690  0.52210  Biso   1.000  H
  C53      1.0000 0.53710  0.57240  0.23600  Biso   1.000  C
  H35      1.0000 0.51940  0.63330  0.19830  Biso   1.000  H
  C54      1.0000 0.62410  0.43040  0.29910  Biso   1.000  C
  H36      1.0000 0.67710  0.37210  0.31700  Biso   1.000  H
  O13      1.0000 0.64550  0.55140  0.08278  Biso   1.000  O
  O14      1.0000 0.72040  0.74000  0.12300  Biso   1.000  O
  N19      1.0000 0.47120  0.95110  0.83130  Biso   1.000  N
  N20      1.0000 0.52800  0.04480  0.79140  Biso   1.000  N
  N21      1.0000 0.36700  0.00480  0.73770  Biso   1.000  N
  C55      1.0000 0.66150  0.67820  0.07800  Biso   1.000  C
  C56      1.0000 0.60640  0.75190  0.01540  Biso   1.000  C
  C57      1.0000 0.52450  0.69360  0.97520  Biso   1.000  C
  H37      1.0000 0.49910  0.60880  0.98870  Biso   1.000  H
  C58      1.0000 0.47930  0.75940  0.91450  Biso   1.000  C
  H38      1.0000 0.42350  0.71970  0.88730  Biso   1.000  H
  C59      1.0000 0.51790  0.88510  0.89490  Biso   1.000  C
  C60      1.0000 0.59890  0.94540  0.93420  Biso   1.000  C
  H39      1.0000 0.62430  0.03020  0.92080  Biso   1.000  H
  C61      1.0000 0.64250  0.87690  0.99470  Biso   1.000  C
  H40      1.0000 0.69800  0.91690  0.02210  Biso   1.000  H
  C62      1.0000 0.46290  0.07240  0.73600  Biso   1.000  C
  H41      1.0000 0.48060  0.13330  0.69830  Biso   1.000  H
  C63      1.0000 0.37590  0.93040  0.79910  Biso   1.000  C
  H42      1.0000 0.32290  0.87210  0.81700  Biso   1.000  H
  O15      1.0000 0.85450  0.44860  0.08278  Biso   1.000  O
  O16      1.0000 0.77960  0.26000  0.12300  Biso   1.000  O
  N22      1.0000 0.02880  0.04890  0.83130  Biso   1.000  N
  N23      1.0000 0.97200  0.95520  0.79140  Biso   1.000  N
  N24      1.0000 0.13300  0.99520  0.73770  Biso   1.000  N
  C64      1.0000 0.83850  0.32180  0.07800  Biso   1.000  C
  C65      1.0000 0.89360  0.24810  0.01540  Biso   1.000  C
  C66      1.0000 0.97550  0.30640  0.97520  Biso   1.000  C
  H43      1.0000 0.00090  0.39120  0.98870  Biso   1.000  H
  C67      1.0000 0.02070  0.24060  0.91450  Biso   1.000  C
  H44      1.0000 0.07650  0.28030  0.88730  Biso   1.000  H
  C68      1.0000 0.98210  0.11490  0.89490  Biso   1.000  C
  C69      1.0000 0.90110  0.05460  0.93420  Biso   1.000  C
  H45      1.0000 0.87570  0.96980  0.92080  Biso   1.000  H
  C70      1.0000 0.85750  0.12310  0.99470  Biso   1.000  C
  H46      1.0000 0.80200  0.08310  0.02210  Biso   1.000  H
  C71      1.0000 0.03710  0.92760  0.73600  Biso   1.000  C
  H47      1.0000 0.01940  0.86670  0.69830  Biso   1.000  H
  C72      1.0000 0.12410  0.06960  0.79910  Biso   1.000  C
  H48      1.0000 0.17710  0.12790  0.81700  Biso   1.000  H
  Cu3      1.0000 0.25000  0.00000  0.66184  Biso   1.000  Cu
  Cu4      1.0000 0.75000  0.50000  0.16184  Biso   1.000  Cu
