data_image0
_cell_length_a       12.1119
_cell_length_b       12.5555
_cell_length_c       12.6565
_cell_angle_alpha    62.874
_cell_angle_beta     70.151
_cell_angle_gamma    84.075

_symmetry_space_group_name_H-M    "P 1"
_symmetry_int_tables_number       1

loop_
  _symmetry_equiv_pos_as_xyz
  'x, y, z'

loop_
  _atom_site_label
  _atom_site_occupancy
  _atom_site_fract_x
  _atom_site_fract_y
  _atom_site_fract_z
  _atom_site_thermal_displace_type
  _atom_site_B_iso_or_equiv
  _atom_site_type_symbol
  Ag1      1.0000 0.91922  0.61864  0.35518  Biso   1.000  Ag
  Ag2      1.0000 0.11156  0.45718  0.34291  Biso   1.000  Ag
  Ag3      1.0000 0.10582  0.67072  0.43339  Biso   1.000  Ag
  Na1      1.0000 0.55857  0.66825  0.90787  Biso   1.000  Na
  Na2      1.0000 0.45928  0.87323  0.65559  Biso   1.000  Na
  S1       1.0000 0.21804  0.66072  0.23060  Biso   1.000  S
  S2       1.0000 0.82649  0.43781  0.38214  Biso   1.000  S
  S3       1.0000 0.81200  0.70506  0.50016  Biso   1.000  S
  N1       1.0000 0.03120  0.75310  0.15780  Biso   1.000  N
  N2       1.0000 0.03150  0.41260  0.22600  Biso   1.000  N
  N3       1.0000 0.01000  0.84440  0.40140  Biso   1.000  N
  O1       1.0000 0.40440  0.80990  0.87160  Biso   1.000  O
  O2       1.0000 0.40080  0.89000  0.99760  Biso   1.000  O
  O3       1.0000 0.68260  0.24710  0.34180  Biso   1.000  O
  O4       1.0000 0.66890  0.41960  0.18360  Biso   1.000  O
  O5       1.0000 0.64600  0.94880  0.40540  Biso   1.000  O
  O6       1.0000 0.65200  0.95740  0.57490  Biso   1.000  O
  O7       1.0000 0.55540  0.68530  0.71690  Biso   1.000  O
  O8       1.0000 0.37240  0.53510  0.03940  Biso   1.000  O
  C1       1.0000 0.14990  0.75810  0.12040  Biso   1.000  C
  C2       1.0000 0.21860  0.83570  0.99690  Biso   1.000  C
  C3       1.0000 0.35160  0.84530  0.95190  Biso   1.000  C
  C4       1.0000 0.16120  0.90460  0.91160  Biso   1.000  C
  H1       1.0000 0.20450  0.95370  0.82830  Biso   1.000  H
  C5       1.0000 0.03920  0.90000  0.95080  Biso   1.000  C
  H2       1.0000 0.99960  0.94630  0.89510  Biso   1.000  H
  C6       1.0000 0.97830  0.82470  0.07480  Biso   1.000  C
  H3       1.0000 0.89660  0.82360  0.10220  Biso   1.000  H
  C7       1.0000 0.91350  0.40180  0.26100  Biso   1.000  C
  C8       1.0000 0.85870  0.36580  0.20060  Biso   1.000  C
  C9       1.0000 0.72640  0.34200  0.24700  Biso   1.000  C
  C10      1.0000 0.92820  0.34610  0.09940  Biso   1.000  C
  H4       1.0000 0.89360  0.32590  0.05520  Biso   1.000  H
  C11      1.0000 0.04890  0.35650  0.06480  Biso   1.000  C
  H5       1.0000 0.09680  0.34200  0.99820  Biso   1.000  H
  C12      1.0000 0.09700  0.38890  0.13090  Biso   1.000  C
  H6       1.0000 0.17840  0.39460  0.10860  Biso   1.000  H
  C13      1.0000 0.89170  0.84250  0.43970  Biso   1.000  C
  C14      1.0000 0.83270  0.94660  0.43070  Biso   1.000  C
  C15      1.0000 0.69980  0.94910  0.47430  Biso   1.000  C
  C16      1.0000 0.89890  0.05250  0.38220  Biso   1.000  C
  H7       1.0000 0.86160  0.12220  0.37780  Biso   1.000  H
  C17      1.0000 0.01980  0.05420  0.34070  Biso   1.000  C
  H8       1.0000 0.06510  0.12510  0.30570  Biso   1.000  H
  C18      1.0000 0.07220  0.94860  0.35210  Biso   1.000  C
  H9       1.0000 0.15380  0.94940  0.32470  Biso   1.000  H
  Ag4      1.0000 0.08078  0.38136  0.64482  Biso   1.000  Ag
  Ag5      1.0000 0.88844  0.54282  0.65709  Biso   1.000  Ag
  Ag6      1.0000 0.89418  0.32928  0.56661  Biso   1.000  Ag
  Na3      1.0000 0.44143  0.33175  0.09213  Biso   1.000  Na
  Na4      1.0000 0.54072  0.12677  0.34441  Biso   1.000  Na
  S4       1.0000 0.78196  0.33928  0.76940  Biso   1.000  S
  S5       1.0000 0.17351  0.56219  0.61786  Biso   1.000  S
  S6       1.0000 0.18800  0.29494  0.49984  Biso   1.000  S
  N4       1.0000 0.96880  0.24690  0.84220  Biso   1.000  N
  N5       1.0000 0.96850  0.58740  0.77400  Biso   1.000  N
  N6       1.0000 0.99000  0.15560  0.59860  Biso   1.000  N
  O9       1.0000 0.59560  0.19010  0.12840  Biso   1.000  O
  O10      1.0000 0.59920  0.11000  0.00240  Biso   1.000  O
  O11      1.0000 0.31740  0.75290  0.65820  Biso   1.000  O
  O12      1.0000 0.33110  0.58040  0.81640  Biso   1.000  O
  O13      1.0000 0.35400  0.05120  0.59460  Biso   1.000  O
  O14      1.0000 0.34800  0.04260  0.42510  Biso   1.000  O
  O15      1.0000 0.44460  0.31470  0.28310  Biso   1.000  O
  O16      1.0000 0.62760  0.46490  0.96060  Biso   1.000  O
  C19      1.0000 0.85010  0.24190  0.87960  Biso   1.000  C
  C20      1.0000 0.78140  0.16430  0.00310  Biso   1.000  C
  C21      1.0000 0.64840  0.15470  0.04810  Biso   1.000  C
  C22      1.0000 0.83880  0.09540  0.08840  Biso   1.000  C
  H10      1.0000 0.79550  0.04630  0.17170  Biso   1.000  H
  C23      1.0000 0.96080  0.10000  0.04920  Biso   1.000  C
  H11      1.0000 0.00040  0.05370  0.10490  Biso   1.000  H
  C24      1.0000 0.02170  0.17530  0.92520  Biso   1.000  C
  H12      1.0000 0.10340  0.17640  0.89780  Biso   1.000  H
  C25      1.0000 0.08650  0.59820  0.73900  Biso   1.000  C
  C26      1.0000 0.14130  0.63420  0.79940  Biso   1.000  C
  C27      1.0000 0.27360  0.65800  0.75300  Biso   1.000  C
  C28      1.0000 0.07180  0.65390  0.90060  Biso   1.000  C
  H13      1.0000 0.10640  0.67410  0.94480  Biso   1.000  H
  C29      1.0000 0.95110  0.64350  0.93520  Biso   1.000  C
  H14      1.0000 0.90320  0.65800  0.00180  Biso   1.000  H
  C30      1.0000 0.90300  0.61110  0.86910  Biso   1.000  C
  H15      1.0000 0.82160  0.60540  0.89140  Biso   1.000  H
  C31      1.0000 0.10830  0.15750  0.56030  Biso   1.000  C
  C32      1.0000 0.16730  0.05340  0.56930  Biso   1.000  C
  C33      1.0000 0.30020  0.05090  0.52570  Biso   1.000  C
  C34      1.0000 0.10110  0.94750  0.61780  Biso   1.000  C
  H16      1.0000 0.13840  0.87780  0.62220  Biso   1.000  H
  C35      1.0000 0.98020  0.94580  0.65930  Biso   1.000  C
  H17      1.0000 0.93490  0.87490  0.69430  Biso   1.000  H
  C36      1.0000 0.92780  0.05140  0.64790  Biso   1.000  C
  H18      1.0000 0.84620  0.05060  0.67530  Biso   1.000  H
