data_image0
_cell_length_a       26.221
_cell_length_b       26.221
_cell_length_c       26.02
_cell_angle_alpha    90
_cell_angle_beta     90
_cell_angle_gamma    120

_symmetry_space_group_name_H-M    "P 1"
_symmetry_int_tables_number       1

loop_
  _symmetry_equiv_pos_as_xyz
  'x, y, z'

loop_
  _atom_site_label
  _atom_site_occupancy
  _atom_site_fract_x
  _atom_site_fract_y
  _atom_site_fract_z
  _atom_site_thermal_displace_type
  _atom_site_B_iso_or_equiv
  _atom_site_type_symbol
  O1       1.0000 0.25103  0.85452  0.15741  Biso   1.000  O
  O2       1.0000 0.22509  0.87840  0.23063  Biso   1.000  O
  O3       1.0000 0.50697  0.11796  0.94590  Biso   1.000  O
  O4       1.0000 0.53444  0.17116  0.87116  Biso   1.000  O
  C1       1.0000 0.24760  0.89040  0.18780  Biso   1.000  C
  C2       1.0000 0.26564  0.95040  0.16360  Biso   1.000  C
  C3       1.0000 0.28480  0.96260  0.11580  Biso   1.000  C
  H1       1.0000 0.28590  0.93330  0.09510  Biso   1.000  H
  C4       1.0000 0.30260  0.01540  0.09660  Biso   1.000  C
  H2       1.0000 0.31500  0.02260  0.06170  Biso   1.000  H
  C5       1.0000 0.30390  0.06060  0.12440  Biso   1.000  C
  C6       1.0000 0.28280  0.04830  0.17150  Biso   1.000  C
  H3       1.0000 0.28090  0.07760  0.19150  Biso   1.000  H
  C7       1.0000 0.26310  0.99210  0.19220  Biso   1.000  C
  H4       1.0000 0.24810  0.98340  0.22630  Biso   1.000  H
  C8       1.0000 0.32660  0.11830  0.10260  Biso   1.000  C
  C9       1.0000 0.37280  0.13906  0.06470  Biso   1.000  C
  H5       1.0000 0.38790  0.11450  0.05400  Biso   1.000  H
  C10      1.0000 0.45560  0.18280  0.98160  Biso   1.000  C
  H6       1.0000 0.44390  0.14530  0.99610  Biso   1.000  H
  C11      1.0000 0.49330  0.20206  0.93810  Biso   1.000  C
  C12      1.0000 0.51260  0.16170  0.91660  Biso   1.000  C
  O5       1.0000 0.91770  0.18785  0.49074  Biso   1.000  O
  O6       1.0000 0.89176  0.21173  0.56396  Biso   1.000  O
  O7       1.0000 0.17364  0.45129  0.27923  Biso   1.000  O
  O8       1.0000 0.20111  0.50449  0.20449  Biso   1.000  O
  C13      1.0000 0.91427  0.22373  0.52113  Biso   1.000  C
  C14      1.0000 0.93231  0.28373  0.49693  Biso   1.000  C
  C15      1.0000 0.95147  0.29593  0.44913  Biso   1.000  C
  H7       1.0000 0.95257  0.26663  0.42843  Biso   1.000  H
  C16      1.0000 0.96927  0.34873  0.42993  Biso   1.000  C
  H8       1.0000 0.98167  0.35593  0.39503  Biso   1.000  H
  C17      1.0000 0.97057  0.39393  0.45773  Biso   1.000  C
  C18      1.0000 0.94947  0.38163  0.50483  Biso   1.000  C
  H9       1.0000 0.94757  0.41093  0.52483  Biso   1.000  H
  C19      1.0000 0.92977  0.32543  0.52553  Biso   1.000  C
  H10      1.0000 0.91477  0.31673  0.55963  Biso   1.000  H
  C20      1.0000 0.99327  0.45163  0.43593  Biso   1.000  C
  C21      1.0000 0.03947  0.47239  0.39803  Biso   1.000  C
  H11      1.0000 0.05457  0.44783  0.38733  Biso   1.000  H
  C22      1.0000 0.12227  0.51613  0.31493  Biso   1.000  C
  H12      1.0000 0.11057  0.47863  0.32943  Biso   1.000  H
  C23      1.0000 0.15997  0.53539  0.27143  Biso   1.000  C
  C24      1.0000 0.17927  0.49503  0.24993  Biso   1.000  C
  O9       1.0000 0.58436  0.52119  0.82408  Biso   1.000  O
  O10      1.0000 0.55842  0.54507  0.89730  Biso   1.000  O
  O11      1.0000 0.84030  0.78463  0.61257  Biso   1.000  O
  O12      1.0000 0.86777  0.83783  0.53783  Biso   1.000  O
  C25      1.0000 0.58093  0.55707  0.85447  Biso   1.000  C
  C26      1.0000 0.59897  0.61707  0.83027  Biso   1.000  C
  C27      1.0000 0.61813  0.62927  0.78247  Biso   1.000  C
  H13      1.0000 0.61923  0.59997  0.76177  Biso   1.000  H
  C28      1.0000 0.63593  0.68207  0.76327  Biso   1.000  C
  H14      1.0000 0.64833  0.68927  0.72837  Biso   1.000  H
  C29      1.0000 0.63723  0.72727  0.79107  Biso   1.000  C
  C30      1.0000 0.61613  0.71497  0.83817  Biso   1.000  C
  H15      1.0000 0.61423  0.74427  0.85817  Biso   1.000  H
  C31      1.0000 0.59643  0.65877  0.85887  Biso   1.000  C
  H16      1.0000 0.58143  0.65007  0.89297  Biso   1.000  H
  C32      1.0000 0.65993  0.78497  0.76927  Biso   1.000  C
  C33      1.0000 0.70613  0.80573  0.73137  Biso   1.000  C
  H17      1.0000 0.72123  0.78117  0.72067  Biso   1.000  H
  C34      1.0000 0.78893  0.84947  0.64827  Biso   1.000  C
  H18      1.0000 0.77723  0.81197  0.66277  Biso   1.000  H
  C35      1.0000 0.82663  0.86873  0.60477  Biso   1.000  C
  C36      1.0000 0.84593  0.82837  0.58327  Biso   1.000  C
  O13      1.0000 0.14548  0.39651  0.15741  Biso   1.000  O
  O14      1.0000 0.12160  0.34669  0.23063  Biso   1.000  O
  O15      1.0000 0.88204  0.38901  0.94590  Biso   1.000  O
  O16      1.0000 0.82884  0.36328  0.87116  Biso   1.000  O
  C37      1.0000 0.10960  0.35720  0.18780  Biso   1.000  C
  C38      1.0000 0.04960  0.31524  0.16360  Biso   1.000  C
  C39      1.0000 0.03740  0.32220  0.11580  Biso   1.000  C
  H19      1.0000 0.06670  0.35260  0.09510  Biso   1.000  H
  C40      1.0000 0.98460  0.28720  0.09660  Biso   1.000  C
  H20      1.0000 0.97740  0.29240  0.06170  Biso   1.000  H
  C41      1.0000 0.93940  0.24330  0.12440  Biso   1.000  C
  C42      1.0000 0.95170  0.23450  0.17150  Biso   1.000  C
  H21      1.0000 0.92240  0.20330  0.19150  Biso   1.000  H
  C43      1.0000 0.00790  0.27100  0.19220  Biso   1.000  C
  H22      1.0000 0.01660  0.26470  0.22630  Biso   1.000  H
  C44      1.0000 0.88170  0.20830  0.10260  Biso   1.000  C
  C45      1.0000 0.86094  0.23374  0.06470  Biso   1.000  C
  H23      1.0000 0.88550  0.27340  0.05400  Biso   1.000  H
  C46      1.0000 0.81720  0.27280  0.98160  Biso   1.000  C
  H24      1.0000 0.85470  0.29860  0.99610  Biso   1.000  H
  C47      1.0000 0.79794  0.29124  0.93810  Biso   1.000  C
  C48      1.0000 0.83830  0.35090  0.91660  Biso   1.000  C
  O17      1.0000 0.81215  0.72984  0.49074  Biso   1.000  O
  O18      1.0000 0.78827  0.68002  0.56396  Biso   1.000  O
  O19      1.0000 0.54871  0.72234  0.27923  Biso   1.000  O
  O20      1.0000 0.49551  0.69661  0.20449  Biso   1.000  O
  C49      1.0000 0.77627  0.69053  0.52113  Biso   1.000  C
  C50      1.0000 0.71627  0.64857  0.49693  Biso   1.000  C
  C51      1.0000 0.70407  0.65553  0.44913  Biso   1.000  C
  H25      1.0000 0.73337  0.68593  0.42843  Biso   1.000  H
  C52      1.0000 0.65127  0.62053  0.42993  Biso   1.000  C
  H26      1.0000 0.64407  0.62573  0.39503  Biso   1.000  H
  C53      1.0000 0.60607  0.57663  0.45773  Biso   1.000  C
  C54      1.0000 0.61837  0.56783  0.50483  Biso   1.000  C
  H27      1.0000 0.58907  0.53663  0.52483  Biso   1.000  H
  C55      1.0000 0.67457  0.60433  0.52553  Biso   1.000  C
  H28      1.0000 0.68327  0.59803  0.55963  Biso   1.000  H
  C56      1.0000 0.54837  0.54163  0.43593  Biso   1.000  C
  C57      1.0000 0.52761  0.56707  0.39803  Biso   1.000  C
  H29      1.0000 0.55217  0.60673  0.38733  Biso   1.000  H
  C58      1.0000 0.48387  0.60613  0.31493  Biso   1.000  C
  H30      1.0000 0.52137  0.63193  0.32943  Biso   1.000  H
  C59      1.0000 0.46461  0.62457  0.27143  Biso   1.000  C
  C60      1.0000 0.50497  0.68423  0.24993  Biso   1.000  C
  O21      1.0000 0.47881  0.06318  0.82408  Biso   1.000  O
  O22      1.0000 0.45493  0.01336  0.89730  Biso   1.000  O
  O23      1.0000 0.21537  0.05568  0.61257  Biso   1.000  O
  O24      1.0000 0.16217  0.02995  0.53783  Biso   1.000  O
  C61      1.0000 0.44293  0.02387  0.85447  Biso   1.000  C
  C62      1.0000 0.38293  0.98191  0.83027  Biso   1.000  C
  C63      1.0000 0.37073  0.98887  0.78247  Biso   1.000  C
  H31      1.0000 0.40003  0.01927  0.76177  Biso   1.000  H
  C64      1.0000 0.31793  0.95387  0.76327  Biso   1.000  C
  H32      1.0000 0.31073  0.95907  0.72837  Biso   1.000  H
  C65      1.0000 0.27273  0.90997  0.79107  Biso   1.000  C
  C66      1.0000 0.28503  0.90117  0.83817  Biso   1.000  C
  H33      1.0000 0.25573  0.86997  0.85817  Biso   1.000  H
  C67      1.0000 0.34123  0.93767  0.85887  Biso   1.000  C
  H34      1.0000 0.34993  0.93137  0.89297  Biso   1.000  H
  C68      1.0000 0.21503  0.87497  0.76927  Biso   1.000  C
  C69      1.0000 0.19427  0.90041  0.73137  Biso   1.000  C
  H35      1.0000 0.21883  0.94007  0.72067  Biso   1.000  H
  C70      1.0000 0.15053  0.93947  0.64827  Biso   1.000  C
  H36      1.0000 0.18803  0.96527  0.66277  Biso   1.000  H
  C71      1.0000 0.13127  0.95791  0.60477  Biso   1.000  C
  C72      1.0000 0.17163  0.01757  0.58327  Biso   1.000  C
  O25      1.0000 0.60349  0.74897  0.15741  Biso   1.000  O
  O26      1.0000 0.65331  0.77491  0.23063  Biso   1.000  O
  O27      1.0000 0.61099  0.49303  0.94590  Biso   1.000  O
  O28      1.0000 0.63672  0.46556  0.87116  Biso   1.000  O
  C73      1.0000 0.64280  0.75240  0.18780  Biso   1.000  C
  C74      1.0000 0.68476  0.73436  0.16360  Biso   1.000  C
  C75      1.0000 0.67780  0.71520  0.11580  Biso   1.000  C
  H37      1.0000 0.64740  0.71410  0.09510  Biso   1.000  H
  C76      1.0000 0.71280  0.69740  0.09660  Biso   1.000  C
  H38      1.0000 0.70760  0.68500  0.06170  Biso   1.000  H
  C77      1.0000 0.75670  0.69610  0.12440  Biso   1.000  C
  C78      1.0000 0.76550  0.71720  0.17150  Biso   1.000  C
  H39      1.0000 0.79670  0.71910  0.19150  Biso   1.000  H
  C79      1.0000 0.72900  0.73690  0.19220  Biso   1.000  C
  H40      1.0000 0.73530  0.75190  0.22630  Biso   1.000  H
  C80      1.0000 0.79170  0.67340  0.10260  Biso   1.000  C
  C81      1.0000 0.76626  0.62720  0.06470  Biso   1.000  C
  H41      1.0000 0.72660  0.61210  0.05400  Biso   1.000  H
  C82      1.0000 0.72720  0.54440  0.98160  Biso   1.000  C
  H42      1.0000 0.70140  0.55610  0.99610  Biso   1.000  H
  C83      1.0000 0.70876  0.50670  0.93810  Biso   1.000  C
  C84      1.0000 0.64910  0.48740  0.91660  Biso   1.000  C
  O29      1.0000 0.27016  0.08230  0.49074  Biso   1.000  O
  O30      1.0000 0.31998  0.10824  0.56396  Biso   1.000  O
  O31      1.0000 0.27766  0.82636  0.27923  Biso   1.000  O
  O32      1.0000 0.30339  0.79889  0.20449  Biso   1.000  O
  C85      1.0000 0.30947  0.08573  0.52113  Biso   1.000  C
  C86      1.0000 0.35143  0.06769  0.49693  Biso   1.000  C
  C87      1.0000 0.34447  0.04853  0.44913  Biso   1.000  C
  H43      1.0000 0.31407  0.04743  0.42843  Biso   1.000  H
  C88      1.0000 0.37947  0.03073  0.42993  Biso   1.000  C
  H44      1.0000 0.37427  0.01833  0.39503  Biso   1.000  H
  C89      1.0000 0.42337  0.02943  0.45773  Biso   1.000  C
  C90      1.0000 0.43217  0.05053  0.50483  Biso   1.000  C
  H45      1.0000 0.46337  0.05243  0.52483  Biso   1.000  H
  C91      1.0000 0.39567  0.07023  0.52553  Biso   1.000  C
  H46      1.0000 0.40197  0.08523  0.55963  Biso   1.000  H
  C92      1.0000 0.45837  0.00673  0.43593  Biso   1.000  C
  C93      1.0000 0.43293  0.96053  0.39803  Biso   1.000  C
  H47      1.0000 0.39327  0.94543  0.38733  Biso   1.000  H
  C94      1.0000 0.39387  0.87773  0.31493  Biso   1.000  C
  H48      1.0000 0.36807  0.88943  0.32943  Biso   1.000  H
  C95      1.0000 0.37543  0.84003  0.27143  Biso   1.000  C
  C96      1.0000 0.31577  0.82073  0.24993  Biso   1.000  C
  O33      1.0000 0.93682  0.41564  0.82408  Biso   1.000  O
  O34      1.0000 0.98664  0.44158  0.89730  Biso   1.000  O
  O35      1.0000 0.94432  0.15970  0.61257  Biso   1.000  O
  O36      1.0000 0.97005  0.13223  0.53783  Biso   1.000  O
  C97      1.0000 0.97613  0.41907  0.85447  Biso   1.000  C
  C98      1.0000 0.01809  0.40103  0.83027  Biso   1.000  C
  C99      1.0000 0.01113  0.38187  0.78247  Biso   1.000  C
  H49      1.0000 0.98073  0.38077  0.76177  Biso   1.000  H
  C100     1.0000 0.04613  0.36407  0.76327  Biso   1.000  C
  H50      1.0000 0.04093  0.35167  0.72837  Biso   1.000  H
  C101     1.0000 0.09003  0.36277  0.79107  Biso   1.000  C
  C102     1.0000 0.09883  0.38387  0.83817  Biso   1.000  C
  H51      1.0000 0.13003  0.38577  0.85817  Biso   1.000  H
  C103     1.0000 0.06233  0.40357  0.85887  Biso   1.000  C
  H52      1.0000 0.06863  0.41857  0.89297  Biso   1.000  H
  C104     1.0000 0.12503  0.34007  0.76927  Biso   1.000  C
  C105     1.0000 0.09959  0.29387  0.73137  Biso   1.000  C
  H53      1.0000 0.05993  0.27877  0.72067  Biso   1.000  H
  C106     1.0000 0.06053  0.21107  0.64827  Biso   1.000  C
  H54      1.0000 0.03473  0.22277  0.66277  Biso   1.000  H
  C107     1.0000 0.04209  0.17337  0.60477  Biso   1.000  C
  C108     1.0000 0.98243  0.15407  0.58327  Biso   1.000  C
  O37      1.0000 0.14548  0.74897  0.15741  Biso   1.000  O
  O38      1.0000 0.12160  0.77491  0.23063  Biso   1.000  O
  O39      1.0000 0.88204  0.49303  0.94590  Biso   1.000  O
  O40      1.0000 0.82884  0.46556  0.87116  Biso   1.000  O
  C109     1.0000 0.10960  0.75240  0.18780  Biso   1.000  C
  C110     1.0000 0.04960  0.73436  0.16360  Biso   1.000  C
  C111     1.0000 0.03740  0.71520  0.11580  Biso   1.000  C
  H55      1.0000 0.06670  0.71410  0.09510  Biso   1.000  H
  C112     1.0000 0.98460  0.69740  0.09660  Biso   1.000  C
  H56      1.0000 0.97740  0.68500  0.06170  Biso   1.000  H
  C113     1.0000 0.93940  0.69610  0.12440  Biso   1.000  C
  C114     1.0000 0.95170  0.71720  0.17150  Biso   1.000  C
  H57      1.0000 0.92240  0.71910  0.19150  Biso   1.000  H
  C115     1.0000 0.00790  0.73690  0.19220  Biso   1.000  C
  H58      1.0000 0.01660  0.75190  0.22630  Biso   1.000  H
  C116     1.0000 0.88170  0.67340  0.10260  Biso   1.000  C
  C117     1.0000 0.86094  0.62720  0.06470  Biso   1.000  C
  H59      1.0000 0.88550  0.61210  0.05400  Biso   1.000  H
  C118     1.0000 0.81720  0.54440  0.98160  Biso   1.000  C
  H60      1.0000 0.85470  0.55610  0.99610  Biso   1.000  H
  C119     1.0000 0.79794  0.50670  0.93810  Biso   1.000  C
  C120     1.0000 0.83830  0.48740  0.91660  Biso   1.000  C
  O41      1.0000 0.81215  0.08230  0.49074  Biso   1.000  O
  O42      1.0000 0.78827  0.10824  0.56396  Biso   1.000  O
  O43      1.0000 0.54871  0.82636  0.27923  Biso   1.000  O
  O44      1.0000 0.49551  0.79889  0.20449  Biso   1.000  O
  C121     1.0000 0.77627  0.08573  0.52113  Biso   1.000  C
  C122     1.0000 0.71627  0.06769  0.49693  Biso   1.000  C
  C123     1.0000 0.70407  0.04853  0.44913  Biso   1.000  C
  H61      1.0000 0.73337  0.04743  0.42843  Biso   1.000  H
  C124     1.0000 0.65127  0.03073  0.42993  Biso   1.000  C
  H62      1.0000 0.64407  0.01833  0.39503  Biso   1.000  H
  C125     1.0000 0.60607  0.02943  0.45773  Biso   1.000  C
  C126     1.0000 0.61837  0.05053  0.50483  Biso   1.000  C
  H63      1.0000 0.58907  0.05243  0.52483  Biso   1.000  H
  C127     1.0000 0.67457  0.07023  0.52553  Biso   1.000  C
  H64      1.0000 0.68327  0.08523  0.55963  Biso   1.000  H
  C128     1.0000 0.54837  0.00673  0.43593  Biso   1.000  C
  C129     1.0000 0.52761  0.96053  0.39803  Biso   1.000  C
  H65      1.0000 0.55217  0.94543  0.38733  Biso   1.000  H
  C130     1.0000 0.48387  0.87773  0.31493  Biso   1.000  C
  H66      1.0000 0.52137  0.88943  0.32943  Biso   1.000  H
  C131     1.0000 0.46461  0.84003  0.27143  Biso   1.000  C
  C132     1.0000 0.50497  0.82073  0.24993  Biso   1.000  C
  O45      1.0000 0.47881  0.41564  0.82408  Biso   1.000  O
  O46      1.0000 0.45493  0.44158  0.89730  Biso   1.000  O
  O47      1.0000 0.21537  0.15970  0.61257  Biso   1.000  O
  O48      1.0000 0.16217  0.13223  0.53783  Biso   1.000  O
  C133     1.0000 0.44293  0.41907  0.85447  Biso   1.000  C
  C134     1.0000 0.38293  0.40103  0.83027  Biso   1.000  C
  C135     1.0000 0.37073  0.38187  0.78247  Biso   1.000  C
  H67      1.0000 0.40003  0.38077  0.76177  Biso   1.000  H
  C136     1.0000 0.31793  0.36407  0.76327  Biso   1.000  C
  H68      1.0000 0.31073  0.35167  0.72837  Biso   1.000  H
  C137     1.0000 0.27273  0.36277  0.79107  Biso   1.000  C
  C138     1.0000 0.28503  0.38387  0.83817  Biso   1.000  C
  H69      1.0000 0.25573  0.38577  0.85817  Biso   1.000  H
  C139     1.0000 0.34123  0.40357  0.85887  Biso   1.000  C
  H70      1.0000 0.34993  0.41857  0.89297  Biso   1.000  H
  C140     1.0000 0.21503  0.34007  0.76927  Biso   1.000  C
  C141     1.0000 0.19427  0.29387  0.73137  Biso   1.000  C
  H71      1.0000 0.21883  0.27877  0.72067  Biso   1.000  H
  C142     1.0000 0.15053  0.21107  0.64827  Biso   1.000  C
  H72      1.0000 0.18803  0.22277  0.66277  Biso   1.000  H
  C143     1.0000 0.13127  0.17337  0.60477  Biso   1.000  C
  C144     1.0000 0.17163  0.15407  0.58327  Biso   1.000  C
  O49      1.0000 0.60349  0.85452  0.15741  Biso   1.000  O
  O50      1.0000 0.65331  0.87840  0.23063  Biso   1.000  O
  O51      1.0000 0.61099  0.11796  0.94590  Biso   1.000  O
  O52      1.0000 0.63672  0.17116  0.87116  Biso   1.000  O
  C145     1.0000 0.64280  0.89040  0.18780  Biso   1.000  C
  C146     1.0000 0.68476  0.95040  0.16360  Biso   1.000  C
  C147     1.0000 0.67780  0.96260  0.11580  Biso   1.000  C
  H73      1.0000 0.64740  0.93330  0.09510  Biso   1.000  H
  C148     1.0000 0.71280  0.01540  0.09660  Biso   1.000  C
  H74      1.0000 0.70760  0.02260  0.06170  Biso   1.000  H
  C149     1.0000 0.75670  0.06060  0.12440  Biso   1.000  C
  C150     1.0000 0.76550  0.04830  0.17150  Biso   1.000  C
  H75      1.0000 0.79670  0.07760  0.19150  Biso   1.000  H
  C151     1.0000 0.72900  0.99210  0.19220  Biso   1.000  C
  H76      1.0000 0.73530  0.98340  0.22630  Biso   1.000  H
  C152     1.0000 0.79170  0.11830  0.10260  Biso   1.000  C
  C153     1.0000 0.76626  0.13906  0.06470  Biso   1.000  C
  H77      1.0000 0.72660  0.11450  0.05400  Biso   1.000  H
  C154     1.0000 0.72720  0.18280  0.98160  Biso   1.000  C
  H78      1.0000 0.70140  0.14530  0.99610  Biso   1.000  H
  C155     1.0000 0.70876  0.20206  0.93810  Biso   1.000  C
  C156     1.0000 0.64910  0.16170  0.91660  Biso   1.000  C
  O53      1.0000 0.27016  0.18785  0.49074  Biso   1.000  O
  O54      1.0000 0.31998  0.21173  0.56396  Biso   1.000  O
  O55      1.0000 0.27766  0.45129  0.27923  Biso   1.000  O
  O56      1.0000 0.30339  0.50449  0.20449  Biso   1.000  O
  C157     1.0000 0.30947  0.22373  0.52113  Biso   1.000  C
  C158     1.0000 0.35143  0.28373  0.49693  Biso   1.000  C
  C159     1.0000 0.34447  0.29593  0.44913  Biso   1.000  C
  H79      1.0000 0.31407  0.26663  0.42843  Biso   1.000  H
  C160     1.0000 0.37947  0.34873  0.42993  Biso   1.000  C
  H80      1.0000 0.37427  0.35593  0.39503  Biso   1.000  H
  C161     1.0000 0.42337  0.39393  0.45773  Biso   1.000  C
  C162     1.0000 0.43217  0.38163  0.50483  Biso   1.000  C
  H81      1.0000 0.46337  0.41093  0.52483  Biso   1.000  H
  C163     1.0000 0.39567  0.32543  0.52553  Biso   1.000  C
  H82      1.0000 0.40197  0.31673  0.55963  Biso   1.000  H
  C164     1.0000 0.45837  0.45163  0.43593  Biso   1.000  C
  C165     1.0000 0.43293  0.47239  0.39803  Biso   1.000  C
  H83      1.0000 0.39327  0.44783  0.38733  Biso   1.000  H
  C166     1.0000 0.39387  0.51613  0.31493  Biso   1.000  C
  H84      1.0000 0.36807  0.47863  0.32943  Biso   1.000  H
  C167     1.0000 0.37543  0.53539  0.27143  Biso   1.000  C
  C168     1.0000 0.31577  0.49503  0.24993  Biso   1.000  C
  O57      1.0000 0.93682  0.52119  0.82408  Biso   1.000  O
  O58      1.0000 0.98664  0.54507  0.89730  Biso   1.000  O
  O59      1.0000 0.94432  0.78463  0.61257  Biso   1.000  O
  O60      1.0000 0.97005  0.83783  0.53783  Biso   1.000  O
  C169     1.0000 0.97613  0.55707  0.85447  Biso   1.000  C
  C170     1.0000 0.01809  0.61707  0.83027  Biso   1.000  C
  C171     1.0000 0.01113  0.62927  0.78247  Biso   1.000  C
  H85      1.0000 0.98073  0.59997  0.76177  Biso   1.000  H
  C172     1.0000 0.04613  0.68207  0.76327  Biso   1.000  C
  H86      1.0000 0.04093  0.68927  0.72837  Biso   1.000  H
  C173     1.0000 0.09003  0.72727  0.79107  Biso   1.000  C
  C174     1.0000 0.09883  0.71497  0.83817  Biso   1.000  C
  H87      1.0000 0.13003  0.74427  0.85817  Biso   1.000  H
  C175     1.0000 0.06233  0.65877  0.85887  Biso   1.000  C
  H88      1.0000 0.06863  0.65007  0.89297  Biso   1.000  H
  C176     1.0000 0.12503  0.78497  0.76927  Biso   1.000  C
  C177     1.0000 0.09959  0.80573  0.73137  Biso   1.000  C
  H89      1.0000 0.05993  0.78117  0.72067  Biso   1.000  H
  C178     1.0000 0.06053  0.84947  0.64827  Biso   1.000  C
  H90      1.0000 0.03473  0.81197  0.66277  Biso   1.000  H
  C179     1.0000 0.04209  0.86873  0.60477  Biso   1.000  C
  C180     1.0000 0.98243  0.82837  0.58327  Biso   1.000  C
  O61      1.0000 0.25103  0.39651  0.15741  Biso   1.000  O
  O62      1.0000 0.22509  0.34669  0.23063  Biso   1.000  O
  O63      1.0000 0.50697  0.38901  0.94590  Biso   1.000  O
  O64      1.0000 0.53444  0.36328  0.87116  Biso   1.000  O
  C181     1.0000 0.24760  0.35720  0.18780  Biso   1.000  C
  C182     1.0000 0.26564  0.31524  0.16360  Biso   1.000  C
  C183     1.0000 0.28480  0.32220  0.11580  Biso   1.000  C
  H91      1.0000 0.28590  0.35260  0.09510  Biso   1.000  H
  C184     1.0000 0.30260  0.28720  0.09660  Biso   1.000  C
  H92      1.0000 0.31500  0.29240  0.06170  Biso   1.000  H
  C185     1.0000 0.30390  0.24330  0.12440  Biso   1.000  C
  C186     1.0000 0.28280  0.23450  0.17150  Biso   1.000  C
  H93      1.0000 0.28090  0.20330  0.19150  Biso   1.000  H
  C187     1.0000 0.26310  0.27100  0.19220  Biso   1.000  C
  H94      1.0000 0.24810  0.26470  0.22630  Biso   1.000  H
  C188     1.0000 0.32660  0.20830  0.10260  Biso   1.000  C
  C189     1.0000 0.37280  0.23374  0.06470  Biso   1.000  C
  H95      1.0000 0.38790  0.27340  0.05400  Biso   1.000  H
  C190     1.0000 0.45560  0.27280  0.98160  Biso   1.000  C
  H96      1.0000 0.44390  0.29860  0.99610  Biso   1.000  H
  C191     1.0000 0.49330  0.29124  0.93810  Biso   1.000  C
  C192     1.0000 0.51260  0.35090  0.91660  Biso   1.000  C
  O65      1.0000 0.91770  0.72984  0.49074  Biso   1.000  O
  O66      1.0000 0.89176  0.68002  0.56396  Biso   1.000  O
  O67      1.0000 0.17364  0.72234  0.27923  Biso   1.000  O
  O68      1.0000 0.20111  0.69661  0.20449  Biso   1.000  O
  C193     1.0000 0.91427  0.69053  0.52113  Biso   1.000  C
  C194     1.0000 0.93231  0.64857  0.49693  Biso   1.000  C
  C195     1.0000 0.95147  0.65553  0.44913  Biso   1.000  C
  H97      1.0000 0.95257  0.68593  0.42843  Biso   1.000  H
  C196     1.0000 0.96927  0.62053  0.42993  Biso   1.000  C
  H98      1.0000 0.98167  0.62573  0.39503  Biso   1.000  H
  C197     1.0000 0.97057  0.57663  0.45773  Biso   1.000  C
  C198     1.0000 0.94947  0.56783  0.50483  Biso   1.000  C
  H99      1.0000 0.94757  0.53663  0.52483  Biso   1.000  H
  C199     1.0000 0.92977  0.60433  0.52553  Biso   1.000  C
  H100     1.0000 0.91477  0.59803  0.55963  Biso   1.000  H
  C200     1.0000 0.99327  0.54163  0.43593  Biso   1.000  C
  C201     1.0000 0.03947  0.56707  0.39803  Biso   1.000  C
  H101     1.0000 0.05457  0.60673  0.38733  Biso   1.000  H
  C202     1.0000 0.12227  0.60613  0.31493  Biso   1.000  C
  H102     1.0000 0.11057  0.63193  0.32943  Biso   1.000  H
  C203     1.0000 0.15997  0.62457  0.27143  Biso   1.000  C
  C204     1.0000 0.17927  0.68423  0.24993  Biso   1.000  C
  O69      1.0000 0.58436  0.06318  0.82408  Biso   1.000  O
  O70      1.0000 0.55842  0.01336  0.89730  Biso   1.000  O
  O71      1.0000 0.84030  0.05568  0.61257  Biso   1.000  O
  O72      1.0000 0.86777  0.02995  0.53783  Biso   1.000  O
  C205     1.0000 0.58093  0.02387  0.85447  Biso   1.000  C
  C206     1.0000 0.59897  0.98191  0.83027  Biso   1.000  C
  C207     1.0000 0.61813  0.98887  0.78247  Biso   1.000  C
  H103     1.0000 0.61923  0.01927  0.76177  Biso   1.000  H
  C208     1.0000 0.63593  0.95387  0.76327  Biso   1.000  C
  H104     1.0000 0.64833  0.95907  0.72837  Biso   1.000  H
  C209     1.0000 0.63723  0.90997  0.79107  Biso   1.000  C
  C210     1.0000 0.61613  0.90117  0.83817  Biso   1.000  C
  H105     1.0000 0.61423  0.86997  0.85817  Biso   1.000  H
  C211     1.0000 0.59643  0.93767  0.85887  Biso   1.000  C
  H106     1.0000 0.58143  0.93137  0.89297  Biso   1.000  H
  C212     1.0000 0.65993  0.87497  0.76927  Biso   1.000  C
  C213     1.0000 0.70613  0.90041  0.73137  Biso   1.000  C
  H107     1.0000 0.72123  0.94007  0.72067  Biso   1.000  H
  C214     1.0000 0.78893  0.93947  0.64827  Biso   1.000  C
  H108     1.0000 0.77723  0.96527  0.66277  Biso   1.000  H
  C215     1.0000 0.82663  0.95791  0.60477  Biso   1.000  C
  C216     1.0000 0.84593  0.01757  0.58327  Biso   1.000  C
  Cu1      1.0000 0.22750  0.77250  0.17367  Biso   1.000  Cu
  Cu2      1.0000 0.19787  0.80213  0.26203  Biso   1.000  Cu
  Cu3      1.0000 0.89417  0.10583  0.50700  Biso   1.000  Cu
  Cu4      1.0000 0.86454  0.13546  0.59536  Biso   1.000  Cu
  Cu5      1.0000 0.56084  0.43916  0.84034  Biso   1.000  Cu
  Cu6      1.0000 0.53121  0.46879  0.92870  Biso   1.000  Cu
  Cu7      1.0000 0.22750  0.45501  0.17367  Biso   1.000  Cu
  Cu8      1.0000 0.19787  0.39575  0.26203  Biso   1.000  Cu
  Cu9      1.0000 0.89417  0.78834  0.50700  Biso   1.000  Cu
  Cu10     1.0000 0.86454  0.72908  0.59536  Biso   1.000  Cu
  Cu11     1.0000 0.56084  0.12167  0.84034  Biso   1.000  Cu
  Cu12     1.0000 0.53121  0.06241  0.92870  Biso   1.000  Cu
  Cu13     1.0000 0.54499  0.77250  0.17367  Biso   1.000  Cu
  Cu14     1.0000 0.60425  0.80213  0.26203  Biso   1.000  Cu
  Cu15     1.0000 0.21166  0.10583  0.50700  Biso   1.000  Cu
  Cu16     1.0000 0.27092  0.13546  0.59536  Biso   1.000  Cu
  Cu17     1.0000 0.87833  0.43916  0.84034  Biso   1.000  Cu
  Cu18     1.0000 0.93759  0.46879  0.92870  Biso   1.000  Cu
  N1       1.0000 0.30740  0.15370  0.12260  Biso   1.000  N
  C217     1.0000 0.39650  0.19825  0.04280  Biso   1.000  C
  C218     1.0000 0.43570  0.21785  0.00330  Biso   1.000  C
  C219     1.0000 0.51060  0.25530  0.91340  Biso   1.000  C
  H109     1.0000 0.53250  0.26625  0.88230  Biso   1.000  H
  N2       1.0000 0.97407  0.48703  0.45593  Biso   1.000  N
  C220     1.0000 0.06317  0.53158  0.37613  Biso   1.000  C
  C221     1.0000 0.10237  0.55118  0.33663  Biso   1.000  C
  C222     1.0000 0.17727  0.58863  0.24673  Biso   1.000  C
  H110     1.0000 0.19917  0.59958  0.21563  Biso   1.000  H
  N3       1.0000 0.64073  0.82037  0.78927  Biso   1.000  N
  C223     1.0000 0.72983  0.86492  0.70947  Biso   1.000  C
  C224     1.0000 0.76903  0.88452  0.66997  Biso   1.000  C
  C225     1.0000 0.84393  0.92197  0.58007  Biso   1.000  C
  H111     1.0000 0.86583  0.93292  0.54897  Biso   1.000  H
  N4       1.0000 0.84630  0.15370  0.12260  Biso   1.000  N
  C226     1.0000 0.80175  0.19825  0.04280  Biso   1.000  C
  C227     1.0000 0.78215  0.21785  0.00330  Biso   1.000  C
  C228     1.0000 0.74470  0.25530  0.91340  Biso   1.000  C
  H112     1.0000 0.73375  0.26625  0.88230  Biso   1.000  H
  N5       1.0000 0.51297  0.48703  0.45593  Biso   1.000  N
  C229     1.0000 0.46842  0.53158  0.37613  Biso   1.000  C
  C230     1.0000 0.44882  0.55118  0.33663  Biso   1.000  C
  C231     1.0000 0.41137  0.58863  0.24673  Biso   1.000  C
  H113     1.0000 0.40042  0.59958  0.21563  Biso   1.000  H
  N6       1.0000 0.17963  0.82037  0.78927  Biso   1.000  N
  C232     1.0000 0.13508  0.86492  0.70947  Biso   1.000  C
  C233     1.0000 0.11548  0.88452  0.66997  Biso   1.000  C
  C234     1.0000 0.07803  0.92197  0.58007  Biso   1.000  C
  H114     1.0000 0.06708  0.93292  0.54897  Biso   1.000  H
  N7       1.0000 0.84630  0.69260  0.12260  Biso   1.000  N
  C235     1.0000 0.80175  0.60350  0.04280  Biso   1.000  C
  C236     1.0000 0.78215  0.56430  0.00330  Biso   1.000  C
  C237     1.0000 0.74470  0.48940  0.91340  Biso   1.000  C
  H115     1.0000 0.73375  0.46750  0.88230  Biso   1.000  H
  N8       1.0000 0.51297  0.02593  0.45593  Biso   1.000  N
  C238     1.0000 0.46842  0.93683  0.37613  Biso   1.000  C
  C239     1.0000 0.44882  0.89763  0.33663  Biso   1.000  C
  C240     1.0000 0.41137  0.82273  0.24673  Biso   1.000  C
  H116     1.0000 0.40042  0.80083  0.21563  Biso   1.000  H
  N9       1.0000 0.17963  0.35927  0.78927  Biso   1.000  N
  C241     1.0000 0.13508  0.27017  0.70947  Biso   1.000  C
  C242     1.0000 0.11548  0.23097  0.66997  Biso   1.000  C
  C243     1.0000 0.07803  0.15607  0.58007  Biso   1.000  C
  H117     1.0000 0.06708  0.13417  0.54897  Biso   1.000  H
