data_image0
_cell_length_a       26.2928
_cell_length_b       26.2928
_cell_length_c       26.036
_cell_angle_alpha    90
_cell_angle_beta     90
_cell_angle_gamma    120

_symmetry_space_group_name_H-M    "P 1"
_symmetry_int_tables_number       1

loop_
  _symmetry_equiv_pos_as_xyz
  'x, y, z'

loop_
  _atom_site_label
  _atom_site_occupancy
  _atom_site_fract_x
  _atom_site_fract_y
  _atom_site_fract_z
  _atom_site_thermal_displace_type
  _atom_site_B_iso_or_equiv
  _atom_site_type_symbol
  O1       1.0000 0.44130  0.45439  0.61024  Biso   1.000  O
  O2       1.0000 0.13230  0.16110  0.96781  Biso   1.000  O
  O3       1.0000 0.15880  0.21306  0.89508  Biso   1.000  O
  O4       1.0000 0.41600  0.47951  0.68316  Biso   1.000  O
  C1       1.0000 0.17380  0.13230  0.90220  Biso   1.000  C
  C2       1.0000 0.20820  0.14910  0.86030  Biso   1.000  C
  H1       1.0000 0.21850  0.18600  0.84550  Biso   1.000  H
  C3       1.0000 0.15320  0.17220  0.92330  Biso   1.000  C
  C4       1.0000 0.35920  0.31530  0.74170  Biso   1.000  C
  H2       1.0000 0.34440  0.30700  0.77580  Biso   1.000  H
  C5       1.0000 0.42100  0.44430  0.65420  Biso   1.000  C
  C6       1.0000 0.37760  0.37020  0.72360  Biso   1.000  C
  H3       1.0000 0.37350  0.39810  0.74380  Biso   1.000  H
  C7       1.0000 0.29550  0.19320  0.77400  Biso   1.000  C
  H4       1.0000 0.27960  0.21740  0.78320  Biso   1.000  H
  C8       1.0000 0.36020  0.27120  0.71560  Biso   1.000  C
  C9       1.0000 0.40600  0.34170  0.64860  Biso   1.000  C
  H5       1.0000 0.42370  0.35100  0.61560  Biso   1.000  H
  C10      1.0000 0.40160  0.38410  0.67630  Biso   1.000  C
  C11      1.0000 0.33910  0.21280  0.73870  Biso   1.000  C
  C12      1.0000 0.38510  0.28670  0.66830  Biso   1.000  C
  H6       1.0000 0.38810  0.25810  0.64820  Biso   1.000  H
  O5       1.0000 0.10797  0.78772  0.94357  Biso   1.000  O
  O6       1.0000 0.79897  0.49443  0.30114  Biso   1.000  O
  O7       1.0000 0.82547  0.54639  0.22841  Biso   1.000  O
  O8       1.0000 0.08267  0.81284  0.01649  Biso   1.000  O
  C13      1.0000 0.84047  0.46563  0.23553  Biso   1.000  C
  C14      1.0000 0.87487  0.48243  0.19363  Biso   1.000  C
  H7       1.0000 0.88517  0.51933  0.17883  Biso   1.000  H
  C15      1.0000 0.81987  0.50553  0.25663  Biso   1.000  C
  C16      1.0000 0.02587  0.64863  0.07503  Biso   1.000  C
  H8       1.0000 0.01107  0.64033  0.10913  Biso   1.000  H
  C17      1.0000 0.08767  0.77763  0.98753  Biso   1.000  C
  C18      1.0000 0.04427  0.70353  0.05693  Biso   1.000  C
  H9       1.0000 0.04017  0.73143  0.07713  Biso   1.000  H
  C19      1.0000 0.96217  0.52653  0.10733  Biso   1.000  C
  H10      1.0000 0.94627  0.55073  0.11653  Biso   1.000  H
  C20      1.0000 0.02687  0.60453  0.04893  Biso   1.000  C
  C21      1.0000 0.07267  0.67503  0.98193  Biso   1.000  C
  H11      1.0000 0.09037  0.68433  0.94893  Biso   1.000  H
  C22      1.0000 0.06827  0.71743  0.00963  Biso   1.000  C
  C23      1.0000 0.00577  0.54613  0.07203  Biso   1.000  C
  C24      1.0000 0.05177  0.62003  0.00163  Biso   1.000  C
  H12      1.0000 0.05477  0.59143  0.98153  Biso   1.000  H
  O9       1.0000 0.77463  0.12106  0.27691  Biso   1.000  O
  O10      1.0000 0.46563  0.82777  0.63448  Biso   1.000  O
  O11      1.0000 0.49213  0.87973  0.56175  Biso   1.000  O
  O12      1.0000 0.74933  0.14618  0.34983  Biso   1.000  O
  C25      1.0000 0.50713  0.79897  0.56887  Biso   1.000  C
  C26      1.0000 0.54153  0.81577  0.52697  Biso   1.000  C
  H13      1.0000 0.55183  0.85267  0.51217  Biso   1.000  H
  C27      1.0000 0.48653  0.83887  0.58997  Biso   1.000  C
  C28      1.0000 0.69253  0.98197  0.40837  Biso   1.000  C
  H14      1.0000 0.67773  0.97367  0.44247  Biso   1.000  H
  C29      1.0000 0.75433  0.11097  0.32087  Biso   1.000  C
  C30      1.0000 0.71093  0.03687  0.39027  Biso   1.000  C
  H15      1.0000 0.70683  0.06477  0.41047  Biso   1.000  H
  C31      1.0000 0.62883  0.85987  0.44067  Biso   1.000  C
  H16      1.0000 0.61293  0.88407  0.44987  Biso   1.000  H
  C32      1.0000 0.69353  0.93787  0.38227  Biso   1.000  C
  C33      1.0000 0.73933  0.00837  0.31527  Biso   1.000  C
  H17      1.0000 0.75703  0.01767  0.28227  Biso   1.000  H
  C34      1.0000 0.73493  0.05077  0.34297  Biso   1.000  C
  C35      1.0000 0.67243  0.87947  0.40537  Biso   1.000  C
  C36      1.0000 0.71843  0.95337  0.33497  Biso   1.000  C
  H18      1.0000 0.72143  0.92477  0.31487  Biso   1.000  H
  O13      1.0000 0.54561  0.98691  0.61024  Biso   1.000  O
  O14      1.0000 0.83890  0.97120  0.96781  Biso   1.000  O
  O15      1.0000 0.78694  0.94574  0.89508  Biso   1.000  O
  O16      1.0000 0.52049  0.93649  0.68316  Biso   1.000  O
  C37      1.0000 0.86770  0.04150  0.90220  Biso   1.000  C
  C38      1.0000 0.85090  0.05910  0.86030  Biso   1.000  C
  H19      1.0000 0.81400  0.03250  0.84550  Biso   1.000  H
  C39      1.0000 0.82780  0.98100  0.92330  Biso   1.000  C
  C40      1.0000 0.68470  0.04390  0.74170  Biso   1.000  C
  H20      1.0000 0.69300  0.03740  0.77580  Biso   1.000  H
  C41      1.0000 0.55570  0.97670  0.65420  Biso   1.000  C
  C42      1.0000 0.62980  0.00740  0.72360  Biso   1.000  C
  H21      1.0000 0.60190  0.97540  0.74380  Biso   1.000  H
  C43      1.0000 0.80680  0.10230  0.77400  Biso   1.000  C
  H22      1.0000 0.78260  0.06220  0.78320  Biso   1.000  H
  C44      1.0000 0.72880  0.08900  0.71560  Biso   1.000  C
  C45      1.0000 0.65830  0.06430  0.64860  Biso   1.000  C
  H23      1.0000 0.64900  0.07270  0.61560  Biso   1.000  H
  C46      1.0000 0.61590  0.01750  0.67630  Biso   1.000  C
  C47      1.0000 0.78720  0.12630  0.73870  Biso   1.000  C
  C48      1.0000 0.71330  0.09840  0.66830  Biso   1.000  C
  H24      1.0000 0.74190  0.13000  0.64820  Biso   1.000  H
  O17      1.0000 0.21228  0.32024  0.94357  Biso   1.000  O
  O18      1.0000 0.50557  0.30453  0.30114  Biso   1.000  O
  O19      1.0000 0.45361  0.27907  0.22841  Biso   1.000  O
  O20      1.0000 0.18716  0.26982  0.01649  Biso   1.000  O
  C49      1.0000 0.53437  0.37483  0.23553  Biso   1.000  C
  C50      1.0000 0.51757  0.39243  0.19363  Biso   1.000  C
  H25      1.0000 0.48067  0.36583  0.17883  Biso   1.000  H
  C51      1.0000 0.49447  0.31433  0.25663  Biso   1.000  C
  C52      1.0000 0.35137  0.37723  0.07503  Biso   1.000  C
  H26      1.0000 0.35967  0.37073  0.10913  Biso   1.000  H
  C53      1.0000 0.22237  0.31003  0.98753  Biso   1.000  C
  C54      1.0000 0.29647  0.34073  0.05693  Biso   1.000  C
  H27      1.0000 0.26857  0.30873  0.07713  Biso   1.000  H
  C55      1.0000 0.47347  0.43563  0.10733  Biso   1.000  C
  H28      1.0000 0.44927  0.39553  0.11653  Biso   1.000  H
  C56      1.0000 0.39547  0.42233  0.04893  Biso   1.000  C
  C57      1.0000 0.32497  0.39763  0.98193  Biso   1.000  C
  H29      1.0000 0.31567  0.40603  0.94893  Biso   1.000  H
  C58      1.0000 0.28257  0.35083  0.00963  Biso   1.000  C
  C59      1.0000 0.45387  0.45963  0.07203  Biso   1.000  C
  C60      1.0000 0.37997  0.43173  0.00163  Biso   1.000  C
  H30      1.0000 0.40857  0.46333  0.98153  Biso   1.000  H
  O21      1.0000 0.87894  0.65358  0.27691  Biso   1.000  O
  O22      1.0000 0.17223  0.63787  0.63448  Biso   1.000  O
  O23      1.0000 0.12027  0.61241  0.56175  Biso   1.000  O
  O24      1.0000 0.85382  0.60316  0.34983  Biso   1.000  O
  C61      1.0000 0.20103  0.70817  0.56887  Biso   1.000  C
  C62      1.0000 0.18423  0.72577  0.52697  Biso   1.000  C
  H31      1.0000 0.14733  0.69917  0.51217  Biso   1.000  H
  C63      1.0000 0.16113  0.64767  0.58997  Biso   1.000  C
  C64      1.0000 0.01803  0.71057  0.40837  Biso   1.000  C
  H32      1.0000 0.02633  0.70407  0.44247  Biso   1.000  H
  C65      1.0000 0.88903  0.64337  0.32087  Biso   1.000  C
  C66      1.0000 0.96313  0.67407  0.39027  Biso   1.000  C
  H33      1.0000 0.93523  0.64207  0.41047  Biso   1.000  H
  C67      1.0000 0.14013  0.76897  0.44067  Biso   1.000  C
  H34      1.0000 0.11593  0.72887  0.44987  Biso   1.000  H
  C68      1.0000 0.06213  0.75567  0.38227  Biso   1.000  C
  C69      1.0000 0.99163  0.73097  0.31527  Biso   1.000  C
  H35      1.0000 0.98233  0.73937  0.28227  Biso   1.000  H
  C70      1.0000 0.94923  0.68417  0.34297  Biso   1.000  C
  C71      1.0000 0.12053  0.79297  0.40537  Biso   1.000  C
  C72      1.0000 0.04663  0.76507  0.33497  Biso   1.000  C
  H36      1.0000 0.07523  0.79667  0.31487  Biso   1.000  H
  O25      1.0000 0.01309  0.55870  0.61024  Biso   1.000  O
  O26      1.0000 0.02880  0.86770  0.96781  Biso   1.000  O
  O27      1.0000 0.05426  0.84120  0.89508  Biso   1.000  O
  O28      1.0000 0.06351  0.58400  0.68316  Biso   1.000  O
  C73      1.0000 0.95850  0.82620  0.90220  Biso   1.000  C
  C74      1.0000 0.94090  0.79180  0.86030  Biso   1.000  C
  H37      1.0000 0.96750  0.78150  0.84550  Biso   1.000  H
  C75      1.0000 0.01900  0.84680  0.92330  Biso   1.000  C
  C76      1.0000 0.95610  0.64080  0.74170  Biso   1.000  C
  H38      1.0000 0.96260  0.65560  0.77580  Biso   1.000  H
  C77      1.0000 0.02330  0.57900  0.65420  Biso   1.000  C
  C78      1.0000 0.99260  0.62240  0.72360  Biso   1.000  C
  H39      1.0000 0.02460  0.62650  0.74380  Biso   1.000  H
  C79      1.0000 0.89770  0.70450  0.77400  Biso   1.000  C
  H40      1.0000 0.93780  0.72040  0.78320  Biso   1.000  H
  C80      1.0000 0.91100  0.63980  0.71560  Biso   1.000  C
  C81      1.0000 0.93570  0.59400  0.64860  Biso   1.000  C
  H41      1.0000 0.92730  0.57630  0.61560  Biso   1.000  H
  C82      1.0000 0.98250  0.59840  0.67630  Biso   1.000  C
  C83      1.0000 0.87370  0.66090  0.73870  Biso   1.000  C
  C84      1.0000 0.90160  0.61490  0.66830  Biso   1.000  C
  H42      1.0000 0.87000  0.61190  0.64820  Biso   1.000  H
  O29      1.0000 0.67976  0.89203  0.94357  Biso   1.000  O
  O30      1.0000 0.69547  0.20103  0.30114  Biso   1.000  O
  O31      1.0000 0.72093  0.17453  0.22841  Biso   1.000  O
  O32      1.0000 0.73018  0.91733  0.01649  Biso   1.000  O
  C85      1.0000 0.62517  0.15953  0.23553  Biso   1.000  C
  C86      1.0000 0.60757  0.12513  0.19363  Biso   1.000  C
  H43      1.0000 0.63417  0.11483  0.17883  Biso   1.000  H
  C87      1.0000 0.68567  0.18013  0.25663  Biso   1.000  C
  C88      1.0000 0.62277  0.97413  0.07503  Biso   1.000  C
  H44      1.0000 0.62927  0.98893  0.10913  Biso   1.000  H
  C89      1.0000 0.68997  0.91233  0.98753  Biso   1.000  C
  C90      1.0000 0.65927  0.95573  0.05693  Biso   1.000  C
  H45      1.0000 0.69127  0.95983  0.07713  Biso   1.000  H
  C91      1.0000 0.56437  0.03783  0.10733  Biso   1.000  C
  H46      1.0000 0.60447  0.05373  0.11653  Biso   1.000  H
  C92      1.0000 0.57767  0.97313  0.04893  Biso   1.000  C
  C93      1.0000 0.60237  0.92733  0.98193  Biso   1.000  C
  H47      1.0000 0.59397  0.90963  0.94893  Biso   1.000  H
  C94      1.0000 0.64917  0.93173  0.00963  Biso   1.000  C
  C95      1.0000 0.54037  0.99423  0.07203  Biso   1.000  C
  C96      1.0000 0.56827  0.94823  0.00163  Biso   1.000  C
  H48      1.0000 0.53667  0.94523  0.98153  Biso   1.000  H
  O33      1.0000 0.34642  0.22537  0.27691  Biso   1.000  O
  O34      1.0000 0.36213  0.53437  0.63448  Biso   1.000  O
  O35      1.0000 0.38759  0.50787  0.56175  Biso   1.000  O
  O36      1.0000 0.39684  0.25067  0.34983  Biso   1.000  O
  C97      1.0000 0.29183  0.49287  0.56887  Biso   1.000  C
  C98      1.0000 0.27423  0.45847  0.52697  Biso   1.000  C
  H49      1.0000 0.30083  0.44817  0.51217  Biso   1.000  H
  C99      1.0000 0.35233  0.51347  0.58997  Biso   1.000  C
  C100     1.0000 0.28943  0.30747  0.40837  Biso   1.000  C
  H50      1.0000 0.29593  0.32227  0.44247  Biso   1.000  H
  C101     1.0000 0.35663  0.24567  0.32087  Biso   1.000  C
  C102     1.0000 0.32593  0.28907  0.39027  Biso   1.000  C
  H51      1.0000 0.35793  0.29317  0.41047  Biso   1.000  H
  C103     1.0000 0.23103  0.37117  0.44067  Biso   1.000  C
  H52      1.0000 0.27113  0.38707  0.44987  Biso   1.000  H
  C104     1.0000 0.24433  0.30647  0.38227  Biso   1.000  C
  C105     1.0000 0.26903  0.26067  0.31527  Biso   1.000  C
  H53      1.0000 0.26063  0.24297  0.28227  Biso   1.000  H
  C106     1.0000 0.31583  0.26507  0.34297  Biso   1.000  C
  C107     1.0000 0.20703  0.32757  0.40537  Biso   1.000  C
  C108     1.0000 0.23493  0.28157  0.33497  Biso   1.000  C
  H54      1.0000 0.20333  0.27857  0.31487  Biso   1.000  H
  O37      1.0000 0.54561  0.55870  0.61024  Biso   1.000  O
  O38      1.0000 0.83890  0.86770  0.96781  Biso   1.000  O
  O39      1.0000 0.78694  0.84120  0.89508  Biso   1.000  O
  O40      1.0000 0.52049  0.58400  0.68316  Biso   1.000  O
  C109     1.0000 0.86770  0.82620  0.90220  Biso   1.000  C
  C110     1.0000 0.85090  0.79180  0.86030  Biso   1.000  C
  H55      1.0000 0.81400  0.78150  0.84550  Biso   1.000  H
  C111     1.0000 0.82780  0.84680  0.92330  Biso   1.000  C
  C112     1.0000 0.68470  0.64080  0.74170  Biso   1.000  C
  H56      1.0000 0.69300  0.65560  0.77580  Biso   1.000  H
  C113     1.0000 0.55570  0.57900  0.65420  Biso   1.000  C
  C114     1.0000 0.62980  0.62240  0.72360  Biso   1.000  C
  H57      1.0000 0.60190  0.62650  0.74380  Biso   1.000  H
  C115     1.0000 0.80680  0.70450  0.77400  Biso   1.000  C
  H58      1.0000 0.78260  0.72040  0.78320  Biso   1.000  H
  C116     1.0000 0.72880  0.63980  0.71560  Biso   1.000  C
  C117     1.0000 0.65830  0.59400  0.64860  Biso   1.000  C
  H59      1.0000 0.64900  0.57630  0.61560  Biso   1.000  H
  C118     1.0000 0.61590  0.59840  0.67630  Biso   1.000  C
  C119     1.0000 0.78720  0.66090  0.73870  Biso   1.000  C
  C120     1.0000 0.71330  0.61490  0.66830  Biso   1.000  C
  H60      1.0000 0.74190  0.61190  0.64820  Biso   1.000  H
  O41      1.0000 0.21228  0.89203  0.94357  Biso   1.000  O
  O42      1.0000 0.50557  0.20103  0.30114  Biso   1.000  O
  O43      1.0000 0.45361  0.17453  0.22841  Biso   1.000  O
  O44      1.0000 0.18716  0.91733  0.01649  Biso   1.000  O
  C121     1.0000 0.53437  0.15953  0.23553  Biso   1.000  C
  C122     1.0000 0.51757  0.12513  0.19363  Biso   1.000  C
  H61      1.0000 0.48067  0.11483  0.17883  Biso   1.000  H
  C123     1.0000 0.49447  0.18013  0.25663  Biso   1.000  C
  C124     1.0000 0.35137  0.97413  0.07503  Biso   1.000  C
  H62      1.0000 0.35967  0.98893  0.10913  Biso   1.000  H
  C125     1.0000 0.22237  0.91233  0.98753  Biso   1.000  C
  C126     1.0000 0.29647  0.95573  0.05693  Biso   1.000  C
  H63      1.0000 0.26857  0.95983  0.07713  Biso   1.000  H
  C127     1.0000 0.47347  0.03783  0.10733  Biso   1.000  C
  H64      1.0000 0.44927  0.05373  0.11653  Biso   1.000  H
  C128     1.0000 0.39547  0.97313  0.04893  Biso   1.000  C
  C129     1.0000 0.32497  0.92733  0.98193  Biso   1.000  C
  H65      1.0000 0.31567  0.90963  0.94893  Biso   1.000  H
  C130     1.0000 0.28257  0.93173  0.00963  Biso   1.000  C
  C131     1.0000 0.45387  0.99423  0.07203  Biso   1.000  C
  C132     1.0000 0.37997  0.94823  0.00163  Biso   1.000  C
  H66      1.0000 0.40857  0.94523  0.98153  Biso   1.000  H
  O45      1.0000 0.87894  0.22537  0.27691  Biso   1.000  O
  O46      1.0000 0.17223  0.53437  0.63448  Biso   1.000  O
  O47      1.0000 0.12027  0.50787  0.56175  Biso   1.000  O
  O48      1.0000 0.85382  0.25067  0.34983  Biso   1.000  O
  C133     1.0000 0.20103  0.49287  0.56887  Biso   1.000  C
  C134     1.0000 0.18423  0.45847  0.52697  Biso   1.000  C
  H67      1.0000 0.14733  0.44817  0.51217  Biso   1.000  H
  C135     1.0000 0.16113  0.51347  0.58997  Biso   1.000  C
  C136     1.0000 0.01803  0.30747  0.40837  Biso   1.000  C
  H68      1.0000 0.02633  0.32227  0.44247  Biso   1.000  H
  C137     1.0000 0.88903  0.24567  0.32087  Biso   1.000  C
  C138     1.0000 0.96313  0.28907  0.39027  Biso   1.000  C
  H69      1.0000 0.93523  0.29317  0.41047  Biso   1.000  H
  C139     1.0000 0.14013  0.37117  0.44067  Biso   1.000  C
  H70      1.0000 0.11593  0.38707  0.44987  Biso   1.000  H
  C140     1.0000 0.06213  0.30647  0.38227  Biso   1.000  C
  C141     1.0000 0.99163  0.26067  0.31527  Biso   1.000  C
  H71      1.0000 0.98233  0.24297  0.28227  Biso   1.000  H
  C142     1.0000 0.94923  0.26507  0.34297  Biso   1.000  C
  C143     1.0000 0.12053  0.32757  0.40537  Biso   1.000  C
  C144     1.0000 0.04663  0.28157  0.33497  Biso   1.000  C
  H72      1.0000 0.07523  0.27857  0.31487  Biso   1.000  H
  O49      1.0000 0.01309  0.45439  0.61024  Biso   1.000  O
  O50      1.0000 0.02880  0.16110  0.96781  Biso   1.000  O
  O51      1.0000 0.05426  0.21306  0.89508  Biso   1.000  O
  O52      1.0000 0.06351  0.47951  0.68316  Biso   1.000  O
  C145     1.0000 0.95850  0.13230  0.90220  Biso   1.000  C
  C146     1.0000 0.94090  0.14910  0.86030  Biso   1.000  C
  H73      1.0000 0.96750  0.18600  0.84550  Biso   1.000  H
  C147     1.0000 0.01900  0.17220  0.92330  Biso   1.000  C
  C148     1.0000 0.95610  0.31530  0.74170  Biso   1.000  C
  H74      1.0000 0.96260  0.30700  0.77580  Biso   1.000  H
  C149     1.0000 0.02330  0.44430  0.65420  Biso   1.000  C
  C150     1.0000 0.99260  0.37020  0.72360  Biso   1.000  C
  H75      1.0000 0.02460  0.39810  0.74380  Biso   1.000  H
  C151     1.0000 0.89770  0.19320  0.77400  Biso   1.000  C
  H76      1.0000 0.93780  0.21740  0.78320  Biso   1.000  H
  C152     1.0000 0.91100  0.27120  0.71560  Biso   1.000  C
  C153     1.0000 0.93570  0.34170  0.64860  Biso   1.000  C
  H77      1.0000 0.92730  0.35100  0.61560  Biso   1.000  H
  C154     1.0000 0.98250  0.38410  0.67630  Biso   1.000  C
  C155     1.0000 0.87370  0.21280  0.73870  Biso   1.000  C
  C156     1.0000 0.90160  0.28670  0.66830  Biso   1.000  C
  H78      1.0000 0.87000  0.25810  0.64820  Biso   1.000  H
  O53      1.0000 0.67976  0.78772  0.94357  Biso   1.000  O
  O54      1.0000 0.69547  0.49443  0.30114  Biso   1.000  O
  O55      1.0000 0.72093  0.54639  0.22841  Biso   1.000  O
  O56      1.0000 0.73018  0.81284  0.01649  Biso   1.000  O
  C157     1.0000 0.62517  0.46563  0.23553  Biso   1.000  C
  C158     1.0000 0.60757  0.48243  0.19363  Biso   1.000  C
  H79      1.0000 0.63417  0.51933  0.17883  Biso   1.000  H
  C159     1.0000 0.68567  0.50553  0.25663  Biso   1.000  C
  C160     1.0000 0.62277  0.64863  0.07503  Biso   1.000  C
  H80      1.0000 0.62927  0.64033  0.10913  Biso   1.000  H
  C161     1.0000 0.68997  0.77763  0.98753  Biso   1.000  C
  C162     1.0000 0.65927  0.70353  0.05693  Biso   1.000  C
  H81      1.0000 0.69127  0.73143  0.07713  Biso   1.000  H
  C163     1.0000 0.56437  0.52653  0.10733  Biso   1.000  C
  H82      1.0000 0.60447  0.55073  0.11653  Biso   1.000  H
  C164     1.0000 0.57767  0.60453  0.04893  Biso   1.000  C
  C165     1.0000 0.60237  0.67503  0.98193  Biso   1.000  C
  H83      1.0000 0.59397  0.68433  0.94893  Biso   1.000  H
  C166     1.0000 0.64917  0.71743  0.00963  Biso   1.000  C
  C167     1.0000 0.54037  0.54613  0.07203  Biso   1.000  C
  C168     1.0000 0.56827  0.62003  0.00163  Biso   1.000  C
  H84      1.0000 0.53667  0.59143  0.98153  Biso   1.000  H
  O57      1.0000 0.34642  0.12106  0.27691  Biso   1.000  O
  O58      1.0000 0.36213  0.82777  0.63448  Biso   1.000  O
  O59      1.0000 0.38759  0.87973  0.56175  Biso   1.000  O
  O60      1.0000 0.39684  0.14618  0.34983  Biso   1.000  O
  C169     1.0000 0.29183  0.79897  0.56887  Biso   1.000  C
  C170     1.0000 0.27423  0.81577  0.52697  Biso   1.000  C
  H85      1.0000 0.30083  0.85267  0.51217  Biso   1.000  H
  C171     1.0000 0.35233  0.83887  0.58997  Biso   1.000  C
  C172     1.0000 0.28943  0.98197  0.40837  Biso   1.000  C
  H86      1.0000 0.29593  0.97367  0.44247  Biso   1.000  H
  C173     1.0000 0.35663  0.11097  0.32087  Biso   1.000  C
  C174     1.0000 0.32593  0.03687  0.39027  Biso   1.000  C
  H87      1.0000 0.35793  0.06477  0.41047  Biso   1.000  H
  C175     1.0000 0.23103  0.85987  0.44067  Biso   1.000  C
  H88      1.0000 0.27113  0.88407  0.44987  Biso   1.000  H
  C176     1.0000 0.24433  0.93787  0.38227  Biso   1.000  C
  C177     1.0000 0.26903  0.00837  0.31527  Biso   1.000  C
  H89      1.0000 0.26063  0.01767  0.28227  Biso   1.000  H
  C178     1.0000 0.31583  0.05077  0.34297  Biso   1.000  C
  C179     1.0000 0.20703  0.87947  0.40537  Biso   1.000  C
  C180     1.0000 0.23493  0.95337  0.33497  Biso   1.000  C
  H90      1.0000 0.20333  0.92477  0.31487  Biso   1.000  H
  O61      1.0000 0.44130  0.98691  0.61024  Biso   1.000  O
  O62      1.0000 0.13230  0.97120  0.96781  Biso   1.000  O
  O63      1.0000 0.15880  0.94574  0.89508  Biso   1.000  O
  O64      1.0000 0.41600  0.93649  0.68316  Biso   1.000  O
  C181     1.0000 0.17380  0.04150  0.90220  Biso   1.000  C
  C182     1.0000 0.20820  0.05910  0.86030  Biso   1.000  C
  H91      1.0000 0.21850  0.03250  0.84550  Biso   1.000  H
  C183     1.0000 0.15320  0.98100  0.92330  Biso   1.000  C
  C184     1.0000 0.35920  0.04390  0.74170  Biso   1.000  C
  H92      1.0000 0.34440  0.03740  0.77580  Biso   1.000  H
  C185     1.0000 0.42100  0.97670  0.65420  Biso   1.000  C
  C186     1.0000 0.37760  0.00740  0.72360  Biso   1.000  C
  H93      1.0000 0.37350  0.97540  0.74380  Biso   1.000  H
  C187     1.0000 0.29550  0.10230  0.77400  Biso   1.000  C
  H94      1.0000 0.27960  0.06220  0.78320  Biso   1.000  H
  C188     1.0000 0.36020  0.08900  0.71560  Biso   1.000  C
  C189     1.0000 0.40600  0.06430  0.64860  Biso   1.000  C
  H95      1.0000 0.42370  0.07270  0.61560  Biso   1.000  H
  C190     1.0000 0.40160  0.01750  0.67630  Biso   1.000  C
  C191     1.0000 0.33910  0.12630  0.73870  Biso   1.000  C
  C192     1.0000 0.38510  0.09840  0.66830  Biso   1.000  C
  H96      1.0000 0.38810  0.13000  0.64820  Biso   1.000  H
  O65      1.0000 0.10797  0.32024  0.94357  Biso   1.000  O
  O66      1.0000 0.79897  0.30453  0.30114  Biso   1.000  O
  O67      1.0000 0.82547  0.27907  0.22841  Biso   1.000  O
  O68      1.0000 0.08267  0.26982  0.01649  Biso   1.000  O
  C193     1.0000 0.84047  0.37483  0.23553  Biso   1.000  C
  C194     1.0000 0.87487  0.39243  0.19363  Biso   1.000  C
  H97      1.0000 0.88517  0.36583  0.17883  Biso   1.000  H
  C195     1.0000 0.81987  0.31433  0.25663  Biso   1.000  C
  C196     1.0000 0.02587  0.37723  0.07503  Biso   1.000  C
  H98      1.0000 0.01107  0.37073  0.10913  Biso   1.000  H
  C197     1.0000 0.08767  0.31003  0.98753  Biso   1.000  C
  C198     1.0000 0.04427  0.34073  0.05693  Biso   1.000  C
  H99      1.0000 0.04017  0.30873  0.07713  Biso   1.000  H
  C199     1.0000 0.96217  0.43563  0.10733  Biso   1.000  C
  H100     1.0000 0.94627  0.39553  0.11653  Biso   1.000  H
  C200     1.0000 0.02687  0.42233  0.04893  Biso   1.000  C
  C201     1.0000 0.07267  0.39763  0.98193  Biso   1.000  C
  H101     1.0000 0.09037  0.40603  0.94893  Biso   1.000  H
  C202     1.0000 0.06827  0.35083  0.00963  Biso   1.000  C
  C203     1.0000 0.00577  0.45963  0.07203  Biso   1.000  C
  C204     1.0000 0.05177  0.43173  0.00163  Biso   1.000  C
  H102     1.0000 0.05477  0.46333  0.98153  Biso   1.000  H
  O69      1.0000 0.77463  0.65358  0.27691  Biso   1.000  O
  O70      1.0000 0.46563  0.63787  0.63448  Biso   1.000  O
  O71      1.0000 0.49213  0.61241  0.56175  Biso   1.000  O
  O72      1.0000 0.74933  0.60316  0.34983  Biso   1.000  O
  C205     1.0000 0.50713  0.70817  0.56887  Biso   1.000  C
  C206     1.0000 0.54153  0.72577  0.52697  Biso   1.000  C
  H103     1.0000 0.55183  0.69917  0.51217  Biso   1.000  H
  C207     1.0000 0.48653  0.64767  0.58997  Biso   1.000  C
  C208     1.0000 0.69253  0.71057  0.40837  Biso   1.000  C
  H104     1.0000 0.67773  0.70407  0.44247  Biso   1.000  H
  C209     1.0000 0.75433  0.64337  0.32087  Biso   1.000  C
  C210     1.0000 0.71093  0.67407  0.39027  Biso   1.000  C
  H105     1.0000 0.70683  0.64207  0.41047  Biso   1.000  H
  C211     1.0000 0.62883  0.76897  0.44067  Biso   1.000  C
  H106     1.0000 0.61293  0.72887  0.44987  Biso   1.000  H
  C212     1.0000 0.69353  0.75567  0.38227  Biso   1.000  C
  C213     1.0000 0.73933  0.73097  0.31527  Biso   1.000  C
  H107     1.0000 0.75703  0.73937  0.28227  Biso   1.000  H
  C214     1.0000 0.73493  0.68417  0.34297  Biso   1.000  C
  C215     1.0000 0.67243  0.79297  0.40537  Biso   1.000  C
  C216     1.0000 0.71843  0.76507  0.33497  Biso   1.000  C
  H108     1.0000 0.72143  0.79667  0.31487  Biso   1.000  H
  Cu1      1.0000 0.43931  0.56069  0.66675  Biso   1.000  Cu
  Cu2      1.0000 0.46866  0.53134  0.57881  Biso   1.000  Cu
  Cu3      1.0000 0.10597  0.89403  0.00008  Biso   1.000  Cu
  Cu4      1.0000 0.13532  0.86468  0.91214  Biso   1.000  Cu
  Cu5      1.0000 0.77264  0.22736  0.33342  Biso   1.000  Cu
  Cu6      1.0000 0.80199  0.19801  0.24548  Biso   1.000  Cu
  Cu7      1.0000 0.43931  0.87861  0.66675  Biso   1.000  Cu
  Cu8      1.0000 0.46866  0.93731  0.57881  Biso   1.000  Cu
  Cu9      1.0000 0.10597  0.21195  0.00008  Biso   1.000  Cu
  Cu10     1.0000 0.13532  0.27065  0.91214  Biso   1.000  Cu
  Cu11     1.0000 0.77264  0.54528  0.33342  Biso   1.000  Cu
  Cu12     1.0000 0.80199  0.60398  0.24548  Biso   1.000  Cu
  Cu13     1.0000 0.12139  0.56069  0.66675  Biso   1.000  Cu
  Cu14     1.0000 0.06269  0.53134  0.57881  Biso   1.000  Cu
  Cu15     1.0000 0.78805  0.89403  0.00008  Biso   1.000  Cu
  Cu16     1.0000 0.72935  0.86468  0.91214  Biso   1.000  Cu
  Cu17     1.0000 0.45472  0.22736  0.33342  Biso   1.000  Cu
  Cu18     1.0000 0.39602  0.19801  0.24548  Biso   1.000  Cu
  C217     1.0000 0.15580  0.07790  0.92440  Biso   1.000  C
  H109     1.0000 0.13160  0.06580  0.95410  Biso   1.000  H
  C218     1.0000 0.23020  0.11510  0.83650  Biso   1.000  C
  N1       1.0000 0.35980  0.17990  0.71950  Biso   1.000  N
  C219     1.0000 0.27240  0.13620  0.79800  Biso   1.000  C
  C220     1.0000 0.82247  0.41123  0.25773  Biso   1.000  C
  H110     1.0000 0.79827  0.39913  0.28743  Biso   1.000  H
  C221     1.0000 0.89687  0.44843  0.16983  Biso   1.000  C
  N2       1.0000 0.02647  0.51323  0.05283  Biso   1.000  N
  C222     1.0000 0.93907  0.46953  0.13133  Biso   1.000  C
  C223     1.0000 0.48913  0.74457  0.59107  Biso   1.000  C
  H111     1.0000 0.46493  0.73247  0.62077  Biso   1.000  H
  C224     1.0000 0.56353  0.78177  0.50317  Biso   1.000  C
  N3       1.0000 0.69313  0.84657  0.38617  Biso   1.000  N
  C225     1.0000 0.60573  0.80287  0.46467  Biso   1.000  C
  C226     1.0000 0.92210  0.07790  0.92440  Biso   1.000  C
  H112     1.0000 0.93420  0.06580  0.95410  Biso   1.000  H
  C227     1.0000 0.88490  0.11510  0.83650  Biso   1.000  C
  N4       1.0000 0.82010  0.17990  0.71950  Biso   1.000  N
  C228     1.0000 0.86380  0.13620  0.79800  Biso   1.000  C
  C229     1.0000 0.58877  0.41123  0.25773  Biso   1.000  C
  H113     1.0000 0.60087  0.39913  0.28743  Biso   1.000  H
  C230     1.0000 0.55157  0.44843  0.16983  Biso   1.000  C
  N5       1.0000 0.48677  0.51323  0.05283  Biso   1.000  N
  C231     1.0000 0.53047  0.46953  0.13133  Biso   1.000  C
  C232     1.0000 0.25543  0.74457  0.59107  Biso   1.000  C
  H114     1.0000 0.26753  0.73247  0.62077  Biso   1.000  H
  C233     1.0000 0.21823  0.78177  0.50317  Biso   1.000  C
  N6       1.0000 0.15343  0.84657  0.38617  Biso   1.000  N
  C234     1.0000 0.19713  0.80287  0.46467  Biso   1.000  C
  C235     1.0000 0.92210  0.84420  0.92440  Biso   1.000  C
  H115     1.0000 0.93420  0.86840  0.95410  Biso   1.000  H
  C236     1.0000 0.88490  0.76980  0.83650  Biso   1.000  C
  N7       1.0000 0.82010  0.64020  0.71950  Biso   1.000  N
  C237     1.0000 0.86380  0.72760  0.79800  Biso   1.000  C
  C238     1.0000 0.58877  0.17753  0.25773  Biso   1.000  C
  H116     1.0000 0.60087  0.20173  0.28743  Biso   1.000  H
  C239     1.0000 0.55157  0.10313  0.16983  Biso   1.000  C
  N8       1.0000 0.48677  0.97353  0.05283  Biso   1.000  N
  C240     1.0000 0.53047  0.06093  0.13133  Biso   1.000  C
  C241     1.0000 0.25543  0.51087  0.59107  Biso   1.000  C
  H117     1.0000 0.26753  0.53507  0.62077  Biso   1.000  H
  C242     1.0000 0.21823  0.43647  0.50317  Biso   1.000  C
  N9       1.0000 0.15343  0.30687  0.38617  Biso   1.000  N
  C243     1.0000 0.19713  0.39427  0.46467  Biso   1.000  C
