data_ENISUQ_clean
_audit_creation_date              2014-07-02
_audit_creation_method            'Materials Studio'
_symmetry_space_group_name_H-M    'P1'
_symmetry_Int_Tables_number       1
_symmetry_cell_setting            triclinic
loop_
_symmetry_equiv_pos_as_xyz
  x,y,z
_cell_length_a                    13.8820
_cell_length_b                    14.7312
_cell_length_c                    14.7312
_cell_angle_alpha                 77.9290
_cell_angle_beta                  63.4177
_cell_angle_gamma                 116.5820
loop_
_atom_site_label
_atom_site_type_symbol
_atom_site_fract_x
_atom_site_fract_y
_atom_site_fract_z
_atom_site_U_iso_or_equiv
_atom_site_adp_type
_atom_site_occupancy
Mn1    Mn    0.75000   0.43520   0.93520   0.01267  Uiso   1.00
Mn2    Mn    0.25000   0.56480   0.06480   0.01267  Uiso   1.00
Mn3    Mn    0.00000   0.50000   0.00000   0.01267  Uiso   1.00
Mn4    Mn    0.50000   0.50000   0.00000   0.01267  Uiso   1.00
Si1    Si    0.25000   0.20308   0.70308   0.01267  Uiso   1.00
Si2    Si    0.75000   0.79692   0.29692   0.01267  Uiso   1.00
H1     H     0.10190   0.02970   0.65710   0.01267  Uiso   1.00
H2     H     0.98640   0.82850   0.72950   0.01267  Uiso   1.00
H3     H     0.04640   0.80140   0.97460   0.01267  Uiso   1.00
H4     H     0.16160   0.00220   0.90220   0.01267  Uiso   1.00
H5     H     0.28560   0.41220   0.70480   0.01267  Uiso   1.00
H6     H     0.14740   0.46700   0.77820   0.01267  Uiso   1.00
H7     H     0.81600   0.14590   0.89750   0.01267  Uiso   1.00
H8     H     0.95530   0.09060   0.82500   0.01267  Uiso   1.00
H9     H     0.39810   0.15710   0.52970   0.01267  Uiso   1.00
H10    H     0.51360   0.22950   0.32850   0.01267  Uiso   1.00
H11    H     0.45360   0.47460   0.30140   0.01267  Uiso   1.00
H12    H     0.33840   0.40220   0.50220   0.01267  Uiso   1.00
H13    H     0.21440   0.20480   0.91220   0.01267  Uiso   1.00
H14    H     0.35260   0.27820   0.96700   0.01267  Uiso   1.00
H15    H     0.68400   0.39750   0.64590   0.01267  Uiso   1.00
H16    H     0.54470   0.32500   0.59060   0.01267  Uiso   1.00
H17    H     0.89810   0.97030   0.34290   0.01267  Uiso   1.00
H18    H     0.01360   0.17150   0.27050   0.01267  Uiso   1.00
H19    H     0.95360   0.19860   0.02540   0.01267  Uiso   1.00
H20    H     0.83840   0.99780   0.09780   0.01267  Uiso   1.00
H21    H     0.71440   0.58780   0.29520   0.01267  Uiso   1.00
H22    H     0.85260   0.53300   0.22180   0.01267  Uiso   1.00
H23    H     0.18400   0.85410   0.10250   0.01267  Uiso   1.00
H24    H     0.04470   0.90940   0.17500   0.01267  Uiso   1.00
H25    H     0.60190   0.84290   0.47030   0.01267  Uiso   1.00
H26    H     0.48640   0.77050   0.67150   0.01267  Uiso   1.00
H27    H     0.54640   0.52540   0.69860   0.01267  Uiso   1.00
H28    H     0.66160   0.59780   0.49780   0.01267  Uiso   1.00
H29    H     0.78560   0.79520   0.08780   0.01267  Uiso   1.00
H30    H     0.64740   0.72180   0.03300   0.01267  Uiso   1.00
H31    H     0.31600   0.60250   0.35410   0.01267  Uiso   1.00
H32    H     0.45530   0.67500   0.40940   0.01267  Uiso   1.00
C1     C     0.14726   0.03922   0.77022   0.01267  Uiso   1.00
C2     C     0.09185   0.98392   0.72140   0.01267  Uiso   1.00
C3     C     0.02265   0.86384   0.76462   0.01267  Uiso   1.00
C4     C     0.00592   0.79485   0.85865   0.01267  Uiso   1.00
C5     C     0.05804   0.84774   0.90940   0.01267  Uiso   1.00
C6     C     0.12703   0.96772   0.86576   0.01267  Uiso   1.00
C7     C     0.93543   0.66554   0.90412   0.01267  Uiso   1.00
C8     C     0.13497   0.24498   0.75836   0.01267  Uiso   1.00
C9     C     0.19003   0.35743   0.74471   0.01267  Uiso   1.00
C10    C     0.10808   0.39031   0.78819   0.01267  Uiso   1.00
C11    C     0.96807   0.31113   0.84663   0.01267  Uiso   1.00
C12    C     0.91120   0.19961   0.85931   0.01267  Uiso   1.00
C13    C     0.99464   0.16710   0.81564   0.01267  Uiso   1.00
C14    C     0.87850   0.34491   0.89761   0.01267  Uiso   1.00
C15    C     0.35274   0.27022   0.53922   0.01267  Uiso   1.00
C16    C     0.40815   0.22140   0.48392   0.01267  Uiso   1.00
C17    C     0.47735   0.26462   0.36384   0.01267  Uiso   1.00
C18    C     0.49408   0.35865   0.29485   0.01267  Uiso   1.00
C19    C     0.44196   0.40940   0.34774   0.01267  Uiso   1.00
C20    C     0.37297   0.36576   0.46772   0.01267  Uiso   1.00
C21    C     0.56457   0.40412   0.16554   0.01267  Uiso   1.00
C22    C     0.36503   0.25836   0.74498   0.01267  Uiso   1.00
C23    C     0.30997   0.24471   0.85743   0.01267  Uiso   1.00
C24    C     0.39192   0.28819   0.89031   0.01267  Uiso   1.00
C25    C     0.53193   0.34663   0.81113   0.01267  Uiso   1.00
C26    C     0.58880   0.35931   0.69961   0.01267  Uiso   1.00
C27    C     0.50536   0.31564   0.66710   0.01267  Uiso   1.00
C28    C     0.62150   0.39761   0.84491   0.01267  Uiso   1.00
C29    C     0.85274   0.96078   0.22978   0.01267  Uiso   1.00
C30    C     0.90815   0.01608   0.27860   0.01267  Uiso   1.00
C31    C     0.97735   0.13616   0.23538   0.01267  Uiso   1.00
C32    C     0.99408   0.20515   0.14135   0.01267  Uiso   1.00
C33    C     0.94196   0.15226   0.09060   0.01267  Uiso   1.00
C34    C     0.87297   0.03228   0.13424   0.01267  Uiso   1.00
C35    C     0.06457   0.33446   0.09588   0.01267  Uiso   1.00
C36    C     0.86503   0.75502   0.24164   0.01267  Uiso   1.00
C37    C     0.80997   0.64257   0.25529   0.01267  Uiso   1.00
C38    C     0.89192   0.60969   0.21181   0.01267  Uiso   1.00
C39    C     0.03193   0.68887   0.15337   0.01267  Uiso   1.00
C40    C     0.08880   0.80039   0.14069   0.01267  Uiso   1.00
C41    C     0.00536   0.83290   0.18436   0.01267  Uiso   1.00
C42    C     0.12150   0.65509   0.10239   0.01267  Uiso   1.00
C43    C     0.64726   0.72978   0.46078   0.01267  Uiso   1.00
C44    C     0.59185   0.77860   0.51608   0.01267  Uiso   1.00
C45    C     0.52265   0.73538   0.63616   0.01267  Uiso   1.00
C46    C     0.50592   0.64135   0.70515   0.01267  Uiso   1.00
C47    C     0.55804   0.59060   0.65226   0.01267  Uiso   1.00
C48    C     0.62703   0.63424   0.53228   0.01267  Uiso   1.00
C49    C     0.43543   0.59588   0.83446   0.01267  Uiso   1.00
C50    C     0.63497   0.74164   0.25502   0.01267  Uiso   1.00
C51    C     0.69003   0.75529   0.14257   0.01267  Uiso   1.00
C52    C     0.60808   0.71181   0.10969   0.01267  Uiso   1.00
C53    C     0.46807   0.65337   0.18887   0.01267  Uiso   1.00
C54    C     0.41120   0.64069   0.30039   0.01267  Uiso   1.00
C55    C     0.49464   0.68436   0.33290   0.01267  Uiso   1.00
C56    C     0.37850   0.60239   0.15509   0.01267  Uiso   1.00
O1     O     0.87082   0.61806   0.86764   0.01267  Uiso   1.00
O2     O     0.94326   0.61158   0.97508   0.01267  Uiso   1.00
O3     O     0.92979   0.44155   0.89853   0.01267  Uiso   1.00
O4     O     0.75713   0.28305   0.93493   0.01267  Uiso   1.00
O5     O     0.62918   0.36764   0.11806   0.01267  Uiso   1.00
O6     O     0.55674   0.47508   0.11158   0.01267  Uiso   1.00
O7     O     0.57021   0.39853   0.94155   0.01267  Uiso   1.00
O8     O     0.74287   0.43493   0.78305   0.01267  Uiso   1.00
O9     O     0.12918   0.38194   0.13236   0.01267  Uiso   1.00
O10    O     0.05674   0.38842   0.02492   0.01267  Uiso   1.00
O11    O     0.07021   0.55845   0.10147   0.01267  Uiso   1.00
O12    O     0.24287   0.71695   0.06507   0.01267  Uiso   1.00
O13    O     0.37082   0.63236   0.88194   0.01267  Uiso   1.00
O14    O     0.44326   0.52492   0.88842   0.01267  Uiso   1.00
O15    O     0.42979   0.60147   0.05845   0.01267  Uiso   1.00
O16    O     0.25713   0.56507   0.21695   0.01267  Uiso   1.00
