data_ENISOK_clean
_audit_creation_date              2014-07-02
_audit_creation_method            'Materials Studio'
_symmetry_space_group_name_H-M    'P1'
_symmetry_Int_Tables_number       1
_symmetry_cell_setting            triclinic
loop_
_symmetry_equiv_pos_as_xyz
  x,y,z
_cell_length_a                    14.1869
_cell_length_b                    14.8623
_cell_length_c                    14.8623
_cell_angle_alpha                 76.8064
_cell_angle_beta                  63.5710
_cell_angle_gamma                 116.4290
loop_
_atom_site_label
_atom_site_type_symbol
_atom_site_fract_x
_atom_site_fract_y
_atom_site_fract_z
_atom_site_U_iso_or_equiv
_atom_site_adp_type
_atom_site_occupancy
Cd1    Cd    0.75000   0.43594   0.93594   0.01267  Uiso   1.00
Cd2    Cd    0.25000   0.56406   0.06406   0.01267  Uiso   1.00
Cd3    Cd    0.00000   0.50000   0.00000   0.01267  Uiso   1.00
Cd4    Cd    0.50000   0.50000   0.00000   0.01267  Uiso   1.00
Si1    Si    0.25000   0.20678   0.70678   0.01267  Uiso   1.00
Si2    Si    0.75000   0.79322   0.29322   0.01267  Uiso   1.00
H1     H     0.09750   0.03990   0.66470   0.01267  Uiso   1.00
H2     H     0.98040   0.83970   0.73410   0.01267  Uiso   1.00
H3     H     0.04180   0.79740   0.97520   0.01267  Uiso   1.00
H4     H     0.16050   0.99830   0.90410   0.01267  Uiso   1.00
H5     H     0.28930   0.41760   0.70320   0.01267  Uiso   1.00
H6     H     0.15310   0.47200   0.77360   0.01267  Uiso   1.00
H7     H     0.82720   0.15200   0.89580   0.01267  Uiso   1.00
H8     H     0.96110   0.09670   0.82550   0.01267  Uiso   1.00
H9     H     0.40250   0.16470   0.53990   0.01267  Uiso   1.00
H10    H     0.51960   0.23410   0.33970   0.01267  Uiso   1.00
H11    H     0.45820   0.47520   0.29740   0.01267  Uiso   1.00
H12    H     0.33950   0.40410   0.49830   0.01267  Uiso   1.00
H13    H     0.21070   0.20320   0.91760   0.01267  Uiso   1.00
H14    H     0.34690   0.27360   0.97200   0.01267  Uiso   1.00
H15    H     0.67280   0.39580   0.65200   0.01267  Uiso   1.00
H16    H     0.53890   0.32550   0.59670   0.01267  Uiso   1.00
H17    H     0.90250   0.96010   0.33530   0.01267  Uiso   1.00
H18    H     0.01960   0.16030   0.26590   0.01267  Uiso   1.00
H19    H     0.95820   0.20260   0.02480   0.01267  Uiso   1.00
H20    H     0.83950   0.00170   0.09590   0.01267  Uiso   1.00
H21    H     0.71070   0.58240   0.29680   0.01267  Uiso   1.00
H22    H     0.84690   0.52800   0.22640   0.01267  Uiso   1.00
H23    H     0.17280   0.84800   0.10420   0.01267  Uiso   1.00
H24    H     0.03890   0.90330   0.17450   0.01267  Uiso   1.00
H25    H     0.59750   0.83530   0.46010   0.01267  Uiso   1.00
H26    H     0.48040   0.76590   0.66030   0.01267  Uiso   1.00
H27    H     0.54180   0.52480   0.70260   0.01267  Uiso   1.00
H28    H     0.66050   0.59590   0.50170   0.01267  Uiso   1.00
H29    H     0.78930   0.79680   0.08240   0.01267  Uiso   1.00
H30    H     0.65310   0.72640   0.02800   0.01267  Uiso   1.00
H31    H     0.32720   0.60420   0.34800   0.01267  Uiso   1.00
H32    H     0.46110   0.67450   0.40330   0.01267  Uiso   1.00
C1     C     0.14513   0.04267   0.77471   0.01267  Uiso   1.00
C2     C     0.08800   0.99128   0.72728   0.01267  Uiso   1.00
C3     C     0.01810   0.87192   0.76832   0.01267  Uiso   1.00
C4     C     0.00307   0.79925   0.85945   0.01267  Uiso   1.00
C5     C     0.05460   0.84694   0.91054   0.01267  Uiso   1.00
C6     C     0.12490   0.96690   0.86810   0.01267  Uiso   1.00
C7     C     0.93117   0.66957   0.90277   0.01267  Uiso   1.00
C8     C     0.13976   0.24991   0.75813   0.01267  Uiso   1.00
C9     C     0.19540   0.36292   0.74252   0.01267  Uiso   1.00
C10    C     0.11445   0.39565   0.78405   0.01267  Uiso   1.00
C11    C     0.97785   0.31712   0.84052   0.01267  Uiso   1.00
C12    C     0.92123   0.20601   0.85641   0.01267  Uiso   1.00
C13    C     0.00110   0.17305   0.81505   0.01267  Uiso   1.00
C14    C     0.89011   0.35151   0.88951   0.01267  Uiso   1.00
C15    C     0.35487   0.27471   0.54267   0.01267  Uiso   1.00
C16    C     0.41200   0.22728   0.49128   0.01267  Uiso   1.00
C17    C     0.48190   0.26832   0.37192   0.01267  Uiso   1.00
C18    C     0.49693   0.35945   0.29925   0.01267  Uiso   1.00
C19    C     0.44540   0.41054   0.34694   0.01267  Uiso   1.00
C20    C     0.37510   0.36810   0.46690   0.01267  Uiso   1.00
C21    C     0.56883   0.40277   0.16957   0.01267  Uiso   1.00
C22    C     0.36024   0.25813   0.74991   0.01267  Uiso   1.00
C23    C     0.30460   0.24252   0.86292   0.01267  Uiso   1.00
C24    C     0.38555   0.28405   0.89565   0.01267  Uiso   1.00
C25    C     0.52215   0.34052   0.81712   0.01267  Uiso   1.00
C26    C     0.57877   0.35641   0.70601   0.01267  Uiso   1.00
C27    C     0.49890   0.31505   0.67305   0.01267  Uiso   1.00
C28    C     0.60989   0.38951   0.85151   0.01267  Uiso   1.00
C29    C     0.85487   0.95733   0.22529   0.01267  Uiso   1.00
C30    C     0.91200   0.00872   0.27272   0.01267  Uiso   1.00
C31    C     0.98190   0.12808   0.23168   0.01267  Uiso   1.00
C32    C     0.99693   0.20075   0.14055   0.01267  Uiso   1.00
C33    C     0.94540   0.15306   0.08946   0.01267  Uiso   1.00
C34    C     0.87510   0.03310   0.13190   0.01267  Uiso   1.00
C35    C     0.06883   0.33043   0.09723   0.01267  Uiso   1.00
C36    C     0.86024   0.75009   0.24187   0.01267  Uiso   1.00
C37    C     0.80460   0.63708   0.25748   0.01267  Uiso   1.00
C38    C     0.88555   0.60435   0.21595   0.01267  Uiso   1.00
C39    C     0.02215   0.68288   0.15948   0.01267  Uiso   1.00
C40    C     0.07877   0.79399   0.14359   0.01267  Uiso   1.00
C41    C     0.99890   0.82695   0.18495   0.01267  Uiso   1.00
C42    C     0.10989   0.64849   0.11049   0.01267  Uiso   1.00
C43    C     0.64513   0.72529   0.45733   0.01267  Uiso   1.00
C44    C     0.58800   0.77272   0.50872   0.01267  Uiso   1.00
C45    C     0.51810   0.73168   0.62808   0.01267  Uiso   1.00
C46    C     0.50307   0.64055   0.70075   0.01267  Uiso   1.00
C47    C     0.55460   0.58946   0.65306   0.01267  Uiso   1.00
C48    C     0.62490   0.63190   0.53310   0.01267  Uiso   1.00
C49    C     0.43117   0.59723   0.83043   0.01267  Uiso   1.00
C50    C     0.63976   0.74187   0.25009   0.01267  Uiso   1.00
C51    C     0.69540   0.75748   0.13708   0.01267  Uiso   1.00
C52    C     0.61445   0.71595   0.10435   0.01267  Uiso   1.00
C53    C     0.47785   0.65948   0.18288   0.01267  Uiso   1.00
C54    C     0.42123   0.64359   0.29399   0.01267  Uiso   1.00
C55    C     0.50110   0.68495   0.32695   0.01267  Uiso   1.00
C56    C     0.39011   0.61049   0.14849   0.01267  Uiso   1.00
O1     O     0.87448   0.62961   0.85869   0.01267  Uiso   1.00
O2     O     0.93073   0.60948   0.97634   0.01267  Uiso   1.00
O3     O     0.94075   0.44805   0.88643   0.01267  Uiso   1.00
O4     O     0.77029   0.28677   0.92857   0.01267  Uiso   1.00
O5     O     0.62552   0.35869   0.12961   0.01267  Uiso   1.00
O6     O     0.56927   0.47634   0.10948   0.01267  Uiso   1.00
O7     O     0.55925   0.38643   0.94805   0.01267  Uiso   1.00
O8     O     0.72971   0.42857   0.78677   0.01267  Uiso   1.00
O9     O     0.12552   0.37039   0.14131   0.01267  Uiso   1.00
O10    O     0.06927   0.39052   0.02366   0.01267  Uiso   1.00
O11    O     0.05925   0.55195   0.11357   0.01267  Uiso   1.00
O12    O     0.22971   0.71323   0.07143   0.01267  Uiso   1.00
O13    O     0.37448   0.64131   0.87039   0.01267  Uiso   1.00
O14    O     0.43073   0.52366   0.89052   0.01267  Uiso   1.00
O15    O     0.44075   0.61357   0.05195   0.01267  Uiso   1.00
O16    O     0.27029   0.57143   0.21323   0.01267  Uiso   1.00
