data_ENITEB_clean
_audit_creation_date              2014-07-02
_audit_creation_method            'Materials Studio'
_symmetry_space_group_name_H-M    'P1'
_symmetry_Int_Tables_number       1
_symmetry_cell_setting            triclinic
loop_
_symmetry_equiv_pos_as_xyz
  x,y,z
_cell_length_a                    15.6206
_cell_length_b                    15.9054
_cell_length_c                    22.8496
_cell_angle_alpha                 90.0000
_cell_angle_beta                  90.0000
_cell_angle_gamma                 119.4100
loop_
_atom_site_label
_atom_site_type_symbol
_atom_site_fract_x
_atom_site_fract_y
_atom_site_fract_z
_atom_site_U_iso_or_equiv
_atom_site_adp_type
_atom_site_occupancy
Cd1    Cd    0.32081   0.17124   0.37003   0.01267  Uiso   1.00
Cd2    Cd    0.67919   0.82876   0.87003   0.01267  Uiso   1.00
Cd3    Cd    0.85043   0.17124   0.12996   0.01267  Uiso   1.00
Cd4    Cd    0.14957   0.82876   0.62997   0.01267  Uiso   1.00
Cd5    Cd    0.23505   0.00000   0.50000   0.01267  Uiso   1.00
Cd6    Cd    0.76495   0.00000   0.00000   0.01267  Uiso   1.00
Si1    Si    0.83291   0.19528   0.55103   0.01267  Uiso   1.00
Si2    Si    0.16709   0.80472   0.05103   0.01267  Uiso   1.00
Si3    Si    0.36237   0.19528   0.94897   0.01267  Uiso   1.00
Si4    Si    0.63763   0.80472   0.44897   0.01267  Uiso   1.00
H1     H     0.99360   0.16340   0.58240   0.01267  Uiso   1.00
H2     H     0.12000   0.15400   0.53530   0.01267  Uiso   1.00
H3     H     0.99610   0.14900   0.37890   0.01267  Uiso   1.00
H4     H     0.86910   0.15820   0.42620   0.01267  Uiso   1.00
H5     H     0.80510   0.32120   0.63400   0.01267  Uiso   1.00
H6     H     0.88290   0.48680   0.65380   0.01267  Uiso   1.00
H7     H     0.07930   0.53560   0.52440   0.01267  Uiso   1.00
H8     H     0.00160   0.37000   0.50460   0.01267  Uiso   1.00
H9     H     0.68720   0.00280   0.58600   0.01267  Uiso   1.00
H10    H     0.65510   0.90360   0.66770   0.01267  Uiso   1.00
H11    H     0.86110   0.13200   0.75920   0.01267  Uiso   1.00
H12    H     0.89950   0.22880   0.67390   0.01267  Uiso   1.00
H13    H     0.62430   0.10920   0.58060   0.01267  Uiso   1.00
H14    H     0.48290   0.09080   0.53380   0.01267  Uiso   1.00
H15    H     0.63910   0.20120   0.38470   0.01267  Uiso   1.00
H16    H     0.78050   0.21960   0.43160   0.01267  Uiso   1.00
H17    H     0.00640   0.83660   0.08240   0.01267  Uiso   1.00
H18    H     0.88000   0.84600   0.03530   0.01267  Uiso   1.00
H19    H     0.00390   0.85100   0.87890   0.01267  Uiso   1.00
H20    H     0.13090   0.84180   0.92620   0.01267  Uiso   1.00
H21    H     0.19490   0.67880   0.13400   0.01267  Uiso   1.00
H22    H     0.11710   0.51320   0.15380   0.01267  Uiso   1.00
H23    H     0.92070   0.46440   0.02440   0.01267  Uiso   1.00
H24    H     0.99840   0.63000   0.00460   0.01267  Uiso   1.00
H25    H     0.31280   0.99720   0.08600   0.01267  Uiso   1.00
H26    H     0.34490   0.09640   0.16770   0.01267  Uiso   1.00
H27    H     0.13890   0.86800   0.25920   0.01267  Uiso   1.00
H28    H     0.10050   0.77120   0.17390   0.01267  Uiso   1.00
H29    H     0.37570   0.89080   0.08060   0.01267  Uiso   1.00
H30    H     0.51710   0.90920   0.03380   0.01267  Uiso   1.00
H31    H     0.36090   0.79880   0.88470   0.01267  Uiso   1.00
H32    H     0.21950   0.78040   0.93160   0.01267  Uiso   1.00
H33    H     0.16980   0.16340   0.91760   0.01267  Uiso   1.00
H34    H     0.03400   0.15400   0.96470   0.01267  Uiso   1.00
H35    H     0.15290   0.14900   0.12110   0.01267  Uiso   1.00
H36    H     0.28910   0.15820   0.07380   0.01267  Uiso   1.00
H37    H     0.51610   0.32120   0.86600   0.01267  Uiso   1.00
H38    H     0.60390   0.48680   0.84620   0.01267  Uiso   1.00
H39    H     0.45630   0.53560   0.97560   0.01267  Uiso   1.00
H40    H     0.36840   0.37000   0.99540   0.01267  Uiso   1.00
H41    H     0.31560   0.00280   0.91400   0.01267  Uiso   1.00
H42    H     0.24850   0.90360   0.83230   0.01267  Uiso   1.00
H43    H     0.27090   0.13200   0.74080   0.01267  Uiso   1.00
H44    H     0.32930   0.22880   0.82610   0.01267  Uiso   1.00
H45    H     0.48490   0.10920   0.91940   0.01267  Uiso   1.00
H46    H     0.60790   0.09080   0.96620   0.01267  Uiso   1.00
H47    H     0.56210   0.20120   0.11530   0.01267  Uiso   1.00
H48    H     0.43910   0.21960   0.06840   0.01267  Uiso   1.00
H49    H     0.83020   0.83660   0.41760   0.01267  Uiso   1.00
H50    H     0.96600   0.84600   0.46470   0.01267  Uiso   1.00
H51    H     0.84710   0.85100   0.62110   0.01267  Uiso   1.00
H52    H     0.71090   0.84180   0.57380   0.01267  Uiso   1.00
H53    H     0.48390   0.67880   0.36600   0.01267  Uiso   1.00
H54    H     0.39610   0.51320   0.34620   0.01267  Uiso   1.00
H55    H     0.54370   0.46440   0.47560   0.01267  Uiso   1.00
H56    H     0.63160   0.63000   0.49540   0.01267  Uiso   1.00
H57    H     0.68440   0.99720   0.41400   0.01267  Uiso   1.00
H58    H     0.75150   0.09640   0.33230   0.01267  Uiso   1.00
H59    H     0.72910   0.86800   0.24080   0.01267  Uiso   1.00
H60    H     0.67070   0.77120   0.32610   0.01267  Uiso   1.00
H61    H     0.51510   0.89080   0.41940   0.01267  Uiso   1.00
H62    H     0.39210   0.90920   0.46620   0.01267  Uiso   1.00
H63    H     0.43790   0.79880   0.61530   0.01267  Uiso   1.00
H64    H     0.56090   0.78040   0.56840   0.01267  Uiso   1.00
C1     C     0.91819   0.16718   0.50907   0.01267  Uiso   1.00
C2     C     0.99410   0.16120   0.54080   0.01267  Uiso   1.00
C3     C     0.06720   0.15200   0.51360   0.01267  Uiso   1.00
C4     C     0.06171   0.13982   0.45256   0.01267  Uiso   1.00
C5     C     0.99350   0.14900   0.42040   0.01267  Uiso   1.00
C6     C     0.92010   0.15820   0.44880   0.01267  Uiso   1.00
C7     C     0.14499   0.13398   0.42320   0.01267  Uiso   1.00
C8     C     0.89600   0.33000   0.56745   0.01267  Uiso   1.00
C9     C     0.86076   0.36472   0.61177   0.01267  Uiso   1.00
C10    C     0.90695   0.46310   0.62353   0.01267  Uiso   1.00
C11    C     0.98837   0.52674   0.59096   0.01267  Uiso   1.00
C12    C     0.02361   0.49202   0.54664   0.01267  Uiso   1.00
C13    C     0.97742   0.39364   0.53489   0.01267  Uiso   1.00
C14    C     0.04603   0.63466   0.60400   0.01267  Uiso   1.00
C15    C     0.80216   0.12432   0.62070   0.01267  Uiso   1.00
C16    C     0.72532   0.02824   0.62050   0.01267  Uiso   1.00
C17    C     0.70411   0.96982   0.66950   0.01267  Uiso   1.00
C18    C     0.75529   0.00918   0.72165   0.01267  Uiso   1.00
C19    C     0.82709   0.10478   0.72370   0.01267  Uiso   1.00
C20    C     0.85016   0.16272   0.67240   0.01267  Uiso   1.00
C21    C     0.73133   0.94686   0.77545   0.01267  Uiso   1.00
C22    C     0.71569   0.16614   0.51051   0.01267  Uiso   1.00
C23    C     0.62731   0.12786   0.54086   0.01267  Uiso   1.00
C24    C     0.54330   0.11688   0.51303   0.01267  Uiso   1.00
C25    C     0.54767   0.14420   0.45484   0.01267  Uiso   1.00
C26    C     0.63605   0.18248   0.42448   0.01267  Uiso   1.00
C27    C     0.72005   0.19344   0.45232   0.01267  Uiso   1.00
C28    C     0.45667   0.13534   0.42620   0.01267  Uiso   1.00
C29    C     0.08181   0.83282   0.00907   0.01267  Uiso   1.00
C30    C     0.00590   0.83880   0.04080   0.01267  Uiso   1.00
C31    C     0.93280   0.84800   0.01360   0.01267  Uiso   1.00
C32    C     0.93829   0.86018   0.95256   0.01267  Uiso   1.00
C33    C     0.00650   0.85100   0.92040   0.01267  Uiso   1.00
C34    C     0.07990   0.84180   0.94880   0.01267  Uiso   1.00
C35    C     0.85501   0.86602   0.92320   0.01267  Uiso   1.00
C36    C     0.10400   0.67000   0.06745   0.01267  Uiso   1.00
C37    C     0.13924   0.63528   0.11177   0.01267  Uiso   1.00
C38    C     0.09305   0.53690   0.12353   0.01267  Uiso   1.00
C39    C     0.01163   0.47326   0.09096   0.01267  Uiso   1.00
C40    C     0.97639   0.50798   0.04664   0.01267  Uiso   1.00
C41    C     0.02258   0.60636   0.03489   0.01267  Uiso   1.00
C42    C     0.95397   0.36534   0.10400   0.01267  Uiso   1.00
C43    C     0.19784   0.87568   0.12070   0.01267  Uiso   1.00
C44    C     0.27468   0.97176   0.12050   0.01267  Uiso   1.00
C45    C     0.29589   0.03018   0.16950   0.01267  Uiso   1.00
C46    C     0.24471   0.99082   0.22165   0.01267  Uiso   1.00
C47    C     0.17291   0.89522   0.22370   0.01267  Uiso   1.00
C48    C     0.14984   0.83728   0.17240   0.01267  Uiso   1.00
C49    C     0.26867   0.05314   0.27545   0.01267  Uiso   1.00
C50    C     0.28431   0.83386   0.01051   0.01267  Uiso   1.00
C51    C     0.37269   0.87214   0.04086   0.01267  Uiso   1.00
C52    C     0.45670   0.88312   0.01303   0.01267  Uiso   1.00
C53    C     0.45233   0.85580   0.95484   0.01267  Uiso   1.00
C54    C     0.36395   0.81752   0.92448   0.01267  Uiso   1.00
C55    C     0.27995   0.80656   0.95232   0.01267  Uiso   1.00
C56    C     0.54333   0.86466   0.92620   0.01267  Uiso   1.00
C57    C     0.24899   0.16718   0.99093   0.01267  Uiso   1.00
C58    C     0.16710   0.16120   0.95920   0.01267  Uiso   1.00
C59    C     0.08480   0.15200   0.98640   0.01267  Uiso   1.00
C60    C     0.07811   0.13982   0.04744   0.01267  Uiso   1.00
C61    C     0.15550   0.14900   0.07960   0.01267  Uiso   1.00
C62    C     0.23810   0.15820   0.05120   0.01267  Uiso   1.00
C63    C     0.98899   0.13398   0.07680   0.01267  Uiso   1.00
C64    C     0.43400   0.33000   0.93255   0.01267  Uiso   1.00
C65    C     0.50396   0.36472   0.88823   0.01267  Uiso   1.00
C66    C     0.55615   0.46310   0.87647   0.01267  Uiso   1.00
C67    C     0.53837   0.52674   0.90904   0.01267  Uiso   1.00
C68    C     0.46841   0.49202   0.95336   0.01267  Uiso   1.00
C69    C     0.41622   0.39364   0.96511   0.01267  Uiso   1.00
C70    C     0.58863   0.63466   0.89600   0.01267  Uiso   1.00
C71    C     0.32216   0.12432   0.87930   0.01267  Uiso   1.00
C72    C     0.30292   0.02824   0.87950   0.01267  Uiso   1.00
C73    C     0.26571   0.96982   0.83050   0.01267  Uiso   1.00
C74    C     0.25389   0.00918   0.77835   0.01267  Uiso   1.00
C75    C     0.27769   0.10478   0.77630   0.01267  Uiso   1.00
C76    C     0.31256   0.16272   0.82760   0.01267  Uiso   1.00
C77    C     0.21553   0.94686   0.72455   0.01267  Uiso   1.00
C78    C     0.45045   0.16614   0.98949   0.01267  Uiso   1.00
C79    C     0.50055   0.12786   0.95914   0.01267  Uiso   1.00
C80    C     0.57358   0.11688   0.98697   0.01267  Uiso   1.00
C81    C     0.59653   0.14420   0.04516   0.01267  Uiso   1.00
C82    C     0.54643   0.18248   0.07552   0.01267  Uiso   1.00
C83    C     0.47339   0.19344   0.04768   0.01267  Uiso   1.00
C84    C     0.67867   0.13534   0.07380   0.01267  Uiso   1.00
C85    C     0.75101   0.83282   0.49093   0.01267  Uiso   1.00
C86    C     0.83290   0.83880   0.45920   0.01267  Uiso   1.00
C87    C     0.91520   0.84800   0.48640   0.01267  Uiso   1.00
C88    C     0.92189   0.86018   0.54744   0.01267  Uiso   1.00
C89    C     0.84450   0.85100   0.57960   0.01267  Uiso   1.00
C90    C     0.76190   0.84180   0.55120   0.01267  Uiso   1.00
C91    C     0.01101   0.86602   0.57680   0.01267  Uiso   1.00
C92    C     0.56600   0.67000   0.43255   0.01267  Uiso   1.00
C93    C     0.49604   0.63528   0.38823   0.01267  Uiso   1.00
C94    C     0.44385   0.53690   0.37647   0.01267  Uiso   1.00
C95    C     0.46163   0.47326   0.40904   0.01267  Uiso   1.00
C96    C     0.53159   0.50798   0.45336   0.01267  Uiso   1.00
C97    C     0.58378   0.60636   0.46511   0.01267  Uiso   1.00
C98    C     0.41137   0.36534   0.39600   0.01267  Uiso   1.00
C99    C     0.67784   0.87568   0.37930   0.01267  Uiso   1.00
C100   C     0.69708   0.97176   0.37950   0.01267  Uiso   1.00
C101   C     0.73429   0.03018   0.33050   0.01267  Uiso   1.00
C102   C     0.74611   0.99082   0.27835   0.01267  Uiso   1.00
C103   C     0.72231   0.89522   0.27630   0.01267  Uiso   1.00
C104   C     0.68744   0.83728   0.32760   0.01267  Uiso   1.00
C105   C     0.78447   0.05314   0.22455   0.01267  Uiso   1.00
C106   C     0.54955   0.83386   0.48949   0.01267  Uiso   1.00
C107   C     0.49945   0.87214   0.45914   0.01267  Uiso   1.00
C108   C     0.42642   0.88312   0.48697   0.01267  Uiso   1.00
C109   C     0.40347   0.85580   0.54516   0.01267  Uiso   1.00
C110   C     0.45357   0.81752   0.57552   0.01267  Uiso   1.00
C111   C     0.52661   0.80656   0.54768   0.01267  Uiso   1.00
C112   C     0.32133   0.86466   0.57380   0.01267  Uiso   1.00
O1     O     0.18772   0.09644   0.45010   0.01267  Uiso   1.00
O2     O     0.17398   0.17154   0.37364   0.01267  Uiso   1.00
O3     O     0.08750   0.69360   0.56180   0.01267  Uiso   1.00
O4     O     0.04473   0.66106   0.65600   0.01267  Uiso   1.00
O5     O     0.75570   0.98660   0.82456   0.01267  Uiso   1.00
O6     O     0.68700   0.85740   0.76980   0.01267  Uiso   1.00
O7     O     0.46729   0.17178   0.37523   0.01267  Uiso   1.00
O8     O     0.37660   0.09980   0.45011   0.01267  Uiso   1.00
O9     O     0.81228   0.90356   0.95010   0.01267  Uiso   1.00
O10    O     0.82602   0.82846   0.87364   0.01267  Uiso   1.00
O11    O     0.91250   0.30640   0.06180   0.01267  Uiso   1.00
O12    O     0.95527   0.33894   0.15600   0.01267  Uiso   1.00
O13    O     0.24430   0.01340   0.32456   0.01267  Uiso   1.00
O14    O     0.31300   0.14260   0.26980   0.01267  Uiso   1.00
O15    O     0.53271   0.82822   0.87523   0.01267  Uiso   1.00
O16    O     0.62340   0.90020   0.95011   0.01267  Uiso   1.00
O17    O     0.90872   0.09644   0.04990   0.01267  Uiso   1.00
O18    O     0.99756   0.17154   0.12636   0.01267  Uiso   1.00
O19    O     0.60610   0.69360   0.93820   0.01267  Uiso   1.00
O20    O     0.61633   0.66106   0.84400   0.01267  Uiso   1.00
O21    O     0.23090   0.98660   0.67544   0.01267  Uiso   1.00
O22    O     0.17040   0.85740   0.73020   0.01267  Uiso   1.00
O23    O     0.70449   0.17178   0.12477   0.01267  Uiso   1.00
O24    O     0.72320   0.09980   0.04989   0.01267  Uiso   1.00
O25    O     0.09128   0.90356   0.54990   0.01267  Uiso   1.00
O26    O     0.00244   0.82846   0.62636   0.01267  Uiso   1.00
O27    O     0.39390   0.30640   0.43820   0.01267  Uiso   1.00
O28    O     0.38367   0.33894   0.34400   0.01267  Uiso   1.00
O29    O     0.76910   0.01340   0.17544   0.01267  Uiso   1.00
O30    O     0.82960   0.14260   0.23020   0.01267  Uiso   1.00
O31    O     0.29551   0.82822   0.62477   0.01267  Uiso   1.00
O32    O     0.27680   0.90020   0.54989   0.01267  Uiso   1.00
