data_ENITIF_clean
_audit_creation_date              2014-07-02
_audit_creation_method            'Materials Studio'
_symmetry_space_group_name_H-M    'P1'
_symmetry_Int_Tables_number       1
_symmetry_cell_setting            triclinic
loop_
_symmetry_equiv_pos_as_xyz
  x,y,z
_cell_length_a                    13.7010
_cell_length_b                    14.3441
_cell_length_c                    24.5347
_cell_angle_alpha                 78.3686
_cell_angle_beta                  73.7865
_cell_angle_gamma                 61.4722
loop_
_atom_site_label
_atom_site_type_symbol
_atom_site_fract_x
_atom_site_fract_y
_atom_site_fract_z
_atom_site_U_iso_or_equiv
_atom_site_adp_type
_atom_site_occupancy
Zn1    Zn    0.69125   0.08307   0.95633   0.01267  Uiso   1.00
Zn2    Zn    0.73065   0.41693   0.54367   0.01267  Uiso   1.00
Zn3    Zn    0.30875   0.91693   0.04367   0.01267  Uiso   1.00
Zn4    Zn    0.26935   0.58307   0.45633   0.01267  Uiso   1.00
Zn5    Zn    0.50000   1.00000   0.00000   0.01267  Uiso   1.00
Zn6    Zn    0.50000   0.50000   0.50000   0.01267  Uiso   1.00
Si1    Si    0.07080   0.44863   0.82721   0.01267  Uiso   1.00
Si2    Si    0.34664   0.05137   0.67279   0.01267  Uiso   1.00
Si3    Si    0.92920   0.55137   0.17279   0.01267  Uiso   1.00
Si4    Si    0.65336   0.94863   0.32721   0.01267  Uiso   1.00
H1     H     0.05320   0.66350   0.81010   0.01267  Uiso   1.00
H2     H     0.93120   0.82420   0.85200   0.01267  Uiso   1.00
H3     H     0.73360   0.69010   0.95230   0.01267  Uiso   1.00
H4     H     0.85550   0.52950   0.91030   0.01267  Uiso   1.00
H5     H     0.86850   0.47730   0.79510   0.01267  Uiso   1.00
H6     H     0.75700   0.38680   0.81540   0.01267  Uiso   1.00
H7     H     0.97990   0.15000   0.90420   0.01267  Uiso   1.00
H8     H     0.09130   0.24050   0.88390   0.01267  Uiso   1.00
H9     H     0.27070   0.23940   0.82980   0.01267  Uiso   1.00
H10    H     0.41980   0.15620   0.87700   0.01267  Uiso   1.00
H11    H     0.30540   0.42750   0.95190   0.01267  Uiso   1.00
H12    H     0.14980   0.50550   0.90890   0.01267  Uiso   1.00
H13    H     0.25790   0.49180   0.76280   0.01267  Uiso   1.00
H14    H     0.33200   0.52570   0.66830   0.01267  Uiso   1.00
H15    H     0.08420   0.50160   0.62200   0.01267  Uiso   1.00
H16    H     0.01660   0.45940   0.71680   0.01267  Uiso   1.00
H17    H     0.52680   0.83650   0.68990   0.01267  Uiso   1.00
H18    H     0.60740   0.67580   0.64800   0.01267  Uiso   1.00
H19    H     0.37600   0.80990   0.54770   0.01267  Uiso   1.00
H20    H     0.29530   0.97050   0.58970   0.01267  Uiso   1.00
H21    H     0.14090   0.02270   0.70490   0.01267  Uiso   1.00
H22    H     0.95920   0.11320   0.68460   0.01267  Uiso   1.00
H23    H     0.03410   0.35000   0.59580   0.01267  Uiso   1.00
H24    H     0.21570   0.25950   0.61610   0.01267  Uiso   1.00
H25    H     0.33990   0.26060   0.67020   0.01267  Uiso   1.00
H26    H     0.45300   0.34380   0.62300   0.01267  Uiso   1.00
H27    H     0.68480   0.07250   0.54810   0.01267  Uiso   1.00
H28    H     0.56420   0.99450   0.59110   0.01267  Uiso   1.00
H29    H     0.51250   0.00820   0.73720   0.01267  Uiso   1.00
H30    H     0.52600   0.97430   0.83170   0.01267  Uiso   1.00
H31    H     0.20780   0.99840   0.87800   0.01267  Uiso   1.00
H32    H     0.19280   0.04060   0.78320   0.01267  Uiso   1.00
H33    H     0.94680   0.33650   0.18990   0.01267  Uiso   1.00
H34    H     0.06880   0.17580   0.14800   0.01267  Uiso   1.00
H35    H     0.26640   0.30990   0.04770   0.01267  Uiso   1.00
H36    H     0.14450   0.47050   0.08970   0.01267  Uiso   1.00
H37    H     0.13150   0.52270   0.20490   0.01267  Uiso   1.00
H38    H     0.24300   0.61320   0.18460   0.01267  Uiso   1.00
H39    H     0.02010   0.85000   0.09580   0.01267  Uiso   1.00
H40    H     0.90870   0.75950   0.11610   0.01267  Uiso   1.00
H41    H     0.72930   0.76060   0.17020   0.01267  Uiso   1.00
H42    H     0.58020   0.84380   0.12300   0.01267  Uiso   1.00
H43    H     0.69460   0.57250   0.04810   0.01267  Uiso   1.00
H44    H     0.85020   0.49450   0.09110   0.01267  Uiso   1.00
H45    H     0.74210   0.50820   0.23720   0.01267  Uiso   1.00
H46    H     0.66800   0.47430   0.33170   0.01267  Uiso   1.00
H47    H     0.91580   0.49840   0.37800   0.01267  Uiso   1.00
H48    H     0.98340   0.54060   0.28320   0.01267  Uiso   1.00
H49    H     0.47320   0.16350   0.31010   0.01267  Uiso   1.00
H50    H     0.39260   0.32420   0.35200   0.01267  Uiso   1.00
H51    H     0.62400   0.19010   0.45230   0.01267  Uiso   1.00
H52    H     0.70470   0.02950   0.41030   0.01267  Uiso   1.00
H53    H     0.85910   0.97730   0.29510   0.01267  Uiso   1.00
H54    H     0.04080   0.88680   0.31540   0.01267  Uiso   1.00
H55    H     0.96590   0.65000   0.40420   0.01267  Uiso   1.00
H56    H     0.78430   0.74050   0.38390   0.01267  Uiso   1.00
H57    H     0.66010   0.73940   0.32980   0.01267  Uiso   1.00
H58    H     0.54700   0.65620   0.37700   0.01267  Uiso   1.00
H59    H     0.31520   0.92750   0.45190   0.01267  Uiso   1.00
H60    H     0.43580   0.00550   0.40890   0.01267  Uiso   1.00
H61    H     0.48750   0.99180   0.26280   0.01267  Uiso   1.00
H62    H     0.47400   0.02570   0.16830   0.01267  Uiso   1.00
H63    H     0.79220   0.00160   0.12200   0.01267  Uiso   1.00
H64    H     0.80720   0.95940   0.21680   0.01267  Uiso   1.00
C1     C     0.96576   0.58144   0.85624   0.01267  Uiso   1.00
C2     C     0.98827   0.66896   0.83890   0.01267  Uiso   1.00
C3     C     0.91592   0.76436   0.86380   0.01267  Uiso   1.00
C4     C     0.82096   0.77218   0.90610   0.01267  Uiso   1.00
C5     C     0.79844   0.68472   0.92340   0.01267  Uiso   1.00
C6     C     0.87089   0.58932   0.89850   0.01267  Uiso   1.00
C7     C     0.74685   0.87753   0.93477   0.01267  Uiso   1.00
C8     C     0.99037   0.36749   0.83757   0.01267  Uiso   1.00
C9     C     0.89100   0.41098   0.81722   0.01267  Uiso   1.00
C10    C     0.82490   0.35710   0.82930   0.01267  Uiso   1.00
C11    C     0.85801   0.25991   0.86167   0.01267  Uiso   1.00
C12    C     0.95730   0.21640   0.88200   0.01267  Uiso   1.00
C13    C     0.02350   0.27020   0.87000   0.01267  Uiso   1.00
C14    C     0.78430   0.20400   0.87760   0.01267  Uiso   1.00
C15    C     0.19304   0.38167   0.86505   0.01267  Uiso   1.00
C16    C     0.27600   0.27720   0.85560   0.01267  Uiso   1.00
C17    C     0.36586   0.22798   0.88330   0.01267  Uiso   1.00
C18    C     0.37868   0.28126   0.91998   0.01267  Uiso   1.00
C19    C     0.29740   0.38780   0.92820   0.01267  Uiso   1.00
C20    C     0.20570   0.43450   0.90170   0.01267  Uiso   1.00
C21    C     0.47651   0.22931   0.94867   0.01267  Uiso   1.00
C22    C     0.12861   0.47360   0.75018   0.01267  Uiso   1.00
C23    C     0.22250   0.49292   0.73428   0.01267  Uiso   1.00
C24    C     0.26640   0.51386   0.67794   0.01267  Uiso   1.00
C25    C     0.21632   0.51781   0.63555   0.01267  Uiso   1.00
C26    C     0.12070   0.49850   0.65050   0.01267  Uiso   1.00
C27    C     0.07970   0.47510   0.70710   0.01267  Uiso   1.00
C28    C     0.26766   0.53477   0.57431   0.01267  Uiso   1.00
C29    C     0.40344   0.91856   0.64376   0.01267  Uiso   1.00
C30    C     0.49613   0.83104   0.66110   0.01267  Uiso   1.00
C31    C     0.54408   0.73564   0.63620   0.01267  Uiso   1.00
C32    C     0.49924   0.72782   0.59390   0.01267  Uiso   1.00
C33    C     0.40656   0.81528   0.57660   0.01267  Uiso   1.00
C34    C     0.35871   0.91068   0.60150   0.01267  Uiso   1.00
C35    C     0.55915   0.62247   0.56523   0.01267  Uiso   1.00
C36    C     0.19543   0.13251   0.66243   0.01267  Uiso   1.00
C37    C     0.11920   0.08902   0.68278   0.01267  Uiso   1.00
C38    C     0.01130   0.14290   0.67070   0.01267  Uiso   1.00
C39    C     0.97959   0.24009   0.63833   0.01267  Uiso   1.00
C40    C     0.05570   0.28360   0.61800   0.01267  Uiso   1.00
C41    C     0.16370   0.22980   0.63000   0.01267  Uiso   1.00
C42    C     0.86590   0.29600   0.62240   0.01267  Uiso   1.00
C43    C     0.43976   0.11833   0.63495   0.01267  Uiso   1.00
C44    C     0.40880   0.22280   0.64440   0.01267  Uiso   1.00
C45    C     0.47714   0.27202   0.61670   0.01267  Uiso   1.00
C46    C     0.57992   0.21874   0.58002   0.01267  Uiso   1.00
C47    C     0.61340   0.11220   0.57180   0.01267  Uiso   1.00
C48    C     0.54190   0.06550   0.59830   0.01267  Uiso   1.00
C49    C     0.65449   0.27069   0.55133   0.01267  Uiso   1.00
C50    C     0.35239   0.02640   0.74982   0.01267  Uiso   1.00
C51    C     0.44970   0.00708   0.76572   0.01267  Uiso   1.00
C52    C     0.45820   0.98614   0.82206   0.01267  Uiso   1.00
C53    C     0.36968   0.98219   0.86445   0.01267  Uiso   1.00
C54    C     0.26970   0.00150   0.84950   0.01267  Uiso   1.00
C55    C     0.26190   0.02490   0.79290   0.01267  Uiso   1.00
C56    C     0.37674   0.96523   0.92569   0.01267  Uiso   1.00
C57    C     0.03424   0.41856   0.14376   0.01267  Uiso   1.00
C58    C     0.01173   0.33104   0.16110   0.01267  Uiso   1.00
C59    C     0.08408   0.23564   0.13620   0.01267  Uiso   1.00
C60    C     0.17904   0.22782   0.09390   0.01267  Uiso   1.00
C61    C     0.20156   0.31528   0.07660   0.01267  Uiso   1.00
C62    C     0.12911   0.41068   0.10150   0.01267  Uiso   1.00
C63    C     0.25315   0.12247   0.06523   0.01267  Uiso   1.00
C64    C     0.00963   0.63251   0.16243   0.01267  Uiso   1.00
C65    C     0.10900   0.58902   0.18278   0.01267  Uiso   1.00
C66    C     0.17510   0.64290   0.17070   0.01267  Uiso   1.00
C67    C     0.14199   0.74009   0.13833   0.01267  Uiso   1.00
C68    C     0.04270   0.78360   0.11800   0.01267  Uiso   1.00
C69    C     0.97650   0.72980   0.13000   0.01267  Uiso   1.00
C70    C     0.21570   0.79600   0.12240   0.01267  Uiso   1.00
C71    C     0.80696   0.61833   0.13495   0.01267  Uiso   1.00
C72    C     0.72400   0.72280   0.14440   0.01267  Uiso   1.00
C73    C     0.63414   0.77202   0.11670   0.01267  Uiso   1.00
C74    C     0.62132   0.71874   0.08002   0.01267  Uiso   1.00
C75    C     0.70260   0.61220   0.07180   0.01267  Uiso   1.00
C76    C     0.79430   0.56550   0.09830   0.01267  Uiso   1.00
C77    C     0.52349   0.77069   0.05133   0.01267  Uiso   1.00
C78    C     0.87139   0.52640   0.24982   0.01267  Uiso   1.00
C79    C     0.77750   0.50708   0.26572   0.01267  Uiso   1.00
C80    C     0.73360   0.48614   0.32206   0.01267  Uiso   1.00
C81    C     0.78368   0.48219   0.36445   0.01267  Uiso   1.00
C82    C     0.87930   0.50150   0.34950   0.01267  Uiso   1.00
C83    C     0.92030   0.52490   0.29290   0.01267  Uiso   1.00
C84    C     0.73234   0.46523   0.42569   0.01267  Uiso   1.00
C85    C     0.59656   0.08144   0.35624   0.01267  Uiso   1.00
C86    C     0.50387   0.16896   0.33890   0.01267  Uiso   1.00
C87    C     0.45592   0.26436   0.36380   0.01267  Uiso   1.00
C88    C     0.50076   0.27218   0.40610   0.01267  Uiso   1.00
C89    C     0.59344   0.18472   0.42340   0.01267  Uiso   1.00
C90    C     0.64129   0.08932   0.39850   0.01267  Uiso   1.00
C91    C     0.44085   0.37753   0.43477   0.01267  Uiso   1.00
C92    C     0.80457   0.86749   0.33757   0.01267  Uiso   1.00
C93    C     0.88080   0.91098   0.31722   0.01267  Uiso   1.00
C94    C     0.98870   0.85710   0.32930   0.01267  Uiso   1.00
C95    C     0.02041   0.75991   0.36167   0.01267  Uiso   1.00
C96    C     0.94430   0.71640   0.38200   0.01267  Uiso   1.00
C97    C     0.83630   0.77020   0.37000   0.01267  Uiso   1.00
C98    C     0.13410   0.70400   0.37760   0.01267  Uiso   1.00
C99    C     0.56024   0.88167   0.36505   0.01267  Uiso   1.00
C100   C     0.59120   0.77720   0.35560   0.01267  Uiso   1.00
C101   C     0.52286   0.72798   0.38330   0.01267  Uiso   1.00
C102   C     0.42008   0.78126   0.41998   0.01267  Uiso   1.00
C103   C     0.38660   0.88780   0.42820   0.01267  Uiso   1.00
C104   C     0.45810   0.93450   0.40170   0.01267  Uiso   1.00
C105   C     0.34551   0.72931   0.44867   0.01267  Uiso   1.00
C106   C     0.64761   0.97360   0.25018   0.01267  Uiso   1.00
C107   C     0.55030   0.99292   0.23428   0.01267  Uiso   1.00
C108   C     0.54180   0.01386   0.17794   0.01267  Uiso   1.00
C109   C     0.63032   0.01781   0.13555   0.01267  Uiso   1.00
C110   C     0.73030   0.99850   0.15050   0.01267  Uiso   1.00
C111   C     0.73810   0.97510   0.20710   0.01267  Uiso   1.00
C112   C     0.62326   0.03477   0.07431   0.01267  Uiso   1.00
O1     O     0.77669   0.94942   0.91820   0.01267  Uiso   1.00
O2     O     0.66130   0.88260   0.97220   0.01267  Uiso   1.00
O3     O     0.70720   0.22520   0.85340   0.01267  Uiso   1.00
O4     O     0.78980   0.15100   0.92700   0.01267  Uiso   1.00
O5     O     0.53926   0.12706   0.94422   0.01267  Uiso   1.00
O6     O     0.49789   0.28136   0.97366   0.01267  Uiso   1.00
O7     O     0.36475   0.53153   0.56517   0.01267  Uiso   1.00
O8     O     0.21261   0.55021   0.53737   0.01267  Uiso   1.00
O9     O     0.64431   0.55058   0.58180   0.01267  Uiso   1.00
O10    O     0.51610   0.61740   0.52780   0.01267  Uiso   1.00
O11    O     0.78580   0.27480   0.64660   0.01267  Uiso   1.00
O12    O     0.86780   0.34900   0.57300   0.01267  Uiso   1.00
O13    O     0.61054   0.37294   0.55578   0.01267  Uiso   1.00
O14    O     0.75291   0.21864   0.52634   0.01267  Uiso   1.00
O15    O     0.46145   0.96847   0.93483   0.01267  Uiso   1.00
O16    O     0.30019   0.94979   0.96263   0.01267  Uiso   1.00
O17    O     0.22331   0.05058   0.08180   0.01267  Uiso   1.00
O18    O     0.33870   0.11740   0.02780   0.01267  Uiso   1.00
O19    O     0.29280   0.77480   0.14660   0.01267  Uiso   1.00
O20    O     0.21020   0.84900   0.07300   0.01267  Uiso   1.00
O21    O     0.46074   0.87294   0.05578   0.01267  Uiso   1.00
O22    O     0.50211   0.71864   0.02634   0.01267  Uiso   1.00
O23    O     0.63525   0.46847   0.43483   0.01267  Uiso   1.00
O24    O     0.78739   0.44979   0.46263   0.01267  Uiso   1.00
O25    O     0.35569   0.44942   0.41820   0.01267  Uiso   1.00
O26    O     0.48390   0.38260   0.47220   0.01267  Uiso   1.00
O27    O     0.21420   0.72520   0.35340   0.01267  Uiso   1.00
O28    O     0.13220   0.65100   0.42700   0.01267  Uiso   1.00
O29    O     0.38946   0.62706   0.44422   0.01267  Uiso   1.00
O30    O     0.24709   0.78136   0.47366   0.01267  Uiso   1.00
O31    O     0.53855   0.03153   0.06517   0.01267  Uiso   1.00
O32    O     0.69981   0.05021   0.03737   0.01267  Uiso   1.00
