data_image0
_cell_length_a       5.0156
_cell_length_b       18.675
_cell_length_c       22.796
_cell_angle_alpha    90
_cell_angle_beta     95.41
_cell_angle_gamma    90

_symmetry_space_group_name_H-M    "P 1"
_symmetry_int_tables_number       1

loop_
  _symmetry_equiv_pos_as_xyz
  'x, y, z'

loop_
  _atom_site_label
  _atom_site_occupancy
  _atom_site_fract_x
  _atom_site_fract_y
  _atom_site_fract_z
  _atom_site_thermal_displace_type
  _atom_site_B_iso_or_equiv
  _atom_site_type_symbol
  Tm1      1.0000 0.77715  0.43147  0.34598  Biso   1.000  Tm
  O1       1.0000 0.08840  0.39010  0.41654  Biso   1.000  O
  O2       1.0000 0.48960  0.43850  0.41175  Biso   1.000  O
  C1       1.0000 0.32120  0.40440  0.43830  Biso   1.000  C
  C2       1.0000 0.40330  0.37760  0.49910  Biso   1.000  C
  C3       1.0000 0.62480  0.40640  0.53240  Biso   1.000  C
  H1       1.0000 0.72920  0.44100  0.51620  Biso   1.000  H
  C4       1.0000 0.69000  0.38320  0.59030  Biso   1.000  C
  C5       1.0000 0.54060  0.32870  0.61270  Biso   1.000  C
  H2       1.0000 0.58470  0.31260  0.65100  Biso   1.000  H
  C6       1.0000 0.32630  0.29800  0.57870  Biso   1.000  C
  C7       1.0000 0.25330  0.32410  0.52190  Biso   1.000  C
  H3       1.0000 0.10440  0.30550  0.49960  Biso   1.000  H
  C8       1.0000 0.90670  0.41910  0.62980  Biso   1.000  C
  O3       1.0000 0.03300  0.46950  0.60875  Biso   1.000  O
  O4       1.0000 0.94470  0.39730  0.68237  Biso   1.000  O
  N1       1.0000 0.18250  0.24410  0.60630  Biso   1.000  N
  N2       1.0000 0.01020  0.21320  0.57200  Biso   1.000  N
  C9       1.0000 0.73640  0.09120  0.75160  Biso   1.000  C
  O5       1.0000 0.94880  0.11170  0.77960  Biso   1.000  O
  O6       1.0000 0.54420  0.06170  0.77349  Biso   1.000  O
  C10      1.0000 0.70780  0.10260  0.68610  Biso   1.000  C
  C11      1.0000 0.51050  0.06770  0.64980  Biso   1.000  C
  H4       1.0000 0.39220  0.03690  0.66620  Biso   1.000  H
  C12      1.0000 0.48870  0.07840  0.58940  Biso   1.000  C
  C13      1.0000 0.65830  0.12660  0.56510  Biso   1.000  C
  H5       1.0000 0.64030  0.13500  0.52470  Biso   1.000  H
  C14      1.0000 0.85500  0.16240  0.60090  Biso   1.000  C
  C15      1.0000 0.88170  0.14940  0.66140  Biso   1.000  C
  H6       1.0000 0.01640  0.17210  0.68540  Biso   1.000  H
  C16      1.0000 0.27980  0.04240  0.54960  Biso   1.000  C
  O7       1.0000 0.13710  0.99520  0.57360  Biso   1.000  O
  H7       1.0000 0.05900  0.98300  0.55700  Biso   1.000  H
  O8       1.0000 0.24780  0.05880  0.49645  Biso   1.000  O
  Tm2      1.0000 0.72285  0.93147  0.15402  Biso   1.000  Tm
  O9       1.0000 0.41160  0.89010  0.08346  Biso   1.000  O
  O10      1.0000 0.01040  0.93850  0.08825  Biso   1.000  O
  C17      1.0000 0.17880  0.90440  0.06170  Biso   1.000  C
  C18      1.0000 0.09670  0.87760  0.00090  Biso   1.000  C
  C19      1.0000 0.87520  0.90640  0.96760  Biso   1.000  C
  H8       1.0000 0.77080  0.94100  0.98380  Biso   1.000  H
  C20      1.0000 0.81000  0.88320  0.90970  Biso   1.000  C
  C21      1.0000 0.95940  0.82870  0.88730  Biso   1.000  C
  H9       1.0000 0.91530  0.81260  0.84900  Biso   1.000  H
  C22      1.0000 0.17370  0.79800  0.92130  Biso   1.000  C
  C23      1.0000 0.24670  0.82410  0.97810  Biso   1.000  C
  H10      1.0000 0.39560  0.80550  0.00040  Biso   1.000  H
  C24      1.0000 0.59330  0.91910  0.87020  Biso   1.000  C
  O11      1.0000 0.46700  0.96950  0.89125  Biso   1.000  O
  O12      1.0000 0.55530  0.89730  0.81763  Biso   1.000  O
  N3       1.0000 0.31750  0.74410  0.89370  Biso   1.000  N
  N4       1.0000 0.48980  0.71320  0.92800  Biso   1.000  N
  C25      1.0000 0.76360  0.59120  0.74840  Biso   1.000  C
  O13      1.0000 0.55120  0.61170  0.72040  Biso   1.000  O
  O14      1.0000 0.95580  0.56170  0.72651  Biso   1.000  O
  C26      1.0000 0.79220  0.60260  0.81390  Biso   1.000  C
  C27      1.0000 0.98950  0.56770  0.85020  Biso   1.000  C
  H11      1.0000 0.10780  0.53690  0.83380  Biso   1.000  H
  C28      1.0000 0.01130  0.57840  0.91060  Biso   1.000  C
  C29      1.0000 0.84170  0.62660  0.93490  Biso   1.000  C
  H12      1.0000 0.85970  0.63500  0.97530  Biso   1.000  H
  C30      1.0000 0.64500  0.66240  0.89910  Biso   1.000  C
  C31      1.0000 0.61830  0.64940  0.83860  Biso   1.000  C
  H13      1.0000 0.48360  0.67210  0.81460  Biso   1.000  H
  C32      1.0000 0.22020  0.54240  0.95040  Biso   1.000  C
  O15      1.0000 0.36290  0.49520  0.92640  Biso   1.000  O
  H14      1.0000 0.44100  0.48300  0.94300  Biso   1.000  H
  O16      1.0000 0.25220  0.55880  0.00355  Biso   1.000  O
  Tm3      1.0000 0.22285  0.56853  0.65402  Biso   1.000  Tm
  O17      1.0000 0.91160  0.60990  0.58346  Biso   1.000  O
  O18      1.0000 0.51040  0.56150  0.58825  Biso   1.000  O
  C33      1.0000 0.67880  0.59560  0.56170  Biso   1.000  C
  C34      1.0000 0.59670  0.62240  0.50090  Biso   1.000  C
  C35      1.0000 0.37520  0.59360  0.46760  Biso   1.000  C
  H15      1.0000 0.27080  0.55900  0.48380  Biso   1.000  H
  C36      1.0000 0.31000  0.61680  0.40970  Biso   1.000  C
  C37      1.0000 0.45940  0.67130  0.38730  Biso   1.000  C
  H16      1.0000 0.41530  0.68740  0.34900  Biso   1.000  H
  C38      1.0000 0.67370  0.70200  0.42130  Biso   1.000  C
  C39      1.0000 0.74670  0.67590  0.47810  Biso   1.000  C
  H17      1.0000 0.89560  0.69450  0.50040  Biso   1.000  H
  C40      1.0000 0.09330  0.58090  0.37020  Biso   1.000  C
  O19      1.0000 0.96700  0.53050  0.39125  Biso   1.000  O
  O20      1.0000 0.05530  0.60270  0.31763  Biso   1.000  O
  N5       1.0000 0.81750  0.75590  0.39370  Biso   1.000  N
  N6       1.0000 0.98980  0.78680  0.42800  Biso   1.000  N
  C41      1.0000 0.26360  0.90880  0.24840  Biso   1.000  C
  O21      1.0000 0.05120  0.88830  0.22040  Biso   1.000  O
  O22      1.0000 0.45580  0.93830  0.22651  Biso   1.000  O
  C42      1.0000 0.29220  0.89740  0.31390  Biso   1.000  C
  C43      1.0000 0.48950  0.93230  0.35020  Biso   1.000  C
  H18      1.0000 0.60780  0.96310  0.33380  Biso   1.000  H
  C44      1.0000 0.51130  0.92160  0.41060  Biso   1.000  C
  C45      1.0000 0.34170  0.87340  0.43490  Biso   1.000  C
  H19      1.0000 0.35970  0.86500  0.47530  Biso   1.000  H
  C46      1.0000 0.14500  0.83760  0.39910  Biso   1.000  C
  C47      1.0000 0.11830  0.85060  0.33860  Biso   1.000  C
  H20      1.0000 0.98360  0.82790  0.31460  Biso   1.000  H
  C48      1.0000 0.72020  0.95760  0.45040  Biso   1.000  C
  O23      1.0000 0.86290  0.00480  0.42640  Biso   1.000  O
  H21      1.0000 0.94100  0.01700  0.44300  Biso   1.000  H
  O24      1.0000 0.75220  0.94120  0.50355  Biso   1.000  O
  Tm4      1.0000 0.27715  0.06853  0.84598  Biso   1.000  Tm
  O25      1.0000 0.58840  0.10990  0.91654  Biso   1.000  O
  O26      1.0000 0.98960  0.06150  0.91175  Biso   1.000  O
  C49      1.0000 0.82120  0.09560  0.93830  Biso   1.000  C
  C50      1.0000 0.90330  0.12240  0.99910  Biso   1.000  C
  C51      1.0000 0.12480  0.09360  0.03240  Biso   1.000  C
  H22      1.0000 0.22920  0.05900  0.01620  Biso   1.000  H
  C52      1.0000 0.19000  0.11680  0.09030  Biso   1.000  C
  C53      1.0000 0.04060  0.17130  0.11270  Biso   1.000  C
  H23      1.0000 0.08470  0.18740  0.15100  Biso   1.000  H
  C54      1.0000 0.82630  0.20200  0.07870  Biso   1.000  C
  C55      1.0000 0.75330  0.17590  0.02190  Biso   1.000  C
  H24      1.0000 0.60440  0.19450  0.99960  Biso   1.000  H
  C56      1.0000 0.40670  0.08090  0.12980  Biso   1.000  C
  O27      1.0000 0.53300  0.03050  0.10875  Biso   1.000  O
  O28      1.0000 0.44470  0.10270  0.18237  Biso   1.000  O
  N7       1.0000 0.68250  0.25590  0.10630  Biso   1.000  N
  N8       1.0000 0.51020  0.28680  0.07200  Biso   1.000  N
  C57      1.0000 0.23640  0.40880  0.25160  Biso   1.000  C
  O29      1.0000 0.44880  0.38830  0.27960  Biso   1.000  O
  O30      1.0000 0.04420  0.43830  0.27349  Biso   1.000  O
  C58      1.0000 0.20780  0.39740  0.18610  Biso   1.000  C
  C59      1.0000 0.01050  0.43230  0.14980  Biso   1.000  C
  H25      1.0000 0.89220  0.46310  0.16620  Biso   1.000  H
  C60      1.0000 0.98870  0.42160  0.08940  Biso   1.000  C
  C61      1.0000 0.15830  0.37340  0.06510  Biso   1.000  C
  H26      1.0000 0.14030  0.36500  0.02470  Biso   1.000  H
  C62      1.0000 0.35500  0.33760  0.10090  Biso   1.000  C
  C63      1.0000 0.38170  0.35060  0.16140  Biso   1.000  C
  H27      1.0000 0.51640  0.32790  0.18540  Biso   1.000  H
  C64      1.0000 0.77980  0.45760  0.04960  Biso   1.000  C
  O31      1.0000 0.63710  0.50480  0.07360  Biso   1.000  O
  H28      1.0000 0.55900  0.51700  0.05700  Biso   1.000  H
  O32      1.0000 0.74780  0.44120  0.99645  Biso   1.000  O
