data_image0
_cell_length_a       17.353
_cell_length_b       30.453
_cell_length_c       17.511
_cell_angle_alpha    90
_cell_angle_beta     119.547
_cell_angle_gamma    90

_symmetry_space_group_name_H-M    "P 1"
_symmetry_int_tables_number       1

loop_
  _symmetry_equiv_pos_as_xyz
  'x, y, z'

loop_
  _atom_site_label
  _atom_site_occupancy
  _atom_site_fract_x
  _atom_site_fract_y
  _atom_site_fract_z
  _atom_site_thermal_displace_type
  _atom_site_B_iso_or_equiv
  _atom_site_type_symbol
  C1       1.0000 0.84170  0.84360  0.23250  Biso   1.000  C
  C2       1.0000 0.89610  0.77340  0.29380  Biso   1.000  C
  H1       1.0000 0.93790  0.78900  0.34220  Biso   1.000  H
  C3       1.0000 0.83560  0.79400  0.22370  Biso   1.000  C
  C4       1.0000 0.60660  0.84416  0.26430  Biso   1.000  C
  C5       1.0000 0.60340  0.79610  0.26280  Biso   1.000  C
  C6       1.0000 0.62020  0.77204  0.34160  Biso   1.000  C
  H2       1.0000 0.63090  0.78730  0.39190  Biso   1.000  H
  C7       1.0000 0.33980  0.84576  0.23580  Biso   1.000  C
  C8       1.0000 0.40740  0.77420  0.30500  Biso   1.000  C
  H3       1.0000 0.45240  0.78900  0.35250  Biso   1.000  H
  C9       1.0000 0.34680  0.79662  0.24080  Biso   1.000  C
  C10      1.0000 0.10430  0.84481  0.26710  Biso   1.000  C
  C11      1.0000 0.10690  0.79520  0.26960  Biso   1.000  C
  C12      1.0000 0.11690  0.77170  0.34770  Biso   1.000  C
  H4       1.0000 0.12310  0.78720  0.39620  Biso   1.000  H
  C13      1.0000 0.84770  0.99110  0.19050  Biso   1.000  C
  C14      1.0000 0.77150  0.01525  0.11950  Biso   1.000  C
  C15      1.0000 0.78070  0.05059  0.07470  Biso   1.000  C
  H5       1.0000 0.83640  0.06270  0.09340  Biso   1.000  H
  C16      1.0000 0.70800  0.06770  0.00310  Biso   1.000  C
  H6       1.0000 0.71370  0.08990  0.96960  Biso   1.000  H
  C17      1.0000 0.62430  0.05060  0.98190  Biso   1.000  C
  C18      1.0000 0.62281  0.01860  0.03900  Biso   1.000  C
  H7       1.0000 0.56810  0.01130  0.03320  Biso   1.000  H
  C19      1.0000 0.54040  0.06600  0.90430  Biso   1.000  C
  C20      1.0000 0.86440  0.93760  0.40220  Biso   1.000  C
  C21      1.0000 0.85360  0.95329  0.47780  Biso   1.000  C
  C22      1.0000 0.79430  0.93460  0.50030  Biso   1.000  C
  H8       1.0000 0.75820  0.91130  0.46830  Biso   1.000  H
  C23      1.0000 0.79060  0.95210  0.57350  Biso   1.000  C
  H9       1.0000 0.75250  0.93980  0.59070  Biso   1.000  H
  C24      1.0000 0.84370  0.98760  0.61960  Biso   1.000  C
  C25      1.0000 0.91210  0.98715  0.53530  Biso   1.000  C
  H10      1.0000 0.95720  0.99730  0.52580  Biso   1.000  H
  C26      1.0000 0.83620  0.00920  0.68970  Biso   1.000  C
  C27      1.0000 0.66170  0.99030  0.31080  Biso   1.000  C
  C28      1.0000 0.65510  0.01580  0.38150  Biso   1.000  C
  C29      1.0000 0.70360  0.05080  0.42150  Biso   1.000  C
  H11      1.0000 0.73840  0.06440  0.40160  Biso   1.000  H
  C30      1.0000 0.70030  0.06660  0.49640  Biso   1.000  C
  H12      1.0000 0.73860  0.08900  0.52970  Biso   1.000  H
  C31      1.0000 0.64260  0.04990  0.52060  Biso   1.000  C
  C32      1.0000 0.58960  0.01393  0.46820  Biso   1.000  C
  H13      1.0000 0.54780  0.00250  0.48120  Biso   1.000  H
  C33      1.0000 0.63910  0.06597  0.59710  Biso   1.000  C
  C34      1.0000 0.34840  0.98716  0.18830  Biso   1.000  C
  C35      1.0000 0.27040  0.01140  0.12230  Biso   1.000  C
  C36      1.0000 0.27930  0.05042  0.07550  Biso   1.000  C
  H14      1.0000 0.33350  0.06410  0.09370  Biso   1.000  H
  C37      1.0000 0.20390  0.06462  0.00500  Biso   1.000  C
  H15      1.0000 0.20860  0.08760  0.97240  Biso   1.000  H
  C38      1.0000 0.12180  0.04800  0.97800  Biso   1.000  C
  C39      1.0000 0.12180  0.01342  0.03270  Biso   1.000  C
  H16      1.0000 0.06750  0.00390  0.02520  Biso   1.000  H
  C40      1.0000 0.03880  0.06310  0.90660  Biso   1.000  C
  N1       1.0000 0.69510  0.99767  0.10120  Biso   1.000  N
  N2       1.0000 0.90480  0.00368  0.59790  Biso   1.000  N
  N3       1.0000 0.59580  0.99532  0.40100  Biso   1.000  N
  N4       1.0000 0.19500  0.99393  0.09410  Biso   1.000  N
  Nd1      1.0000 0.99433  0.92855  0.30436  Biso   1.000  Nd
  Nd2      1.0000 0.69020  0.92928  0.19402  Biso   1.000  Nd
  Nd3      1.0000 0.49622  0.92810  0.30522  Biso   1.000  Nd
  Nd4      1.0000 0.18938  0.92687  0.19359  Biso   1.000  Nd
  O1       1.0000 0.90650  0.85998  0.30250  Biso   1.000  O
  O2       1.0000 0.78390  0.86543  0.17030  Biso   1.000  O
  O3       1.0000 0.63210  0.86363  0.21570  Biso   1.000  O
  O4       1.0000 0.59170  0.86374  0.31860  Biso   1.000  O
  O5       1.0000 0.41160  0.86314  0.28430  Biso   1.000  O
  O6       1.0000 0.26860  0.86092  0.18460  Biso   1.000  O
  O7       1.0000 0.12500  0.86143  0.21660  Biso   1.000  O
  O8       1.0000 0.09280  0.86592  0.32240  Biso   1.000  O
  O9       1.0000 0.92940  0.00261  0.21670  Biso   1.000  O
  O10      1.0000 0.83310  0.95479  0.21560  Biso   1.000  O
  O11      1.0000 0.54120  0.08757  0.84480  Biso   1.000  O
  O12      1.0000 0.46550  0.05580  0.90160  Biso   1.000  O
  O13      1.0000 0.92830  0.94890  0.39630  Biso   1.000  O
  O14      1.0000 0.79690  0.91466  0.34590  Biso   1.000  O
  O15      1.0000 0.88040  0.04692  0.71590  Biso   1.000  O
  O16      1.0000 0.78750  0.99879  0.71980  Biso   1.000  O
  O17      1.0000 0.71190  0.00392  0.28290  Biso   1.000  O
  O18      1.0000 0.62090  0.95479  0.28260  Biso   1.000  O
  O19      1.0000 0.70080  0.08621  0.65540  Biso   1.000  O
  O20      1.0000 0.57100  0.05349  0.60410  Biso   1.000  O
  O21      1.0000 0.42540  0.00036  0.21090  Biso   1.000  O
  O22      1.0000 0.33080  0.95298  0.21460  Biso   1.000  O
  O23      1.0000 0.04720  0.08670  0.84760  Biso   1.000  O
  O24      1.0000 0.96660  0.05487  0.90250  Biso   1.000  O
  C41      1.0000 0.27550  0.77073  0.17080  Biso   1.000  C
  C42      1.0000 0.77480  0.77090  0.14840  Biso   1.000  C
  C43      1.0000 0.59850  0.77249  0.18870  Biso   1.000  C
  C44      1.0000 0.10210  0.77200  0.20480  Biso   1.000  C
  H17      1.0000 0.22870  0.78540  0.12470  Biso   1.000  H
  H18      1.0000 0.73450  0.78620  0.09860  Biso   1.000  H
  H19      1.0000 0.59530  0.78780  0.14120  Biso   1.000  H
  H20      1.0000 0.09840  0.78660  0.15650  Biso   1.000  H
  N5       1.0000 0.77480  0.72910  0.14840  Biso   1.000  N
  N6       1.0000 0.59850  0.72751  0.18870  Biso   1.000  N
  N7       1.0000 0.27550  0.72927  0.17080  Biso   1.000  N
  N8       1.0000 0.10210  0.72800  0.20480  Biso   1.000  N
  C45      1.0000 0.15830  0.34360  0.76750  Biso   1.000  C
  C46      1.0000 0.10390  0.27340  0.70620  Biso   1.000  C
  H21      1.0000 0.06210  0.28900  0.65780  Biso   1.000  H
  C47      1.0000 0.16440  0.29400  0.77630  Biso   1.000  C
  C48      1.0000 0.39340  0.34416  0.73570  Biso   1.000  C
  C49      1.0000 0.39660  0.29610  0.73720  Biso   1.000  C
  C50      1.0000 0.37980  0.27204  0.65840  Biso   1.000  C
  H22      1.0000 0.36910  0.28730  0.60810  Biso   1.000  H
  C51      1.0000 0.66020  0.34576  0.76420  Biso   1.000  C
  C52      1.0000 0.59260  0.27420  0.69500  Biso   1.000  C
  H23      1.0000 0.54760  0.28900  0.64750  Biso   1.000  H
  C53      1.0000 0.65320  0.29662  0.75920  Biso   1.000  C
  C54      1.0000 0.89570  0.34481  0.73290  Biso   1.000  C
  C55      1.0000 0.89310  0.29520  0.73040  Biso   1.000  C
  C56      1.0000 0.88310  0.27170  0.65230  Biso   1.000  C
  H24      1.0000 0.87690  0.28720  0.60380  Biso   1.000  H
  C57      1.0000 0.15230  0.49110  0.80950  Biso   1.000  C
  C58      1.0000 0.22850  0.51525  0.88050  Biso   1.000  C
  C59      1.0000 0.21930  0.55059  0.92530  Biso   1.000  C
  H25      1.0000 0.16360  0.56270  0.90660  Biso   1.000  H
  C60      1.0000 0.29200  0.56770  0.99690  Biso   1.000  C
  H26      1.0000 0.28630  0.58990  0.03040  Biso   1.000  H
  C61      1.0000 0.37570  0.55060  0.01810  Biso   1.000  C
  C62      1.0000 0.37719  0.51860  0.96100  Biso   1.000  C
  H27      1.0000 0.43190  0.51130  0.96680  Biso   1.000  H
  C63      1.0000 0.45960  0.56600  0.09570  Biso   1.000  C
  C64      1.0000 0.13560  0.43760  0.59780  Biso   1.000  C
  C65      1.0000 0.14640  0.45329  0.52220  Biso   1.000  C
  C66      1.0000 0.20570  0.43460  0.49970  Biso   1.000  C
  H28      1.0000 0.24180  0.41130  0.53170  Biso   1.000  H
  C67      1.0000 0.20940  0.45210  0.42650  Biso   1.000  C
  H29      1.0000 0.24750  0.43980  0.40930  Biso   1.000  H
  C68      1.0000 0.15630  0.48760  0.38040  Biso   1.000  C
  C69      1.0000 0.08790  0.48715  0.46470  Biso   1.000  C
  H30      1.0000 0.04280  0.49730  0.47420  Biso   1.000  H
  C70      1.0000 0.16380  0.50920  0.31030  Biso   1.000  C
  C71      1.0000 0.33830  0.49030  0.68920  Biso   1.000  C
  C72      1.0000 0.34490  0.51580  0.61850  Biso   1.000  C
  C73      1.0000 0.29640  0.55080  0.57850  Biso   1.000  C
  H31      1.0000 0.26160  0.56440  0.59840  Biso   1.000  H
  C74      1.0000 0.29970  0.56660  0.50360  Biso   1.000  C
  H32      1.0000 0.26140  0.58900  0.47030  Biso   1.000  H
  C75      1.0000 0.35740  0.54990  0.47940  Biso   1.000  C
  C76      1.0000 0.41040  0.51393  0.53180  Biso   1.000  C
  H33      1.0000 0.45220  0.50250  0.51880  Biso   1.000  H
  C77      1.0000 0.36090  0.56597  0.40290  Biso   1.000  C
  C78      1.0000 0.65160  0.48716  0.81170  Biso   1.000  C
  C79      1.0000 0.72960  0.51140  0.87770  Biso   1.000  C
  C80      1.0000 0.72070  0.55042  0.92450  Biso   1.000  C
  H34      1.0000 0.66650  0.56410  0.90630  Biso   1.000  H
  C81      1.0000 0.79610  0.56462  0.99500  Biso   1.000  C
  H35      1.0000 0.79140  0.58760  0.02760  Biso   1.000  H
  C82      1.0000 0.87820  0.54800  0.02200  Biso   1.000  C
  C83      1.0000 0.87820  0.51342  0.96730  Biso   1.000  C
  H36      1.0000 0.93250  0.50390  0.97480  Biso   1.000  H
  C84      1.0000 0.96120  0.56310  0.09340  Biso   1.000  C
  N9       1.0000 0.30490  0.49767  0.89880  Biso   1.000  N
  N10      1.0000 0.09520  0.50368  0.40210  Biso   1.000  N
  N11      1.0000 0.40420  0.49532  0.59900  Biso   1.000  N
  N12      1.0000 0.80500  0.49393  0.90590  Biso   1.000  N
  Nd5      1.0000 0.00567  0.42855  0.69564  Biso   1.000  Nd
  Nd6      1.0000 0.30980  0.42928  0.80598  Biso   1.000  Nd
  Nd7      1.0000 0.50378  0.42810  0.69478  Biso   1.000  Nd
  Nd8      1.0000 0.81062  0.42687  0.80641  Biso   1.000  Nd
  O25      1.0000 0.09350  0.35998  0.69750  Biso   1.000  O
  O26      1.0000 0.21610  0.36543  0.82970  Biso   1.000  O
  O27      1.0000 0.36790  0.36363  0.78430  Biso   1.000  O
  O28      1.0000 0.40830  0.36374  0.68140  Biso   1.000  O
  O29      1.0000 0.58840  0.36314  0.71570  Biso   1.000  O
  O30      1.0000 0.73140  0.36092  0.81540  Biso   1.000  O
  O31      1.0000 0.87500  0.36143  0.78340  Biso   1.000  O
  O32      1.0000 0.90720  0.36592  0.67760  Biso   1.000  O
  O33      1.0000 0.07060  0.50261  0.78330  Biso   1.000  O
  O34      1.0000 0.16690  0.45479  0.78440  Biso   1.000  O
  O35      1.0000 0.45880  0.58757  0.15520  Biso   1.000  O
  O36      1.0000 0.53450  0.55580  0.09840  Biso   1.000  O
  O37      1.0000 0.07170  0.44890  0.60370  Biso   1.000  O
  O38      1.0000 0.20310  0.41466  0.65410  Biso   1.000  O
  O39      1.0000 0.11960  0.54692  0.28410  Biso   1.000  O
  O40      1.0000 0.21250  0.49879  0.28020  Biso   1.000  O
  O41      1.0000 0.28810  0.50392  0.71710  Biso   1.000  O
  O42      1.0000 0.37910  0.45479  0.71740  Biso   1.000  O
  O43      1.0000 0.29920  0.58621  0.34460  Biso   1.000  O
  O44      1.0000 0.42900  0.55349  0.39590  Biso   1.000  O
  O45      1.0000 0.57460  0.50036  0.78910  Biso   1.000  O
  O46      1.0000 0.66920  0.45298  0.78540  Biso   1.000  O
  O47      1.0000 0.95280  0.58670  0.15240  Biso   1.000  O
  O48      1.0000 0.03340  0.55487  0.09750  Biso   1.000  O
  C85      1.0000 0.72450  0.27073  0.82920  Biso   1.000  C
  C86      1.0000 0.22520  0.27090  0.85160  Biso   1.000  C
  C87      1.0000 0.40150  0.27249  0.81130  Biso   1.000  C
  C88      1.0000 0.89790  0.27200  0.79520  Biso   1.000  C
  H37      1.0000 0.77130  0.28540  0.87530  Biso   1.000  H
  H38      1.0000 0.26550  0.28620  0.90140  Biso   1.000  H
  H39      1.0000 0.40470  0.28780  0.85880  Biso   1.000  H
  H40      1.0000 0.90160  0.28660  0.84350  Biso   1.000  H
  N13      1.0000 0.22520  0.22910  0.85160  Biso   1.000  N
  N14      1.0000 0.40150  0.22751  0.81130  Biso   1.000  N
  N15      1.0000 0.72450  0.22927  0.82920  Biso   1.000  N
  N16      1.0000 0.89790  0.22800  0.79520  Biso   1.000  N
  C89      1.0000 0.15830  0.15640  0.76750  Biso   1.000  C
  C90      1.0000 0.10390  0.22660  0.70620  Biso   1.000  C
  H41      1.0000 0.06210  0.21100  0.65780  Biso   1.000  H
  C91      1.0000 0.16440  0.20600  0.77630  Biso   1.000  C
  C92      1.0000 0.39340  0.15584  0.73570  Biso   1.000  C
  C93      1.0000 0.39660  0.20390  0.73720  Biso   1.000  C
  C94      1.0000 0.37980  0.22796  0.65840  Biso   1.000  C
  H42      1.0000 0.36910  0.21270  0.60810  Biso   1.000  H
  C95      1.0000 0.66020  0.15424  0.76420  Biso   1.000  C
  C96      1.0000 0.59260  0.22580  0.69500  Biso   1.000  C
  H43      1.0000 0.54760  0.21100  0.64750  Biso   1.000  H
  C97      1.0000 0.65320  0.20338  0.75920  Biso   1.000  C
  C98      1.0000 0.89570  0.15519  0.73290  Biso   1.000  C
  C99      1.0000 0.89310  0.20480  0.73040  Biso   1.000  C
  C100     1.0000 0.88310  0.22830  0.65230  Biso   1.000  C
  H44      1.0000 0.87690  0.21280  0.60380  Biso   1.000  H
  C101     1.0000 0.15230  0.00890  0.80950  Biso   1.000  C
  C102     1.0000 0.22850  0.98475  0.88050  Biso   1.000  C
  C103     1.0000 0.21930  0.94941  0.92530  Biso   1.000  C
  H45      1.0000 0.16360  0.93730  0.90660  Biso   1.000  H
  C104     1.0000 0.29200  0.93230  0.99690  Biso   1.000  C
  H46      1.0000 0.28630  0.91010  0.03040  Biso   1.000  H
  C105     1.0000 0.37570  0.94940  0.01810  Biso   1.000  C
  C106     1.0000 0.37719  0.98140  0.96100  Biso   1.000  C
  H47      1.0000 0.43190  0.98870  0.96680  Biso   1.000  H
  C107     1.0000 0.45960  0.93400  0.09570  Biso   1.000  C
  C108     1.0000 0.13560  0.06240  0.59780  Biso   1.000  C
  C109     1.0000 0.14640  0.04671  0.52220  Biso   1.000  C
  C110     1.0000 0.20570  0.06540  0.49970  Biso   1.000  C
  H48      1.0000 0.24180  0.08870  0.53170  Biso   1.000  H
  C111     1.0000 0.20940  0.04790  0.42650  Biso   1.000  C
  H49      1.0000 0.24750  0.06020  0.40930  Biso   1.000  H
  C112     1.0000 0.15630  0.01240  0.38040  Biso   1.000  C
  C113     1.0000 0.08790  0.01285  0.46470  Biso   1.000  C
  H50      1.0000 0.04280  0.00270  0.47420  Biso   1.000  H
  C114     1.0000 0.16380  0.99080  0.31030  Biso   1.000  C
  C115     1.0000 0.33830  0.00970  0.68920  Biso   1.000  C
  C116     1.0000 0.34490  0.98420  0.61850  Biso   1.000  C
  C117     1.0000 0.29640  0.94920  0.57850  Biso   1.000  C
  H51      1.0000 0.26160  0.93560  0.59840  Biso   1.000  H
  C118     1.0000 0.29970  0.93340  0.50360  Biso   1.000  C
  H52      1.0000 0.26140  0.91100  0.47030  Biso   1.000  H
  C119     1.0000 0.35740  0.95010  0.47940  Biso   1.000  C
  C120     1.0000 0.41040  0.98607  0.53180  Biso   1.000  C
  H53      1.0000 0.45220  0.99750  0.51880  Biso   1.000  H
  C121     1.0000 0.36090  0.93403  0.40290  Biso   1.000  C
  C122     1.0000 0.65160  0.01284  0.81170  Biso   1.000  C
  C123     1.0000 0.72960  0.98860  0.87770  Biso   1.000  C
  C124     1.0000 0.72070  0.94958  0.92450  Biso   1.000  C
  H54      1.0000 0.66650  0.93590  0.90630  Biso   1.000  H
  C125     1.0000 0.79610  0.93538  0.99500  Biso   1.000  C
  H55      1.0000 0.79140  0.91240  0.02760  Biso   1.000  H
  C126     1.0000 0.87820  0.95200  0.02200  Biso   1.000  C
  C127     1.0000 0.87820  0.98658  0.96730  Biso   1.000  C
  H56      1.0000 0.93250  0.99610  0.97480  Biso   1.000  H
  C128     1.0000 0.96120  0.93690  0.09340  Biso   1.000  C
  N17      1.0000 0.30490  0.00233  0.89880  Biso   1.000  N
  N18      1.0000 0.09520  0.99632  0.40210  Biso   1.000  N
  N19      1.0000 0.40420  0.00468  0.59900  Biso   1.000  N
  N20      1.0000 0.80500  0.00607  0.90590  Biso   1.000  N
  Nd9      1.0000 0.00567  0.07145  0.69564  Biso   1.000  Nd
  Nd10     1.0000 0.30980  0.07072  0.80598  Biso   1.000  Nd
  Nd11     1.0000 0.50378  0.07190  0.69478  Biso   1.000  Nd
  Nd12     1.0000 0.81062  0.07313  0.80641  Biso   1.000  Nd
  O49      1.0000 0.09350  0.14002  0.69750  Biso   1.000  O
  O50      1.0000 0.21610  0.13457  0.82970  Biso   1.000  O
  O51      1.0000 0.36790  0.13637  0.78430  Biso   1.000  O
  O52      1.0000 0.40830  0.13626  0.68140  Biso   1.000  O
  O53      1.0000 0.58840  0.13686  0.71570  Biso   1.000  O
  O54      1.0000 0.73140  0.13908  0.81540  Biso   1.000  O
  O55      1.0000 0.87500  0.13857  0.78340  Biso   1.000  O
  O56      1.0000 0.90720  0.13408  0.67760  Biso   1.000  O
  O57      1.0000 0.07060  0.99739  0.78330  Biso   1.000  O
  O58      1.0000 0.16690  0.04521  0.78440  Biso   1.000  O
  O59      1.0000 0.45880  0.91243  0.15520  Biso   1.000  O
  O60      1.0000 0.53450  0.94420  0.09840  Biso   1.000  O
  O61      1.0000 0.07170  0.05110  0.60370  Biso   1.000  O
  O62      1.0000 0.20310  0.08534  0.65410  Biso   1.000  O
  O63      1.0000 0.11960  0.95308  0.28410  Biso   1.000  O
  O64      1.0000 0.21250  0.00121  0.28020  Biso   1.000  O
  O65      1.0000 0.28810  0.99608  0.71710  Biso   1.000  O
  O66      1.0000 0.37910  0.04521  0.71740  Biso   1.000  O
  O67      1.0000 0.29920  0.91379  0.34460  Biso   1.000  O
  O68      1.0000 0.42900  0.94651  0.39590  Biso   1.000  O
  O69      1.0000 0.57460  0.99964  0.78910  Biso   1.000  O
  O70      1.0000 0.66920  0.04702  0.78540  Biso   1.000  O
  O71      1.0000 0.95280  0.91330  0.15240  Biso   1.000  O
  O72      1.0000 0.03340  0.94513  0.09750  Biso   1.000  O
  H57      1.0000 0.77130  0.21460  0.87530  Biso   1.000  H
  H58      1.0000 0.26550  0.21380  0.90140  Biso   1.000  H
  H59      1.0000 0.40470  0.21220  0.85880  Biso   1.000  H
  H60      1.0000 0.90160  0.21340  0.84350  Biso   1.000  H
  C129     1.0000 0.84170  0.65640  0.23250  Biso   1.000  C
  C130     1.0000 0.89610  0.72660  0.29380  Biso   1.000  C
  H61      1.0000 0.93790  0.71100  0.34220  Biso   1.000  H
  C131     1.0000 0.83560  0.70600  0.22370  Biso   1.000  C
  C132     1.0000 0.60660  0.65584  0.26430  Biso   1.000  C
  C133     1.0000 0.60340  0.70390  0.26280  Biso   1.000  C
  C134     1.0000 0.62020  0.72796  0.34160  Biso   1.000  C
  H62      1.0000 0.63090  0.71270  0.39190  Biso   1.000  H
  C135     1.0000 0.33980  0.65424  0.23580  Biso   1.000  C
  C136     1.0000 0.40740  0.72580  0.30500  Biso   1.000  C
  H63      1.0000 0.45240  0.71100  0.35250  Biso   1.000  H
  C137     1.0000 0.34680  0.70338  0.24080  Biso   1.000  C
  C138     1.0000 0.10430  0.65519  0.26710  Biso   1.000  C
  C139     1.0000 0.10690  0.70480  0.26960  Biso   1.000  C
  C140     1.0000 0.11690  0.72830  0.34770  Biso   1.000  C
  H64      1.0000 0.12310  0.71280  0.39620  Biso   1.000  H
  C141     1.0000 0.84770  0.50890  0.19050  Biso   1.000  C
  C142     1.0000 0.77150  0.48475  0.11950  Biso   1.000  C
  C143     1.0000 0.78070  0.44941  0.07470  Biso   1.000  C
  H65      1.0000 0.83640  0.43730  0.09340  Biso   1.000  H
  C144     1.0000 0.70800  0.43230  0.00310  Biso   1.000  C
  H66      1.0000 0.71370  0.41010  0.96960  Biso   1.000  H
  C145     1.0000 0.62430  0.44940  0.98190  Biso   1.000  C
  C146     1.0000 0.62281  0.48140  0.03900  Biso   1.000  C
  H67      1.0000 0.56810  0.48870  0.03320  Biso   1.000  H
  C147     1.0000 0.54040  0.43400  0.90430  Biso   1.000  C
  C148     1.0000 0.86440  0.56240  0.40220  Biso   1.000  C
  C149     1.0000 0.85360  0.54671  0.47780  Biso   1.000  C
  C150     1.0000 0.79430  0.56540  0.50030  Biso   1.000  C
  H68      1.0000 0.75820  0.58870  0.46830  Biso   1.000  H
  C151     1.0000 0.79060  0.54790  0.57350  Biso   1.000  C
  H69      1.0000 0.75250  0.56020  0.59070  Biso   1.000  H
  C152     1.0000 0.84370  0.51240  0.61960  Biso   1.000  C
  C153     1.0000 0.91210  0.51285  0.53530  Biso   1.000  C
  H70      1.0000 0.95720  0.50270  0.52580  Biso   1.000  H
  C154     1.0000 0.83620  0.49080  0.68970  Biso   1.000  C
  C155     1.0000 0.66170  0.50970  0.31080  Biso   1.000  C
  C156     1.0000 0.65510  0.48420  0.38150  Biso   1.000  C
  C157     1.0000 0.70360  0.44920  0.42150  Biso   1.000  C
  H71      1.0000 0.73840  0.43560  0.40160  Biso   1.000  H
  C158     1.0000 0.70030  0.43340  0.49640  Biso   1.000  C
  H72      1.0000 0.73860  0.41100  0.52970  Biso   1.000  H
  C159     1.0000 0.64260  0.45010  0.52060  Biso   1.000  C
  C160     1.0000 0.58960  0.48607  0.46820  Biso   1.000  C
  H73      1.0000 0.54780  0.49750  0.48120  Biso   1.000  H
  C161     1.0000 0.63910  0.43403  0.59710  Biso   1.000  C
  C162     1.0000 0.34840  0.51284  0.18830  Biso   1.000  C
  C163     1.0000 0.27040  0.48860  0.12230  Biso   1.000  C
  C164     1.0000 0.27930  0.44958  0.07550  Biso   1.000  C
  H74      1.0000 0.33350  0.43590  0.09370  Biso   1.000  H
  C165     1.0000 0.20390  0.43538  0.00500  Biso   1.000  C
  H75      1.0000 0.20860  0.41240  0.97240  Biso   1.000  H
  C166     1.0000 0.12180  0.45200  0.97800  Biso   1.000  C
  C167     1.0000 0.12180  0.48658  0.03270  Biso   1.000  C
  H76      1.0000 0.06750  0.49610  0.02520  Biso   1.000  H
  C168     1.0000 0.03880  0.43690  0.90660  Biso   1.000  C
  N21      1.0000 0.69510  0.50233  0.10120  Biso   1.000  N
  N22      1.0000 0.90480  0.49632  0.59790  Biso   1.000  N
  N23      1.0000 0.59580  0.50468  0.40100  Biso   1.000  N
  N24      1.0000 0.19500  0.50607  0.09410  Biso   1.000  N
  Nd13     1.0000 0.99433  0.57145  0.30436  Biso   1.000  Nd
  Nd14     1.0000 0.69020  0.57072  0.19402  Biso   1.000  Nd
  Nd15     1.0000 0.49622  0.57190  0.30522  Biso   1.000  Nd
  Nd16     1.0000 0.18938  0.57313  0.19359  Biso   1.000  Nd
  O73      1.0000 0.90650  0.64002  0.30250  Biso   1.000  O
  O74      1.0000 0.78390  0.63457  0.17030  Biso   1.000  O
  O75      1.0000 0.63210  0.63637  0.21570  Biso   1.000  O
  O76      1.0000 0.59170  0.63626  0.31860  Biso   1.000  O
  O77      1.0000 0.41160  0.63686  0.28430  Biso   1.000  O
  O78      1.0000 0.26860  0.63908  0.18460  Biso   1.000  O
  O79      1.0000 0.12500  0.63857  0.21660  Biso   1.000  O
  O80      1.0000 0.09280  0.63408  0.32240  Biso   1.000  O
  O81      1.0000 0.92940  0.49739  0.21670  Biso   1.000  O
  O82      1.0000 0.83310  0.54521  0.21560  Biso   1.000  O
  O83      1.0000 0.54120  0.41243  0.84480  Biso   1.000  O
  O84      1.0000 0.46550  0.44420  0.90160  Biso   1.000  O
  O85      1.0000 0.92830  0.55110  0.39630  Biso   1.000  O
  O86      1.0000 0.79690  0.58534  0.34590  Biso   1.000  O
  O87      1.0000 0.88040  0.45308  0.71590  Biso   1.000  O
  O88      1.0000 0.78750  0.50121  0.71980  Biso   1.000  O
  O89      1.0000 0.71190  0.49608  0.28290  Biso   1.000  O
  O90      1.0000 0.62090  0.54521  0.28260  Biso   1.000  O
  O91      1.0000 0.70080  0.41379  0.65540  Biso   1.000  O
  O92      1.0000 0.57100  0.44651  0.60410  Biso   1.000  O
  O93      1.0000 0.42540  0.49964  0.21090  Biso   1.000  O
  O94      1.0000 0.33080  0.54702  0.21460  Biso   1.000  O
  O95      1.0000 0.04720  0.41330  0.84760  Biso   1.000  O
  O96      1.0000 0.96660  0.44513  0.90250  Biso   1.000  O
  H77      1.0000 0.22870  0.71460  0.12470  Biso   1.000  H
  H78      1.0000 0.73450  0.71380  0.09860  Biso   1.000  H
  H79      1.0000 0.59530  0.71220  0.14120  Biso   1.000  H
  H80      1.0000 0.09840  0.71340  0.15650  Biso   1.000  H
