data_ENUCOG_clean
_audit_creation_date              2014-07-02
_audit_creation_method            'Materials Studio'
_symmetry_space_group_name_H-M    'P1'
_symmetry_Int_Tables_number       1
_symmetry_cell_setting            triclinic
loop_
_symmetry_equiv_pos_as_xyz
  x,y,z
_cell_length_a                    12.6835
_cell_length_b                    12.6835
_cell_length_c                    12.6835
_cell_angle_alpha                 83.9769
_cell_angle_beta                  83.9769
_cell_angle_gamma                 83.9769
loop_
_atom_site_label
_atom_site_type_symbol
_atom_site_fract_x
_atom_site_fract_y
_atom_site_fract_z
_atom_site_U_iso_or_equiv
_atom_site_adp_type
_atom_site_occupancy
Cd1    Cd    0.48795   0.01205   0.75000   0.01267  Uiso   1.00
Cd2    Cd    0.75000   0.48795   0.01205   0.01267  Uiso   1.00
Cd3    Cd    0.01205   0.75000   0.48795   0.01267  Uiso   1.00
Cd4    Cd    0.51205   0.98795   0.25000   0.01267  Uiso   1.00
Cd5    Cd    0.25000   0.51205   0.98795   0.01267  Uiso   1.00
Cd6    Cd    0.98795   0.25000   0.51205   0.01267  Uiso   1.00
Ni1    Ni    0.47069   0.75000   0.02931   0.01267  Uiso   1.00
Ni2    Ni    0.02931   0.47069   0.75000   0.01267  Uiso   1.00
Ni3    Ni    0.75000   0.02931   0.47069   0.01267  Uiso   1.00
Ni4    Ni    0.52931   0.25000   0.97069   0.01267  Uiso   1.00
Ni5    Ni    0.97069   0.52931   0.25000   0.01267  Uiso   1.00
Ni6    Ni    0.25000   0.97069   0.52931   0.01267  Uiso   1.00
H1     H     0.56520   0.63660   0.80840   0.01267  Uiso   1.00
H2     H     0.48560   0.65350   0.72020   0.01267  Uiso   1.00
H3     H     0.80840   0.56520   0.63660   0.01267  Uiso   1.00
H4     H     0.72020   0.48560   0.65350   0.01267  Uiso   1.00
H5     H     0.63660   0.80840   0.56520   0.01267  Uiso   1.00
H6     H     0.65350   0.72020   0.48560   0.01267  Uiso   1.00
H7     H     0.86340   0.93480   0.69160   0.01267  Uiso   1.00
H8     H     0.84650   0.01440   0.77980   0.01267  Uiso   1.00
H9     H     0.93480   0.69160   0.86340   0.01267  Uiso   1.00
H10    H     0.01440   0.77980   0.84650   0.01267  Uiso   1.00
H11    H     0.69160   0.86340   0.93480   0.01267  Uiso   1.00
H12    H     0.77980   0.84650   0.01440   0.01267  Uiso   1.00
H13    H     0.43480   0.36340   0.19160   0.01267  Uiso   1.00
H14    H     0.51440   0.34650   0.27980   0.01267  Uiso   1.00
H15    H     0.19160   0.43480   0.36340   0.01267  Uiso   1.00
H16    H     0.27980   0.51440   0.34650   0.01267  Uiso   1.00
H17    H     0.36340   0.19160   0.43480   0.01267  Uiso   1.00
H18    H     0.34650   0.27980   0.51440   0.01267  Uiso   1.00
H19    H     0.13660   0.06520   0.30840   0.01267  Uiso   1.00
H20    H     0.15350   0.98560   0.22020   0.01267  Uiso   1.00
H21    H     0.06520   0.30840   0.13660   0.01267  Uiso   1.00
H22    H     0.98560   0.22020   0.15350   0.01267  Uiso   1.00
H23    H     0.30840   0.13660   0.06520   0.01267  Uiso   1.00
H24    H     0.22020   0.15350   0.98560   0.01267  Uiso   1.00
C1     C     0.49237   0.78827   0.79367   0.01267  Uiso   1.00
C2     C     0.49530   0.66880   0.79180   0.01267  Uiso   1.00
C3     C     0.41182   0.61762   0.86892   0.01267  Uiso   1.00
C4     C     0.79367   0.49237   0.78827   0.01267  Uiso   1.00
C5     C     0.79180   0.49530   0.66880   0.01267  Uiso   1.00
C6     C     0.86892   0.41182   0.61762   0.01267  Uiso   1.00
C7     C     0.78827   0.79367   0.49237   0.01267  Uiso   1.00
C8     C     0.66880   0.79180   0.49530   0.01267  Uiso   1.00
C9     C     0.61762   0.86892   0.41182   0.01267  Uiso   1.00
C10    C     0.71173   0.00763   0.70633   0.01267  Uiso   1.00
C11    C     0.83120   0.00470   0.70820   0.01267  Uiso   1.00
C12    C     0.88238   0.08818   0.63108   0.01267  Uiso   1.00
C13    C     0.00763   0.70633   0.71173   0.01267  Uiso   1.00
C14    C     0.00470   0.70820   0.83120   0.01267  Uiso   1.00
C15    C     0.08818   0.63108   0.88238   0.01267  Uiso   1.00
C16    C     0.70633   0.71173   0.00763   0.01267  Uiso   1.00
C17    C     0.70820   0.83120   0.00470   0.01267  Uiso   1.00
C18    C     0.63108   0.88238   0.08818   0.01267  Uiso   1.00
C19    C     0.50763   0.21173   0.20633   0.01267  Uiso   1.00
C20    C     0.50470   0.33120   0.20820   0.01267  Uiso   1.00
C21    C     0.58818   0.38238   0.13108   0.01267  Uiso   1.00
C22    C     0.20633   0.50763   0.21173   0.01267  Uiso   1.00
C23    C     0.20820   0.50470   0.33120   0.01267  Uiso   1.00
C24    C     0.13108   0.58818   0.38238   0.01267  Uiso   1.00
C25    C     0.21173   0.20633   0.50763   0.01267  Uiso   1.00
C26    C     0.33120   0.20820   0.50470   0.01267  Uiso   1.00
C27    C     0.38238   0.13108   0.58818   0.01267  Uiso   1.00
C28    C     0.28827   0.99237   0.29367   0.01267  Uiso   1.00
C29    C     0.16880   0.99530   0.29180   0.01267  Uiso   1.00
C30    C     0.11762   0.91182   0.36892   0.01267  Uiso   1.00
C31    C     0.99237   0.29367   0.28827   0.01267  Uiso   1.00
C32    C     0.99530   0.29180   0.16880   0.01267  Uiso   1.00
C33    C     0.91182   0.36892   0.11762   0.01267  Uiso   1.00
C34    C     0.29367   0.28827   0.99237   0.01267  Uiso   1.00
C35    C     0.29180   0.16880   0.99530   0.01267  Uiso   1.00
C36    C     0.36892   0.11762   0.91182   0.01267  Uiso   1.00
O1     O     0.49343   0.84459   0.70515   0.01267  Uiso   1.00
O2     O     0.49174   0.83015   0.87905   0.01267  Uiso   1.00
O3     O     0.35752   0.55352   0.83492   0.01267  Uiso   1.00
O4     O     0.39905   0.63791   0.96457   0.01267  Uiso   1.00
O5     O     0.70515   0.49343   0.84459   0.01267  Uiso   1.00
O6     O     0.87905   0.49174   0.83015   0.01267  Uiso   1.00
O7     O     0.83492   0.35752   0.55352   0.01267  Uiso   1.00
O8     O     0.96457   0.39905   0.63791   0.01267  Uiso   1.00
O9     O     0.84459   0.70515   0.49343   0.01267  Uiso   1.00
O10    O     0.83015   0.87905   0.49174   0.01267  Uiso   1.00
O11    O     0.55352   0.83492   0.35752   0.01267  Uiso   1.00
O12    O     0.63791   0.96457   0.39905   0.01267  Uiso   1.00
O13    O     0.65541   0.00657   0.79485   0.01267  Uiso   1.00
O14    O     0.66985   0.00826   0.62095   0.01267  Uiso   1.00
O15    O     0.94648   0.14248   0.66508   0.01267  Uiso   1.00
O16    O     0.86209   0.10095   0.53543   0.01267  Uiso   1.00
O17    O     0.00657   0.79485   0.65541   0.01267  Uiso   1.00
O18    O     0.00826   0.62095   0.66985   0.01267  Uiso   1.00
O19    O     0.14248   0.66508   0.94648   0.01267  Uiso   1.00
O20    O     0.10095   0.53543   0.86209   0.01267  Uiso   1.00
O21    O     0.79485   0.65541   0.00657   0.01267  Uiso   1.00
O22    O     0.62095   0.66985   0.00826   0.01267  Uiso   1.00
O23    O     0.66508   0.94648   0.14248   0.01267  Uiso   1.00
O24    O     0.53543   0.86209   0.10095   0.01267  Uiso   1.00
O25    O     0.50657   0.15541   0.29485   0.01267  Uiso   1.00
O26    O     0.50826   0.16985   0.12095   0.01267  Uiso   1.00
O27    O     0.64248   0.44648   0.16508   0.01267  Uiso   1.00
O28    O     0.60095   0.36209   0.03543   0.01267  Uiso   1.00
O29    O     0.29485   0.50657   0.15541   0.01267  Uiso   1.00
O30    O     0.12095   0.50826   0.16985   0.01267  Uiso   1.00
O31    O     0.16508   0.64248   0.44648   0.01267  Uiso   1.00
O32    O     0.03543   0.60095   0.36209   0.01267  Uiso   1.00
O33    O     0.15541   0.29485   0.50657   0.01267  Uiso   1.00
O34    O     0.16985   0.12095   0.50826   0.01267  Uiso   1.00
O35    O     0.44648   0.16508   0.64248   0.01267  Uiso   1.00
O36    O     0.36209   0.03543   0.60095   0.01267  Uiso   1.00
O37    O     0.34459   0.99343   0.20515   0.01267  Uiso   1.00
O38    O     0.33015   0.99174   0.37905   0.01267  Uiso   1.00
O39    O     0.05352   0.85752   0.33492   0.01267  Uiso   1.00
O40    O     0.13791   0.89905   0.46457   0.01267  Uiso   1.00
O41    O     0.99343   0.20515   0.34459   0.01267  Uiso   1.00
O42    O     0.99174   0.37905   0.33015   0.01267  Uiso   1.00
O43    O     0.85752   0.33492   0.05352   0.01267  Uiso   1.00
O44    O     0.89905   0.46457   0.13791   0.01267  Uiso   1.00
O45    O     0.20515   0.34459   0.99343   0.01267  Uiso   1.00
O46    O     0.37905   0.33015   0.99174   0.01267  Uiso   1.00
O47    O     0.33492   0.05352   0.85752   0.01267  Uiso   1.00
O48    O     0.46457   0.13791   0.89905   0.01267  Uiso   1.00
