data_image0
_cell_length_a       19.556
_cell_length_b       16.33
_cell_length_c       25.573
_cell_angle_alpha    90
_cell_angle_beta     91.097
_cell_angle_gamma    90

_symmetry_space_group_name_H-M    "P 1"
_symmetry_int_tables_number       1

loop_
  _symmetry_equiv_pos_as_xyz
  'x, y, z'

loop_
  _atom_site_label
  _atom_site_occupancy
  _atom_site_fract_x
  _atom_site_fract_y
  _atom_site_fract_z
  _atom_site_thermal_displace_type
  _atom_site_B_iso_or_equiv
  _atom_site_type_symbol
  C1       1.0000 0.37000  0.38910  0.21910  Biso   1.000  C
  C2       1.0000 0.12320  0.93660  0.37060  Biso   1.000  C
  C3       1.0000 0.45840  0.59960  0.02590  Biso   1.000  C
  H1       1.0000 0.42960  0.61870  0.99820  Biso   1.000  H
  C4       1.0000 0.12380  0.06470  0.23340  Biso   1.000  C
  C5       1.0000 0.27580  0.23740  0.35440  Biso   1.000  C
  C6       1.0000 0.61110  0.58500  0.26310  Biso   1.000  C
  C7       1.0000 0.47590  0.46110  0.18600  Biso   1.000  C
  C8       1.0000 0.42770  0.45000  0.22380  Biso   1.000  C
  C9       1.0000 0.13940  0.82290  0.31220  Biso   1.000  C
  C10      1.0000 0.53500  0.37800  0.12440  Biso   1.000  C
  C11      1.0000 0.01400  0.90020  0.29860  Biso   1.000  C
  C12      1.0000 0.06850  0.00620  0.24650  Biso   1.000  C
  C13      1.0000 0.07340  0.94150  0.28350  Biso   1.000  C
  C14      1.0000 0.58310  0.51000  0.15060  Biso   1.000  C
  H2       1.0000 0.62660  0.54040  0.15800  Biso   1.000  H
  C15      1.0000 0.95270  0.91100  0.27230  Biso   1.000  C
  C16      1.0000 0.31570  0.31050  0.43760  Biso   1.000  C
  C17      1.0000 0.28460  0.25680  0.52210  Biso   1.000  C
  C18      1.0000 0.53710  0.50710  0.19820  Biso   1.000  C
  C19      1.0000 0.24970  0.19400  0.49640  Biso   1.000  C
  H3       1.0000 0.22520  0.15510  0.51630  Biso   1.000  H
  C20      1.0000 0.06060  0.90400  0.38690  Biso   1.000  C
  C21      1.0000 0.02660  0.84600  0.34820  Biso   1.000  C
  H4       1.0000 0.98420  0.81960  0.36160  Biso   1.000  H
  C22      1.0000 0.54870  0.38140  0.49660  Biso   1.000  C
  H5       1.0000 0.59050  0.38260  0.51620  Biso   1.000  H
  C23      1.0000 0.13710  0.91510  0.31400  Biso   1.000  C
  H6       1.0000 0.17970  0.94120  0.30080  Biso   1.000  H
  C24      1.0000 0.31920  0.46570  0.48500  Biso   1.000  C
  C25      1.0000 0.43700  0.48840  0.27310  Biso   1.000  C
  H7       1.0000 0.40310  0.48350  0.29900  Biso   1.000  H
  C26      1.0000 0.59600  0.41920  0.13700  Biso   1.000  C
  C27      1.0000 0.15960  0.98850  0.40240  Biso   1.000  C
  H8       1.0000 0.19970  0.01430  0.39010  Biso   1.000  H
  C28      1.0000 0.28190  0.24660  0.41250  Biso   1.000  C
  C29      1.0000 0.31650  0.31500  0.49200  Biso   1.000  C
  C30      1.0000 0.48610  0.38610  0.52290  Biso   1.000  C
  H9       1.0000 0.48510  0.38980  0.55990  Biso   1.000  H
  C31      1.0000 0.13730  0.00330  0.45320  Biso   1.000  C
  H10      1.0000 0.16390  0.03640  0.47640  Biso   1.000  H
  C32      1.0000 0.35530  0.38120  0.41280  Biso   1.000  C
  H11      1.0000 0.35690  0.37740  0.37380  Biso   1.000  H
  C33      1.0000 0.48200  0.50430  0.09470  Biso   1.000  C
  C34      1.0000 0.24990  0.18700  0.44280  Biso   1.000  C
  H12      1.0000 0.22820  0.14150  0.42620  Biso   1.000  H
  C35      1.0000 0.48900  0.37880  0.41400  Biso   1.000  C
  H13      1.0000 0.48970  0.38070  0.37690  Biso   1.000  H
  C36      1.0000 0.35340  0.39220  0.51280  Biso   1.000  C
  H14      1.0000 0.35220  0.39680  0.55180  Biso   1.000  H
  C37      1.0000 0.28980  0.52940  0.50940  Biso   1.000  C
  H15      1.0000 0.28880  0.53210  0.54640  Biso   1.000  H
  C38      1.0000 0.08090  0.78500  0.33140  Biso   1.000  C
  C39      1.0000 0.65910  0.38270  0.13350  Biso   1.000  C
  H16      1.0000 0.70010  0.41260  0.14000  Biso   1.000  H
  C40      1.0000 0.51500  0.63990  0.03770  Biso   1.000  C
  H17      1.0000 0.52580  0.68780  0.01840  Biso   1.000  H
  C41      1.0000 0.53670  0.29540  0.11090  Biso   1.000  C
  H18      1.0000 0.49600  0.26590  0.10270  Biso   1.000  H
  C42      1.0000 0.19130  0.69370  0.29880  Biso   1.000  C
  H19      1.0000 0.22890  0.66190  0.28730  Biso   1.000  H
  C43      1.0000 0.00600  0.01600  0.21980  Biso   1.000  C
  H20      1.0000 0.00210  0.05470  0.19220  Biso   1.000  H
  C44      1.0000 0.54570  0.53930  0.24680  Biso   1.000  C
  C45      1.0000 0.94940  0.96930  0.23360  Biso   1.000  C
  H21      1.0000 0.90700  0.97810  0.21560  Biso   1.000  H
  C46      1.0000 0.28410  0.25740  0.58030  Biso   1.000  C
  C47      1.0000 0.19350  0.77470  0.29510  Biso   1.000  C
  H22      1.0000 0.23250  0.80030  0.28070  Biso   1.000  H
  C48      1.0000 0.26520  0.58770  0.42560  Biso   1.000  C
  H23      1.0000 0.24750  0.63100  0.40460  Biso   1.000  H
  C49      1.0000 0.03940  0.91840  0.43640  Biso   1.000  C
  H24      1.0000 0.99900  0.89360  0.44910  Biso   1.000  H
  C50      1.0000 0.49450  0.53200  0.28310  Biso   1.000  C
  H25      1.0000 0.50000  0.55850  0.31600  Biso   1.000  H
  C51      1.0000 0.07960  0.97160  0.46880  Biso   1.000  C
  H26      1.0000 0.06400  0.98440  0.50280  Biso   1.000  H
  C52      1.0000 0.56050  0.61350  0.07860  Biso   1.000  C
  H27      1.0000 0.60260  0.64070  0.08580  Biso   1.000  H
  C53      1.0000 0.43990  0.52920  0.05350  Biso   1.000  C
  H28      1.0000 0.39970  0.49940  0.04420  Biso   1.000  H
  C54      1.0000 0.26110  0.59130  0.47850  Biso   1.000  C
  H29      1.0000 0.23860  0.63610  0.49450  Biso   1.000  H
  C55      1.0000 0.47120  0.43110  0.12920  Biso   1.000  C
  H30      1.0000 0.42780  0.40100  0.12090  Biso   1.000  H
  C56      1.0000 0.59990  0.25820  0.11000  Biso   1.000  C
  H31      1.0000 0.60230  0.20140  0.10210  Biso   1.000  H
  C57      1.0000 0.07830  0.70240  0.33600  Biso   1.000  C
  H32      1.0000 0.03930  0.67690  0.35040  Biso   1.000  H
  C58      1.0000 0.55020  0.37510  0.44310  Biso   1.000  C
  H33      1.0000 0.59250  0.36830  0.42600  Biso   1.000  H
  C59      1.0000 0.29530  0.52040  0.40250  Biso   1.000  C
  H34      1.0000 0.29710  0.51790  0.36540  Biso   1.000  H
  C60      1.0000 0.42770  0.37970  0.43980  Biso   1.000  C
  C61      1.0000 0.88780  0.86530  0.28190  Biso   1.000  C
  C62      1.0000 0.32240  0.45770  0.43130  Biso   1.000  C
  C63      1.0000 0.42540  0.38510  0.49270  Biso   1.000  C
  C64      1.0000 0.54100  0.54930  0.10580  Biso   1.000  C
  C65      1.0000 0.13340  0.65450  0.31960  Biso   1.000  C
  H35      1.0000 0.13190  0.59650  0.32240  Biso   1.000  H
  C66      1.0000 0.66050  0.30060  0.12010  Biso   1.000  C
  H36      1.0000 0.70310  0.27300  0.11790  Biso   1.000  H
  O1       1.0000 0.38540  0.32730  0.19410  Biso   1.000  O
  O2       1.0000 0.31500  0.40430  0.24080  Biso   1.000  O
  O3       1.0000 0.66480  0.56850  0.24210  Biso   1.000  O
  O4       1.0000 0.26990  0.16750  0.33570  Biso   1.000  O
  O5       1.0000 0.27340  0.30340  0.32920  Biso   1.000  O
  O6       1.0000 0.83740  0.89080  0.25570  Biso   1.000  O
  O7       1.0000 0.33930  0.28160  0.60280  Biso   1.000  O
  O8       1.0000 0.24870  0.22290  0.21410  Biso   1.000  O
  O9       1.0000 0.11240  0.12210  0.20220  Biso   1.000  O
  O10      1.0000 0.18060  0.05490  0.25830  Biso   1.000  O
  O11      1.0000 0.23430  0.22870  0.60380  Biso   1.000  O
  O12      1.0000 0.60170  0.63960  0.29620  Biso   1.000  O
  O13      1.0000 0.88810  0.80700  0.31350  Biso   1.000  O
  Zn1      1.0000 0.33330  0.22427  0.17748  Biso   1.000  Zn
  Zn2      1.0000 0.25114  0.13561  0.26296  Biso   1.000  Zn
  Zn3      1.0000 0.17105  0.20892  0.16223  Biso   1.000  Zn
  Zn4      1.0000 0.24348  0.32172  0.25520  Biso   1.000  Zn
  C67      1.0000 0.63000  0.88910  0.28090  Biso   1.000  C
  C68      1.0000 0.87680  0.43660  0.12940  Biso   1.000  C
  C69      1.0000 0.54160  0.09960  0.47410  Biso   1.000  C
  H37      1.0000 0.57040  0.11870  0.50180  Biso   1.000  H
  C70      1.0000 0.87620  0.56470  0.26660  Biso   1.000  C
  C71      1.0000 0.72420  0.73740  0.14560  Biso   1.000  C
  C72      1.0000 0.38890  0.08500  0.23690  Biso   1.000  C
  C73      1.0000 0.52410  0.96110  0.31400  Biso   1.000  C
  C74      1.0000 0.57230  0.95000  0.27620  Biso   1.000  C
  C75      1.0000 0.86060  0.32290  0.18780  Biso   1.000  C
  C76      1.0000 0.46500  0.87800  0.37560  Biso   1.000  C
  C77      1.0000 0.98600  0.40020  0.20140  Biso   1.000  C
  C78      1.0000 0.93150  0.50620  0.25350  Biso   1.000  C
  C79      1.0000 0.92660  0.44150  0.21650  Biso   1.000  C
  C80      1.0000 0.41690  0.01000  0.34940  Biso   1.000  C
  H38      1.0000 0.37340  0.04040  0.34200  Biso   1.000  H
  C81      1.0000 0.04730  0.41100  0.22770  Biso   1.000  C
  C82      1.0000 0.68430  0.81050  0.06240  Biso   1.000  C
  C83      1.0000 0.71540  0.75680  0.97790  Biso   1.000  C
  C84      1.0000 0.46290  0.00710  0.30180  Biso   1.000  C
  C85      1.0000 0.75030  0.69400  0.00360  Biso   1.000  C
  H39      1.0000 0.77480  0.65510  0.98370  Biso   1.000  H
  C86      1.0000 0.93940  0.40400  0.11310  Biso   1.000  C
  C87      1.0000 0.97340  0.34600  0.15180  Biso   1.000  C
  H40      1.0000 0.01580  0.31960  0.13840  Biso   1.000  H
  C88      1.0000 0.45130  0.88140  0.00340  Biso   1.000  C
  H41      1.0000 0.40950  0.88260  0.98380  Biso   1.000  H
  C89      1.0000 0.86290  0.41510  0.18600  Biso   1.000  C
  H42      1.0000 0.82030  0.44120  0.19920  Biso   1.000  H
  C90      1.0000 0.68080  0.96570  0.01500  Biso   1.000  C
  C91      1.0000 0.56300  0.98840  0.22690  Biso   1.000  C
  H43      1.0000 0.59690  0.98350  0.20100  Biso   1.000  H
  C92      1.0000 0.40400  0.91920  0.36300  Biso   1.000  C
  C93      1.0000 0.84040  0.48850  0.09760  Biso   1.000  C
  H44      1.0000 0.80030  0.51430  0.10990  Biso   1.000  H
  C94      1.0000 0.71810  0.74660  0.08750  Biso   1.000  C
  C95      1.0000 0.68350  0.81500  0.00800  Biso   1.000  C
  C96      1.0000 0.51390  0.88610  0.97710  Biso   1.000  C
  H45      1.0000 0.51490  0.88980  0.94010  Biso   1.000  H
  C97      1.0000 0.86270  0.50330  0.04680  Biso   1.000  C
  H46      1.0000 0.83610  0.53640  0.02360  Biso   1.000  H
  C98      1.0000 0.64470  0.88120  0.08720  Biso   1.000  C
  H47      1.0000 0.64310  0.87740  0.12620  Biso   1.000  H
  C99      1.0000 0.51800  0.00430  0.40530  Biso   1.000  C
  C100     1.0000 0.75010  0.68700  0.05720  Biso   1.000  C
  H48      1.0000 0.77180  0.64150  0.07380  Biso   1.000  H
  C101     1.0000 0.51100  0.87880  0.08600  Biso   1.000  C
  H49      1.0000 0.51030  0.88070  0.12310  Biso   1.000  H
  C102     1.0000 0.64660  0.89220  0.98720  Biso   1.000  C
  H50      1.0000 0.64780  0.89680  0.94820  Biso   1.000  H
  C103     1.0000 0.71020  0.02940  0.99060  Biso   1.000  C
  H51      1.0000 0.71120  0.03210  0.95360  Biso   1.000  H
  C104     1.0000 0.91910  0.28500  0.16860  Biso   1.000  C
  C105     1.0000 0.34090  0.88270  0.36650  Biso   1.000  C
  H52      1.0000 0.29990  0.91260  0.36000  Biso   1.000  H
  C106     1.0000 0.48500  0.13990  0.46230  Biso   1.000  C
  H53      1.0000 0.47420  0.18780  0.48160  Biso   1.000  H
  C107     1.0000 0.46330  0.79540  0.38910  Biso   1.000  C
  H54      1.0000 0.50400  0.76590  0.39730  Biso   1.000  H
  C108     1.0000 0.80870  0.19370  0.20120  Biso   1.000  C
  H55      1.0000 0.77110  0.16190  0.21270  Biso   1.000  H
  C109     1.0000 0.99400  0.51600  0.28020  Biso   1.000  C
  H56      1.0000 0.99790  0.55470  0.30780  Biso   1.000  H
  C110     1.0000 0.45430  0.03930  0.25320  Biso   1.000  C
  C111     1.0000 0.05060  0.46930  0.26640  Biso   1.000  C
  H57      1.0000 0.09300  0.47810  0.28440  Biso   1.000  H
  C112     1.0000 0.71590  0.75740  0.91970  Biso   1.000  C
  C113     1.0000 0.80650  0.27470  0.20490  Biso   1.000  C
  H58      1.0000 0.76750  0.30030  0.21930  Biso   1.000  H
  C114     1.0000 0.73480  0.08770  0.07440  Biso   1.000  C
  H59      1.0000 0.75250  0.13100  0.09540  Biso   1.000  H
  C115     1.0000 0.96060  0.41840  0.06360  Biso   1.000  C
  H60      1.0000 0.00100  0.39360  0.05090  Biso   1.000  H
  C116     1.0000 0.50550  0.03200  0.21690  Biso   1.000  C
  H61      1.0000 0.50000  0.05850  0.18400  Biso   1.000  H
  C117     1.0000 0.92040  0.47160  0.03120  Biso   1.000  C
  H62      1.0000 0.93600  0.48440  0.99720  Biso   1.000  H
  C118     1.0000 0.43950  0.11350  0.42140  Biso   1.000  C
  H63      1.0000 0.39740  0.14070  0.41420  Biso   1.000  H
  C119     1.0000 0.56010  0.02920  0.44650  Biso   1.000  C
  H64      1.0000 0.60030  0.99940  0.45580  Biso   1.000  H
  C120     1.0000 0.73890  0.09130  0.02150  Biso   1.000  C
  H65      1.0000 0.76140  0.13610  0.00550  Biso   1.000  H
  C121     1.0000 0.52880  0.93110  0.37080  Biso   1.000  C
  H66      1.0000 0.57220  0.90100  0.37910  Biso   1.000  H
  C122     1.0000 0.40010  0.75820  0.39000  Biso   1.000  C
  H67      1.0000 0.39770  0.70140  0.39790  Biso   1.000  H
  C123     1.0000 0.92170  0.20240  0.16400  Biso   1.000  C
  H68      1.0000 0.96070  0.17690  0.14960  Biso   1.000  H
  C124     1.0000 0.44980  0.87510  0.05690  Biso   1.000  C
  H69      1.0000 0.40750  0.86830  0.07400  Biso   1.000  H
  C125     1.0000 0.70470  0.02040  0.09750  Biso   1.000  C
  H70      1.0000 0.70290  0.01790  0.13460  Biso   1.000  H
  C126     1.0000 0.57230  0.87970  0.06020  Biso   1.000  C
  C127     1.0000 0.11220  0.36530  0.21810  Biso   1.000  C
  C128     1.0000 0.67760  0.95770  0.06870  Biso   1.000  C
  C129     1.0000 0.57460  0.88510  0.00730  Biso   1.000  C
  C130     1.0000 0.45900  0.04930  0.39420  Biso   1.000  C
  C131     1.0000 0.86660  0.15450  0.18040  Biso   1.000  C
  H71      1.0000 0.86810  0.09650  0.17760  Biso   1.000  H
  C132     1.0000 0.33950  0.80060  0.37990  Biso   1.000  C
  H72      1.0000 0.29690  0.77300  0.38210  Biso   1.000  H
  O14      1.0000 0.61460  0.82730  0.30590  Biso   1.000  O
  O15      1.0000 0.68500  0.90430  0.25920  Biso   1.000  O
  O16      1.0000 0.33520  0.06850  0.25790  Biso   1.000  O
  O17      1.0000 0.73010  0.66750  0.16430  Biso   1.000  O
  O18      1.0000 0.72660  0.80340  0.17080  Biso   1.000  O
  O19      1.0000 0.16260  0.39080  0.24430  Biso   1.000  O
  O20      1.0000 0.66070  0.78160  0.89720  Biso   1.000  O
  O21      1.0000 0.75130  0.72290  0.28590  Biso   1.000  O
  O22      1.0000 0.88760  0.62210  0.29780  Biso   1.000  O
  O23      1.0000 0.81940  0.55490  0.24170  Biso   1.000  O
  O24      1.0000 0.76570  0.72870  0.89620  Biso   1.000  O
  O25      1.0000 0.39830  0.13960  0.20380  Biso   1.000  O
  O26      1.0000 0.11190  0.30700  0.18650  Biso   1.000  O
  Zn5      1.0000 0.66670  0.72427  0.32252  Biso   1.000  Zn
  Zn6      1.0000 0.74886  0.63561  0.23704  Biso   1.000  Zn
  Zn7      1.0000 0.82895  0.70892  0.33777  Biso   1.000  Zn
  Zn8      1.0000 0.75652  0.82172  0.24480  Biso   1.000  Zn
  C133     1.0000 0.63000  0.61090  0.78090  Biso   1.000  C
  C134     1.0000 0.87680  0.06340  0.62940  Biso   1.000  C
  C135     1.0000 0.54160  0.40040  0.97410  Biso   1.000  C
  H73      1.0000 0.57040  0.38130  0.00180  Biso   1.000  H
  C136     1.0000 0.87620  0.93530  0.76660  Biso   1.000  C
  C137     1.0000 0.72420  0.76260  0.64560  Biso   1.000  C
  C138     1.0000 0.38890  0.41500  0.73690  Biso   1.000  C
  C139     1.0000 0.52410  0.53890  0.81400  Biso   1.000  C
  C140     1.0000 0.57230  0.55000  0.77620  Biso   1.000  C
  C141     1.0000 0.86060  0.17710  0.68780  Biso   1.000  C
  C142     1.0000 0.46500  0.62200  0.87560  Biso   1.000  C
  C143     1.0000 0.98600  0.09980  0.70140  Biso   1.000  C
  C144     1.0000 0.93150  0.99380  0.75350  Biso   1.000  C
  C145     1.0000 0.92660  0.05850  0.71650  Biso   1.000  C
  C146     1.0000 0.41690  0.49000  0.84940  Biso   1.000  C
  H74      1.0000 0.37340  0.45960  0.84200  Biso   1.000  H
  C147     1.0000 0.04730  0.08900  0.72770  Biso   1.000  C
  C148     1.0000 0.68430  0.68950  0.56240  Biso   1.000  C
  C149     1.0000 0.71540  0.74320  0.47790  Biso   1.000  C
  C150     1.0000 0.46290  0.49290  0.80180  Biso   1.000  C
  C151     1.0000 0.75030  0.80600  0.50360  Biso   1.000  C
  H75      1.0000 0.77480  0.84490  0.48370  Biso   1.000  H
  C152     1.0000 0.93940  0.09600  0.61310  Biso   1.000  C
  C153     1.0000 0.97340  0.15400  0.65180  Biso   1.000  C
  H76      1.0000 0.01580  0.18040  0.63840  Biso   1.000  H
  C154     1.0000 0.45130  0.61860  0.50340  Biso   1.000  C
  H77      1.0000 0.40950  0.61740  0.48380  Biso   1.000  H
  C155     1.0000 0.86290  0.08490  0.68600  Biso   1.000  C
  H78      1.0000 0.82030  0.05880  0.69920  Biso   1.000  H
  C156     1.0000 0.68080  0.53430  0.51500  Biso   1.000  C
  C157     1.0000 0.56300  0.51160  0.72690  Biso   1.000  C
  H79      1.0000 0.59690  0.51650  0.70100  Biso   1.000  H
  C158     1.0000 0.40400  0.58080  0.86300  Biso   1.000  C
  C159     1.0000 0.84040  0.01150  0.59760  Biso   1.000  C
  H80      1.0000 0.80030  0.98570  0.60990  Biso   1.000  H
  C160     1.0000 0.71810  0.75340  0.58750  Biso   1.000  C
  C161     1.0000 0.68350  0.68500  0.50800  Biso   1.000  C
  C162     1.0000 0.51390  0.61390  0.47710  Biso   1.000  C
  H81      1.0000 0.51490  0.61020  0.44010  Biso   1.000  H
  C163     1.0000 0.86270  0.99670  0.54680  Biso   1.000  C
  H82      1.0000 0.83610  0.96360  0.52360  Biso   1.000  H
  C164     1.0000 0.64470  0.61880  0.58720  Biso   1.000  C
  H83      1.0000 0.64310  0.62260  0.62620  Biso   1.000  H
  C165     1.0000 0.51800  0.49570  0.90530  Biso   1.000  C
  C166     1.0000 0.75010  0.81300  0.55720  Biso   1.000  C
  H84      1.0000 0.77180  0.85850  0.57380  Biso   1.000  H
  C167     1.0000 0.51100  0.62120  0.58600  Biso   1.000  C
  H85      1.0000 0.51030  0.61930  0.62310  Biso   1.000  H
  C168     1.0000 0.64660  0.60780  0.48720  Biso   1.000  C
  H86      1.0000 0.64780  0.60320  0.44820  Biso   1.000  H
  C169     1.0000 0.71020  0.47060  0.49060  Biso   1.000  C
  H87      1.0000 0.71120  0.46790  0.45360  Biso   1.000  H
  C170     1.0000 0.91910  0.21500  0.66860  Biso   1.000  C
  C171     1.0000 0.34090  0.61730  0.86650  Biso   1.000  C
  H88      1.0000 0.29990  0.58740  0.86000  Biso   1.000  H
  C172     1.0000 0.48500  0.36010  0.96230  Biso   1.000  C
  H89      1.0000 0.47420  0.31220  0.98160  Biso   1.000  H
  C173     1.0000 0.46330  0.70460  0.88910  Biso   1.000  C
  H90      1.0000 0.50400  0.73410  0.89730  Biso   1.000  H
  C174     1.0000 0.80870  0.30630  0.70120  Biso   1.000  C
  H91      1.0000 0.77110  0.33810  0.71270  Biso   1.000  H
  C175     1.0000 0.99400  0.98400  0.78020  Biso   1.000  C
  H92      1.0000 0.99790  0.94530  0.80780  Biso   1.000  H
  C176     1.0000 0.45430  0.46070  0.75320  Biso   1.000  C
  C177     1.0000 0.05060  0.03070  0.76640  Biso   1.000  C
  H93      1.0000 0.09300  0.02190  0.78440  Biso   1.000  H
  C178     1.0000 0.71590  0.74260  0.41970  Biso   1.000  C
  C179     1.0000 0.80650  0.22530  0.70490  Biso   1.000  C
  H94      1.0000 0.76750  0.19970  0.71930  Biso   1.000  H
  C180     1.0000 0.73480  0.41230  0.57440  Biso   1.000  C
  H95      1.0000 0.75250  0.36900  0.59540  Biso   1.000  H
  C181     1.0000 0.96060  0.08160  0.56360  Biso   1.000  C
  H96      1.0000 0.00100  0.10640  0.55090  Biso   1.000  H
  C182     1.0000 0.50550  0.46800  0.71690  Biso   1.000  C
  H97      1.0000 0.50000  0.44150  0.68400  Biso   1.000  H
  C183     1.0000 0.92040  0.02840  0.53120  Biso   1.000  C
  H98      1.0000 0.93600  0.01560  0.49720  Biso   1.000  H
  C184     1.0000 0.43950  0.38650  0.92140  Biso   1.000  C
  H99      1.0000 0.39740  0.35930  0.91420  Biso   1.000  H
  C185     1.0000 0.56010  0.47080  0.94650  Biso   1.000  C
  H100     1.0000 0.60030  0.50060  0.95580  Biso   1.000  H
  C186     1.0000 0.73890  0.40870  0.52150  Biso   1.000  C
  H101     1.0000 0.76140  0.36390  0.50550  Biso   1.000  H
  C187     1.0000 0.52880  0.56890  0.87080  Biso   1.000  C
  H102     1.0000 0.57220  0.59900  0.87910  Biso   1.000  H
  C188     1.0000 0.40010  0.74180  0.89000  Biso   1.000  C
  H103     1.0000 0.39770  0.79860  0.89790  Biso   1.000  H
  C189     1.0000 0.92170  0.29760  0.66400  Biso   1.000  C
  H104     1.0000 0.96070  0.32310  0.64960  Biso   1.000  H
  C190     1.0000 0.44980  0.62490  0.55690  Biso   1.000  C
  H105     1.0000 0.40750  0.63170  0.57400  Biso   1.000  H
  C191     1.0000 0.70470  0.47960  0.59750  Biso   1.000  C
  H106     1.0000 0.70290  0.48210  0.63460  Biso   1.000  H
  C192     1.0000 0.57230  0.62030  0.56020  Biso   1.000  C
  C193     1.0000 0.11220  0.13470  0.71810  Biso   1.000  C
  C194     1.0000 0.67760  0.54230  0.56870  Biso   1.000  C
  C195     1.0000 0.57460  0.61490  0.50730  Biso   1.000  C
  C196     1.0000 0.45900  0.45070  0.89420  Biso   1.000  C
  C197     1.0000 0.86660  0.34550  0.68040  Biso   1.000  C
  H107     1.0000 0.86810  0.40350  0.67760  Biso   1.000  H
  C198     1.0000 0.33950  0.69940  0.87990  Biso   1.000  C
  H108     1.0000 0.29690  0.72700  0.88210  Biso   1.000  H
  O27      1.0000 0.61460  0.67270  0.80590  Biso   1.000  O
  O28      1.0000 0.68500  0.59570  0.75920  Biso   1.000  O
  O29      1.0000 0.33520  0.43150  0.75790  Biso   1.000  O
  O30      1.0000 0.73010  0.83250  0.66430  Biso   1.000  O
  O31      1.0000 0.72660  0.69660  0.67080  Biso   1.000  O
  O32      1.0000 0.16260  0.10920  0.74430  Biso   1.000  O
  O33      1.0000 0.66070  0.71840  0.39720  Biso   1.000  O
  O34      1.0000 0.75130  0.77710  0.78590  Biso   1.000  O
  O35      1.0000 0.88760  0.87790  0.79780  Biso   1.000  O
  O36      1.0000 0.81940  0.94510  0.74170  Biso   1.000  O
  O37      1.0000 0.76570  0.77130  0.39620  Biso   1.000  O
  O38      1.0000 0.39830  0.36040  0.70380  Biso   1.000  O
  O39      1.0000 0.11190  0.19300  0.68650  Biso   1.000  O
  Zn9      1.0000 0.66670  0.77573  0.82252  Biso   1.000  Zn
  Zn10     1.0000 0.74886  0.86439  0.73704  Biso   1.000  Zn
  Zn11     1.0000 0.82895  0.79108  0.83777  Biso   1.000  Zn
  Zn12     1.0000 0.75652  0.67828  0.74480  Biso   1.000  Zn
  C199     1.0000 0.37000  0.11090  0.71910  Biso   1.000  C
  C200     1.0000 0.12320  0.56340  0.87060  Biso   1.000  C
  C201     1.0000 0.45840  0.90040  0.52590  Biso   1.000  C
  H109     1.0000 0.42960  0.88130  0.49820  Biso   1.000  H
  C202     1.0000 0.12380  0.43530  0.73340  Biso   1.000  C
  C203     1.0000 0.27580  0.26260  0.85440  Biso   1.000  C
  C204     1.0000 0.61110  0.91500  0.76310  Biso   1.000  C
  C205     1.0000 0.47590  0.03890  0.68600  Biso   1.000  C
  C206     1.0000 0.42770  0.05000  0.72380  Biso   1.000  C
  C207     1.0000 0.13940  0.67710  0.81220  Biso   1.000  C
  C208     1.0000 0.53500  0.12200  0.62440  Biso   1.000  C
  C209     1.0000 0.01400  0.59980  0.79860  Biso   1.000  C
  C210     1.0000 0.06850  0.49380  0.74650  Biso   1.000  C
  C211     1.0000 0.07340  0.55850  0.78350  Biso   1.000  C
  C212     1.0000 0.58310  0.99000  0.65060  Biso   1.000  C
  H110     1.0000 0.62660  0.95960  0.65800  Biso   1.000  H
  C213     1.0000 0.95270  0.58900  0.77230  Biso   1.000  C
  C214     1.0000 0.31570  0.18950  0.93760  Biso   1.000  C
  C215     1.0000 0.28460  0.24320  0.02210  Biso   1.000  C
  C216     1.0000 0.53710  0.99290  0.69820  Biso   1.000  C
  C217     1.0000 0.24970  0.30600  0.99640  Biso   1.000  C
  H111     1.0000 0.22520  0.34490  0.01630  Biso   1.000  H
  C218     1.0000 0.06060  0.59600  0.88690  Biso   1.000  C
  C219     1.0000 0.02660  0.65400  0.84820  Biso   1.000  C
  H112     1.0000 0.98420  0.68040  0.86160  Biso   1.000  H
  C220     1.0000 0.54870  0.11860  0.99660  Biso   1.000  C
  H113     1.0000 0.59050  0.11740  0.01620  Biso   1.000  H
  C221     1.0000 0.13710  0.58490  0.81400  Biso   1.000  C
  H114     1.0000 0.17970  0.55880  0.80080  Biso   1.000  H
  C222     1.0000 0.31920  0.03430  0.98500  Biso   1.000  C
  C223     1.0000 0.43700  0.01160  0.77310  Biso   1.000  C
  H115     1.0000 0.40310  0.01650  0.79900  Biso   1.000  H
  C224     1.0000 0.59600  0.08080  0.63700  Biso   1.000  C
  C225     1.0000 0.15960  0.51150  0.90240  Biso   1.000  C
  H116     1.0000 0.19970  0.48570  0.89010  Biso   1.000  H
  C226     1.0000 0.28190  0.25340  0.91250  Biso   1.000  C
  C227     1.0000 0.31650  0.18500  0.99200  Biso   1.000  C
  C228     1.0000 0.48610  0.11390  0.02290  Biso   1.000  C
  H117     1.0000 0.48510  0.11020  0.05990  Biso   1.000  H
  C229     1.0000 0.13730  0.49670  0.95320  Biso   1.000  C
  H118     1.0000 0.16390  0.46360  0.97640  Biso   1.000  H
  C230     1.0000 0.35530  0.11880  0.91280  Biso   1.000  C
  H119     1.0000 0.35690  0.12260  0.87380  Biso   1.000  H
  C231     1.0000 0.48200  0.99570  0.59470  Biso   1.000  C
  C232     1.0000 0.24990  0.31300  0.94280  Biso   1.000  C
  H120     1.0000 0.22820  0.35850  0.92620  Biso   1.000  H
  C233     1.0000 0.48900  0.12120  0.91400  Biso   1.000  C
  H121     1.0000 0.48970  0.11930  0.87690  Biso   1.000  H
  C234     1.0000 0.35340  0.10780  0.01280  Biso   1.000  C
  H122     1.0000 0.35220  0.10320  0.05180  Biso   1.000  H
  C235     1.0000 0.28980  0.97060  0.00940  Biso   1.000  C
  H123     1.0000 0.28880  0.96790  0.04640  Biso   1.000  H
  C236     1.0000 0.08090  0.71500  0.83140  Biso   1.000  C
  C237     1.0000 0.65910  0.11730  0.63350  Biso   1.000  C
  H124     1.0000 0.70010  0.08740  0.64000  Biso   1.000  H
  C238     1.0000 0.51500  0.86010  0.53770  Biso   1.000  C
  H125     1.0000 0.52580  0.81220  0.51840  Biso   1.000  H
  C239     1.0000 0.53670  0.20460  0.61090  Biso   1.000  C
  H126     1.0000 0.49600  0.23410  0.60270  Biso   1.000  H
  C240     1.0000 0.19130  0.80630  0.79880  Biso   1.000  C
  H127     1.0000 0.22890  0.83810  0.78730  Biso   1.000  H
  C241     1.0000 0.00600  0.48400  0.71980  Biso   1.000  C
  H128     1.0000 0.00210  0.44530  0.69220  Biso   1.000  H
  C242     1.0000 0.54570  0.96070  0.74680  Biso   1.000  C
  C243     1.0000 0.94940  0.53070  0.73360  Biso   1.000  C
  H129     1.0000 0.90700  0.52190  0.71560  Biso   1.000  H
  C244     1.0000 0.28410  0.24260  0.08030  Biso   1.000  C
  C245     1.0000 0.19350  0.72530  0.79510  Biso   1.000  C
  H130     1.0000 0.23250  0.69970  0.78070  Biso   1.000  H
  C246     1.0000 0.26520  0.91230  0.92560  Biso   1.000  C
  H131     1.0000 0.24750  0.86900  0.90460  Biso   1.000  H
  C247     1.0000 0.03940  0.58160  0.93640  Biso   1.000  C
  H132     1.0000 0.99900  0.60640  0.94910  Biso   1.000  H
  C248     1.0000 0.49450  0.96800  0.78310  Biso   1.000  C
  H133     1.0000 0.50000  0.94150  0.81600  Biso   1.000  H
  C249     1.0000 0.07960  0.52840  0.96880  Biso   1.000  C
  H134     1.0000 0.06400  0.51560  0.00280  Biso   1.000  H
  C250     1.0000 0.56050  0.88650  0.57860  Biso   1.000  C
  H135     1.0000 0.60260  0.85930  0.58580  Biso   1.000  H
  C251     1.0000 0.43990  0.97080  0.55350  Biso   1.000  C
  H136     1.0000 0.39970  0.00060  0.54420  Biso   1.000  H
  C252     1.0000 0.26110  0.90870  0.97850  Biso   1.000  C
  H137     1.0000 0.23860  0.86390  0.99450  Biso   1.000  H
  C253     1.0000 0.47120  0.06890  0.62920  Biso   1.000  C
  H138     1.0000 0.42780  0.09900  0.62090  Biso   1.000  H
  C254     1.0000 0.59990  0.24180  0.61000  Biso   1.000  C
  H139     1.0000 0.60230  0.29860  0.60210  Biso   1.000  H
  C255     1.0000 0.07830  0.79760  0.83600  Biso   1.000  C
  H140     1.0000 0.03930  0.82310  0.85040  Biso   1.000  H
  C256     1.0000 0.55020  0.12490  0.94310  Biso   1.000  C
  H141     1.0000 0.59250  0.13170  0.92600  Biso   1.000  H
  C257     1.0000 0.29530  0.97960  0.90250  Biso   1.000  C
  H142     1.0000 0.29710  0.98210  0.86540  Biso   1.000  H
  C258     1.0000 0.42770  0.12030  0.93980  Biso   1.000  C
  C259     1.0000 0.88780  0.63470  0.78190  Biso   1.000  C
  C260     1.0000 0.32240  0.04230  0.93130  Biso   1.000  C
  C261     1.0000 0.42540  0.11490  0.99270  Biso   1.000  C
  C262     1.0000 0.54100  0.95070  0.60580  Biso   1.000  C
  C263     1.0000 0.13340  0.84550  0.81960  Biso   1.000  C
  H143     1.0000 0.13190  0.90350  0.82240  Biso   1.000  H
  C264     1.0000 0.66050  0.19940  0.62010  Biso   1.000  C
  H144     1.0000 0.70310  0.22700  0.61790  Biso   1.000  H
  O40      1.0000 0.38540  0.17270  0.69410  Biso   1.000  O
  O41      1.0000 0.31500  0.09570  0.74080  Biso   1.000  O
  O42      1.0000 0.66480  0.93150  0.74210  Biso   1.000  O
  O43      1.0000 0.26990  0.33250  0.83570  Biso   1.000  O
  O44      1.0000 0.27340  0.19660  0.82920  Biso   1.000  O
  O45      1.0000 0.83740  0.60920  0.75570  Biso   1.000  O
  O46      1.0000 0.33930  0.21840  0.10280  Biso   1.000  O
  O47      1.0000 0.24870  0.27710  0.71410  Biso   1.000  O
  O48      1.0000 0.11240  0.37790  0.70220  Biso   1.000  O
  O49      1.0000 0.18060  0.44510  0.75830  Biso   1.000  O
  O50      1.0000 0.23430  0.27130  0.10380  Biso   1.000  O
  O51      1.0000 0.60170  0.86040  0.79620  Biso   1.000  O
  O52      1.0000 0.88810  0.69300  0.81350  Biso   1.000  O
  Zn13     1.0000 0.33330  0.27573  0.67748  Biso   1.000  Zn
  Zn14     1.0000 0.25114  0.36439  0.76296  Biso   1.000  Zn
  Zn15     1.0000 0.17105  0.29108  0.66223  Biso   1.000  Zn
  Zn16     1.0000 0.24348  0.17828  0.75520  Biso   1.000  Zn
