data_image0
_cell_length_a       21.898
_cell_length_b       22.149
_cell_length_c       24.663
_cell_angle_alpha    109.978
_cell_angle_beta     109.835
_cell_angle_gamma    104.489

_symmetry_space_group_name_H-M    "P 1"
_symmetry_int_tables_number       1

loop_
  _symmetry_equiv_pos_as_xyz
  'x, y, z'

loop_
  _atom_site_label
  _atom_site_occupancy
  _atom_site_fract_x
  _atom_site_fract_y
  _atom_site_fract_z
  _atom_site_thermal_displace_type
  _atom_site_B_iso_or_equiv
  _atom_site_type_symbol
  C1       1.0000 0.20870  0.71680  0.39460  Biso   1.000  C
  H1       1.0000 0.21000  0.67560  0.36680  Biso   1.000  H
  C2       1.0000 0.22140  0.73030  0.45790  Biso   1.000  C
  H2       1.0000 0.23050  0.69750  0.47250  Biso   1.000  H
  C3       1.0000 0.22100  0.78980  0.49950  Biso   1.000  C
  H3       1.0000 0.23110  0.79830  0.54270  Biso   1.000  H
  C4       1.0000 0.20580  0.83790  0.47840  Biso   1.000  C
  H4       1.0000 0.20460  0.87870  0.50690  Biso   1.000  H
  C5       1.0000 0.19230  0.82540  0.41470  Biso   1.000  C
  C6       1.0000 0.19410  0.76450  0.37278  Biso   1.000  C
  C7       1.0000 0.17960  0.76000  0.30673  Biso   1.000  C
  H5       1.0000 0.18090  0.71680  0.27710  Biso   1.000  H
  C8       1.0000 0.17440  0.87050  0.38346  Biso   1.000  C
  H6       1.0000 0.17290  0.91360  0.41310  Biso   1.000  H
  C9       1.0000 0.23180  0.82740  0.31750  Biso   1.000  C
  C10      1.0000 0.27750  0.83380  0.29030  Biso   1.000  C
  H7       1.0000 0.27840  0.79280  0.26180  Biso   1.000  H
  C11      1.0000 0.32110  0.89910  0.30450  Biso   1.000  C
  H8       1.0000 0.35210  0.90370  0.28560  Biso   1.000  H
  C12      1.0000 0.32000  0.95930  0.34720  Biso   1.000  C
  H9       1.0000 0.35160  0.00480  0.35840  Biso   1.000  H
  C13      1.0000 0.27220  0.95280  0.37390  Biso   1.000  C
  H10      1.0000 0.27020  0.99360  0.40170  Biso   1.000  H
  C14      1.0000 0.22930  0.88760  0.35900  Biso   1.000  C
  C15      1.0000 0.10757  0.76277  0.27997  Biso   1.000  C
  C16      1.0000 0.10403  0.82206  0.32167  Biso   1.000  C
  C17      1.0000 0.04313  0.83413  0.30478  Biso   1.000  C
  C18      1.0000 0.98513  0.78606  0.24455  Biso   1.000  C
  H11      1.0000 0.94300  0.79390  0.23140  Biso   1.000  H
  C19      1.0000 0.98735  0.72741  0.20355  Biso   1.000  C
  H12      1.0000 0.94630  0.69470  0.16300  Biso   1.000  H
  C20      1.0000 0.04894  0.71493  0.22031  Biso   1.000  C
  C21      1.0000 0.04821  0.65193  0.17102  Biso   1.000  C
  C22      1.0000 0.03471  0.89405  0.34741  Biso   1.000  C
  C23      1.0000 0.27770  0.22316  0.65858  Biso   1.000  C
  C24      1.0000 0.30070  0.17790  0.67720  Biso   1.000  C
  H13      1.0000 0.26760  0.13210  0.66380  Biso   1.000  H
  C25      1.0000 0.37220  0.19950  0.71540  Biso   1.000  C
  H14      1.0000 0.38870  0.16890  0.72930  Biso   1.000  H
  C26      1.0000 0.42070  0.26590  0.73380  Biso   1.000  C
  H15      1.0000 0.47020  0.28030  0.75950  Biso   1.000  H
  C27      1.0000 0.39680  0.31090  0.71490  Biso   1.000  C
  H16      1.0000 0.42980  0.35650  0.72780  Biso   1.000  H
  C28      1.0000 0.32530  0.28965  0.67731  Biso   1.000  C
  C29      1.0000 0.20156  0.20835  0.61584  Biso   1.000  C
  H17      1.0000 0.16670  0.16020  0.60180  Biso   1.000  H
  C30      1.0000 0.28999  0.33186  0.65143  Biso   1.000  C
  H18      1.0000 0.32510  0.38020  0.66620  Biso   1.000  H
  C31      1.0000 0.18602  0.26693  0.65467  Biso   1.000  C
  C32      1.0000 0.23339  0.33371  0.67284  Biso   1.000  C
  C33      1.0000 0.22400  0.39270  0.70592  Biso   1.000  C
  H19      1.0000 0.25580  0.43850  0.71800  Biso   1.000  H
  C34      1.0000 0.16810  0.38460  0.72120  Biso   1.000  C
  H20      1.0000 0.16110  0.42500  0.74270  Biso   1.000  H
  C35      1.0000 0.12230  0.31880  0.70560  Biso   1.000  C
  H21      1.0000 0.08540  0.31390  0.71800  Biso   1.000  H
  C36      1.0000 0.13100  0.25920  0.67137  Biso   1.000  C
  H22      1.0000 0.09930  0.21350  0.65960  Biso   1.000  H
  C37      1.0000 0.20250  0.22009  0.55778  Biso   1.000  C
  C38      1.0000 0.25210  0.28715  0.57765  Biso   1.000  C
  C39      1.0000 0.25960  0.30850  0.53220  Biso   1.000  C
  C40      1.0000 0.21650  0.26130  0.46660  Biso   1.000  C
  H23      1.0000 0.22100  0.27480  0.43500  Biso   1.000  H
  C41      1.0000 0.16720  0.19540  0.44630  Biso   1.000  C
  H24      1.0000 0.13760  0.16420  0.40100  Biso   1.000  H
  C42      1.0000 0.16070  0.17414  0.49196  Biso   1.000  C
  C43      1.0000 0.10573  0.10204  0.46641  Biso   1.000  C
  C44      1.0000 0.31290  0.37860  0.54960  Biso   1.000  C
  C45      1.0000 0.79060  0.15718  0.33178  Biso   1.000  C
  C46      1.0000 0.85200  0.21230  0.38420  Biso   1.000  C
  H25      1.0000 0.88280  0.20510  0.41690  Biso   1.000  H
  C47      1.0000 0.86750  0.27800  0.38780  Biso   1.000  C
  H26      1.0000 0.90870  0.31710  0.42460  Biso   1.000  H
  C48      1.0000 0.82490  0.28890  0.33940  Biso   1.000  C
  H27      1.0000 0.83710  0.33490  0.34300  Biso   1.000  H
  C49      1.0000 0.76550  0.23380  0.28670  Biso   1.000  C
  H28      1.0000 0.73670  0.24070  0.25270  Biso   1.000  H
  C50      1.0000 0.74750  0.16805  0.28310  Biso   1.000  C
  C51      1.0000 0.76470  0.08139  0.31953  Biso   1.000  C
  H29      1.0000 0.79660  0.07460  0.35490  Biso   1.000  H
  C52      1.0000 0.68446  0.10082  0.22872  Biso   1.000  C
  H30      1.0000 0.65240  0.10810  0.19380  Biso   1.000  H
  C53      1.0000 0.68970  0.06094  0.31113  Biso   1.000  C
  C54      1.0000 0.66390  0.03620  0.34727  Biso   1.000  C
  H31      1.0000 0.69380  0.02900  0.38040  Biso   1.000  H
  C55      1.0000 0.59300  0.02210  0.33400  Biso   1.000  C
  H32      1.0000 0.57440  0.00540  0.35820  Biso   1.000  H
  C56      1.0000 0.55070  0.03270  0.28580  Biso   1.000  C
  H33      1.0000 0.50280  0.02380  0.27730  Biso   1.000  H
  C57      1.0000 0.57690  0.05640  0.24840  Biso   1.000  C
  H34      1.0000 0.54650  0.06190  0.21410  Biso   1.000  H
  C58      1.0000 0.64680  0.07140  0.26226  Biso   1.000  C
  C59      1.0000 0.76008  0.03989  0.25303  Biso   1.000  C
  C60      1.0000 0.71706  0.05080  0.20370  Biso   1.000  C
  C61      1.0000 0.70918  0.01844  0.14056  Biso   1.000  C
  C62      1.0000 0.74476  0.97478  0.12769  Biso   1.000  C
  H35      1.0000 0.73800  0.95080  0.08460  Biso   1.000  H
  C63      1.0000 0.78891  0.96641  0.17640  Biso   1.000  C
  H36      1.0000 0.81510  0.93930  0.16760  Biso   1.000  H
  C64      1.0000 0.79584  0.99795  0.23999  Biso   1.000  C
  C65      1.0000 0.84270  0.98646  0.29198  Biso   1.000  C
  C66      1.0000 0.66351  0.02778  0.08650  Biso   1.000  C
  C67      1.0000 0.57663  0.34431  0.92903  Biso   1.000  C
  C68      1.0000 0.52570  0.36120  0.94424  Biso   1.000  C
  H37      1.0000 0.49320  0.32950  0.94990  Biso   1.000  H
  C69      1.0000 0.52300  0.42550  0.95109  Biso   1.000  C
  H38      1.0000 0.48850  0.43780  0.96170  Biso   1.000  H
  C70      1.0000 0.56980  0.47110  0.94265  Biso   1.000  C
  H39      1.0000 0.56730  0.51480  0.94790  Biso   1.000  H
  C71      1.0000 0.62100  0.45475  0.92645  Biso   1.000  C
  H40      1.0000 0.65300  0.48680  0.92070  Biso   1.000  H
  C72      1.0000 0.62399  0.39050  0.91900  Biso   1.000  C
  C73      1.0000 0.58839  0.27756  0.91900  Biso   1.000  C
  H41      1.0000 0.55510  0.24390  0.92550  Biso   1.000  H
  C74      1.0000 0.67408  0.36291  0.89968  Biso   1.000  C
  H42      1.0000 0.70750  0.39640  0.89320  Biso   1.000  H
  C75      1.0000 0.58181  0.24595  0.85041  Biso   1.000  C
  C76      1.0000 0.62748  0.29201  0.83960  Biso   1.000  C
  C77      1.0000 0.62860  0.27220  0.77956  Biso   1.000  C
  H43      1.0000 0.66100  0.30390  0.77380  Biso   1.000  H
  C78      1.0000 0.58170  0.20630  0.72969  Biso   1.000  C
  H44      1.0000 0.58040  0.19190  0.68820  Biso   1.000  H
  C79      1.0000 0.53610  0.16020  0.73970  Biso   1.000  C
  H45      1.0000 0.50390  0.11430  0.70470  Biso   1.000  H
  C80      1.0000 0.53643  0.18000  0.80080  Biso   1.000  C
  H46      1.0000 0.50540  0.14760  0.80710  Biso   1.000  H
  C81      1.0000 0.69414  0.28151  0.01271  Biso   1.000  C
  C82      1.0000 0.66651  0.30149  0.96509  Biso   1.000  C
  C83      1.0000 0.71219  0.34568  0.95303  Biso   1.000  C
  C84      1.0000 0.78445  0.37088  0.98820  Biso   1.000  C
  C85      1.0000 0.81269  0.35324  0.03731  Biso   1.000  C
  H47      1.0000 0.86290  0.37210  0.06320  Biso   1.000  H
  C86      1.0000 0.76739  0.30798  0.04845  Biso   1.000  C
  H48      1.0000 0.78720  0.29510  0.08120  Biso   1.000  H
  C87      1.0000 0.64955  0.23256  0.02777  Biso   1.000  C
  C88      1.0000 0.83419  0.41307  0.97216  Biso   1.000  C
  C89      1.0000 0.40035  0.56325  0.76709  Biso   1.000  C
  C90      1.0000 0.42590  0.51347  0.77208  Biso   1.000  C
  H49      1.0000 0.42570  0.48000  0.73560  Biso   1.000  H
  C91      1.0000 0.45200  0.51348  0.83234  Biso   1.000  C
  H50      1.0000 0.46790  0.47830  0.83610  Biso   1.000  H
  C92      1.0000 0.45500  0.56340  0.88641  Biso   1.000  C
  H51      1.0000 0.47430  0.56310  0.92710  Biso   1.000  H
  C93      1.0000 0.42992  0.61440  0.88182  Biso   1.000  C
  H52      1.0000 0.43150  0.64880  0.91880  Biso   1.000  H
  C94      1.0000 0.40256  0.61365  0.82185  Biso   1.000  C
  C95      1.0000 0.36736  0.57052  0.70579  Biso   1.000  C
  H53      1.0000 0.36470  0.53380  0.66660  Biso   1.000  H
  C96      1.0000 0.37067  0.66390  0.80683  Biso   1.000  C
  H54      1.0000 0.37210  0.69990  0.84560  Biso   1.000  H
  C97      1.0000 0.29470  0.56712  0.69830  Biso   1.000  C
  C98      1.0000 0.23090  0.51890  0.64450  Biso   1.000  C
  H55      1.0000 0.22920  0.48570  0.60670  Biso   1.000  H
  C99      1.0000 0.16860  0.52050  0.64730  Biso   1.000  C
  H56      1.0000 0.12370  0.48750  0.61070  Biso   1.000  H
  C100     1.0000 0.17030  0.56860  0.70200  Biso   1.000  C
  H57      1.0000 0.12700  0.56770  0.70290  Biso   1.000  H
  C101     1.0000 0.23500  0.61780  0.75500  Biso   1.000  C
  H58      1.0000 0.23710  0.65200  0.79240  Biso   1.000  H
  C102     1.0000 0.29680  0.61620  0.75240  Biso   1.000  C
  C103     1.0000 0.41122  0.64508  0.72232  Biso   1.000  C
  C104     1.0000 0.41319  0.69642  0.77731  Biso   1.000  C
  C105     1.0000 0.45329  0.76647  0.79989  Biso   1.000  C
  C106     1.0000 0.49437  0.78541  0.77061  Biso   1.000  C
  H59      1.0000 0.52350  0.83390  0.78770  Biso   1.000  H
  C107     1.0000 0.49401  0.73583  0.71755  Biso   1.000  C
  H60      1.0000 0.52270  0.74990  0.69880  Biso   1.000  H
  C108     1.0000 0.45052  0.66469  0.69224  Biso   1.000  C
  C109     1.0000 0.44950  0.61290  0.63259  Biso   1.000  C
  C110     1.0000 0.45386  0.82445  0.85514  Biso   1.000  C
  C111     1.0000 0.28390  0.35748  0.14756  Biso   1.000  C
  C112     1.0000 0.30940  0.35860  0.10291  Biso   1.000  C
  H61      1.0000 0.28540  0.36760  0.06850  Biso   1.000  H
  C113     1.0000 0.36980  0.34660  0.10930  Biso   1.000  C
  H62      1.0000 0.38760  0.34710  0.07920  Biso   1.000  H
  C114     1.0000 0.40400  0.33400  0.15950  Biso   1.000  C
  H63      1.0000 0.44570  0.32610  0.16400  Biso   1.000  H
  C115     1.0000 0.37850  0.33260  0.20480  Biso   1.000  C
  H64      1.0000 0.40270  0.32350  0.23910  Biso   1.000  H
  C116     1.0000 0.31820  0.34454  0.19871  Biso   1.000  C
  C117     1.0000 0.21850  0.36989  0.14888  Biso   1.000  C
  H65      1.0000 0.19290  0.37910  0.11250  Biso   1.000  H
  C118     1.0000 0.28190  0.34479  0.24227  Biso   1.000  C
  H66      1.0000 0.30680  0.33470  0.27820  Biso   1.000  H
  C119     1.0000 0.17230  0.30650  0.14760  Biso   1.000  C
  C120     1.0000 0.20580  0.29230  0.19820  Biso   1.000  C
  C121     1.0000 0.16940  0.23530  0.20300  Biso   1.000  C
  H67      1.0000 0.19220  0.22580  0.23750  Biso   1.000  H
  C122     1.0000 0.10050  0.19310  0.15750  Biso   1.000  C
  H68      1.0000 0.07480  0.15380  0.16040  Biso   1.000  H
  C123     1.0000 0.06720  0.20630  0.10740  Biso   1.000  C
  H69      1.0000 0.01910  0.17540  0.07560  Biso   1.000  H
  C124     1.0000 0.10210  0.26330  0.10230  Biso   1.000  C
  H70      1.0000 0.07830  0.27280  0.06810  Biso   1.000  H
  C125     1.0000 0.24575  0.43132  0.21649  Biso   1.000  C
  C126     1.0000 0.27942  0.41660  0.26762  Biso   1.000  C
  C127     1.0000 0.30400  0.46491  0.33190  Biso   1.000  C
  C128     1.0000 0.29430  0.52790  0.34506  Biso   1.000  C
  H71      1.0000 0.30960  0.56080  0.38880  Biso   1.000  H
  C129     1.0000 0.26280  0.54190  0.29498  Biso   1.000  C
  H72      1.0000 0.25760  0.58510  0.30470  Biso   1.000  H
  C130     1.0000 0.23822  0.49363  0.22962  Biso   1.000  C
  C131     1.0000 0.20531  0.51359  0.17820  Biso   1.000  C
  C132     1.0000 0.34175  0.45495  0.38892  Biso   1.000  C
  O1       1.0000 0.10730  0.64941  0.17931  Biso   1.000  O
  O2       1.0000 0.98967  0.60654  0.12606  Biso   1.000  O
  O3       1.0000 0.99047  0.91411  0.31841  Biso   1.000  O
  O4       1.0000 0.06893  0.91955  0.40766  Biso   1.000  O
  O5       1.0000 0.03610  0.50049  0.05804  Biso   1.000  O
  O6       1.0000 0.88728  0.46513  0.01863  Biso   1.000  O
  O7       1.0000 0.95889  0.97030  0.43418  Biso   1.000  O
  H73      1.0000 0.92210  0.92070  0.41160  Biso   1.000  H
  O8       1.0000 0.05454  0.07919  0.41073  Biso   1.000  O
  O9       1.0000 0.11380  0.07003  0.49911  Biso   1.000  O
  O10      1.0000 0.90515  0.99919  0.29777  Biso   1.000  O
  O11      1.0000 0.82002  0.96626  0.32565  Biso   1.000  O
  O12      1.0000 0.62964  0.97632  0.03124  Biso   1.000  O
  O13      1.0000 0.66282  0.08728  0.10040  Biso   1.000  O
  O14      1.0000 0.36583  0.41397  0.60251  Biso   1.000  O
  O15      1.0000 0.29991  0.39622  0.50415  Biso   1.000  O
  O16      1.0000 0.47900  0.94277  0.00656  Biso   1.000  O
  O17      1.0000 0.50800  0.88090  0.88751  Biso   1.000  O
  O18      1.0000 0.67814  0.19538  0.04768  Biso   1.000  O
  O19      1.0000 0.59001  0.22911  0.02120  Biso   1.000  O
  O20      1.0000 0.39940  0.81248  0.86344  Biso   1.000  O
  O21      1.0000 0.38994  0.56400  0.59040  Biso   1.000  O
  O22      1.0000 0.50656  0.62312  0.62913  Biso   1.000  O
  O23      1.0000 0.46500  0.47701  0.53017  Biso   1.000  O
  O24      1.0000 0.33394  0.48348  0.43916  Biso   1.000  O
  O25      1.0000 0.38021  0.42159  0.38458  Biso   1.000  O
  O26      1.0000 0.20612  0.48846  0.12497  Biso   1.000  O
  O27      1.0000 0.17764  0.55666  0.19404  Biso   1.000  O
  O28      1.0000 0.81765  0.39136  0.91231  Biso   1.000  O
  Zn1      1.0000 0.12539  0.57507  0.12556  Biso   1.000  Zn
  Zn2      1.0000 0.96743  0.54953  0.03084  Biso   1.000  Zn
  Zn3      1.0000 0.05649  0.97118  0.48800  Biso   1.000  Zn
  Zn4      1.0000 0.97126  0.99189  0.36675  Biso   1.000  Zn
  Zn5      1.0000 0.54428  0.97198  0.96488  Biso   1.000  Zn
  Zn6      1.0000 0.61062  0.13403  0.05992  Biso   1.000  Zn
  Zn7      1.0000 0.37324  0.47659  0.51976  Biso   1.000  Zn
  Zn8      1.0000 0.46891  0.42234  0.44470  Biso   1.000  Zn
  H74      1.0000 0.50600  0.94100  0.03800  Biso   1.000  H
  H75      1.0000 0.47500  0.46000  0.55700  Biso   1.000  H
  H76      1.0000 0.00800  0.45500  0.06100  Biso   1.000  H
  C133     1.0000 0.79130  0.28320  0.60540  Biso   1.000  C
  H77      1.0000 0.79000  0.32440  0.63320  Biso   1.000  H
  C134     1.0000 0.77860  0.26970  0.54210  Biso   1.000  C
  H78      1.0000 0.76950  0.30250  0.52750  Biso   1.000  H
  C135     1.0000 0.77900  0.21020  0.50050  Biso   1.000  C
  H79      1.0000 0.76890  0.20170  0.45730  Biso   1.000  H
  C136     1.0000 0.79420  0.16210  0.52160  Biso   1.000  C
  H80      1.0000 0.79540  0.12130  0.49310  Biso   1.000  H
  C137     1.0000 0.80770  0.17460  0.58530  Biso   1.000  C
  C138     1.0000 0.80590  0.23550  0.62722  Biso   1.000  C
  C139     1.0000 0.82040  0.24000  0.69327  Biso   1.000  C
  H81      1.0000 0.81910  0.28320  0.72290  Biso   1.000  H
  C140     1.0000 0.82560  0.12950  0.61654  Biso   1.000  C
  H82      1.0000 0.82710  0.08640  0.58690  Biso   1.000  H
  C141     1.0000 0.76820  0.17260  0.68250  Biso   1.000  C
  C142     1.0000 0.72250  0.16620  0.70970  Biso   1.000  C
  H83      1.0000 0.72160  0.20720  0.73820  Biso   1.000  H
  C143     1.0000 0.67890  0.10090  0.69550  Biso   1.000  C
  H84      1.0000 0.64790  0.09630  0.71440  Biso   1.000  H
  C144     1.0000 0.68000  0.04070  0.65280  Biso   1.000  C
  H85      1.0000 0.64840  0.99520  0.64160  Biso   1.000  H
  C145     1.0000 0.72780  0.04720  0.62610  Biso   1.000  C
  H86      1.0000 0.72980  0.00640  0.59830  Biso   1.000  H
  C146     1.0000 0.77070  0.11240  0.64100  Biso   1.000  C
  C147     1.0000 0.89243  0.23723  0.72003  Biso   1.000  C
  C148     1.0000 0.89597  0.17794  0.67833  Biso   1.000  C
  C149     1.0000 0.95687  0.16587  0.69522  Biso   1.000  C
  C150     1.0000 0.01487  0.21394  0.75545  Biso   1.000  C
  H87      1.0000 0.05700  0.20610  0.76860  Biso   1.000  H
  C151     1.0000 0.01265  0.27259  0.79645  Biso   1.000  C
  H88      1.0000 0.05370  0.30530  0.83700  Biso   1.000  H
  C152     1.0000 0.95106  0.28507  0.77969  Biso   1.000  C
  C153     1.0000 0.95179  0.34807  0.82898  Biso   1.000  C
  C154     1.0000 0.96529  0.10595  0.65259  Biso   1.000  C
  C155     1.0000 0.72230  0.77684  0.34142  Biso   1.000  C
  C156     1.0000 0.69930  0.82210  0.32280  Biso   1.000  C
  H89      1.0000 0.73240  0.86790  0.33620  Biso   1.000  H
  C157     1.0000 0.62780  0.80050  0.28460  Biso   1.000  C
  H90      1.0000 0.61130  0.83110  0.27070  Biso   1.000  H
  C158     1.0000 0.57930  0.73410  0.26620  Biso   1.000  C
  H91      1.0000 0.52980  0.71970  0.24050  Biso   1.000  H
  C159     1.0000 0.60320  0.68910  0.28510  Biso   1.000  C
  H92      1.0000 0.57020  0.64350  0.27220  Biso   1.000  H
  C160     1.0000 0.67470  0.71035  0.32269  Biso   1.000  C
  C161     1.0000 0.79844  0.79165  0.38416  Biso   1.000  C
  H93      1.0000 0.83330  0.83980  0.39820  Biso   1.000  H
  C162     1.0000 0.71001  0.66814  0.34857  Biso   1.000  C
  H94      1.0000 0.67490  0.61980  0.33380  Biso   1.000  H
  C163     1.0000 0.81398  0.73307  0.34533  Biso   1.000  C
  C164     1.0000 0.76661  0.66629  0.32716  Biso   1.000  C
  C165     1.0000 0.77600  0.60730  0.29408  Biso   1.000  C
  H95      1.0000 0.74420  0.56150  0.28200  Biso   1.000  H
  C166     1.0000 0.83190  0.61540  0.27880  Biso   1.000  C
  H96      1.0000 0.83890  0.57500  0.25730  Biso   1.000  H
  C167     1.0000 0.87770  0.68120  0.29440  Biso   1.000  C
  H97      1.0000 0.91460  0.68610  0.28200  Biso   1.000  H
  C168     1.0000 0.86900  0.74080  0.32863  Biso   1.000  C
  H98      1.0000 0.90070  0.78650  0.34040  Biso   1.000  H
  C169     1.0000 0.79750  0.77991  0.44222  Biso   1.000  C
  C170     1.0000 0.74790  0.71285  0.42235  Biso   1.000  C
  C171     1.0000 0.74040  0.69150  0.46780  Biso   1.000  C
  C172     1.0000 0.78350  0.73870  0.53340  Biso   1.000  C
  H99      1.0000 0.77900  0.72520  0.56500  Biso   1.000  H
  C173     1.0000 0.83280  0.80460  0.55370  Biso   1.000  C
  H100     1.0000 0.86240  0.83580  0.59900  Biso   1.000  H
  C174     1.0000 0.83930  0.82586  0.50804  Biso   1.000  C
  C175     1.0000 0.89427  0.89796  0.53359  Biso   1.000  C
  C176     1.0000 0.68710  0.62140  0.45040  Biso   1.000  C
  C177     1.0000 0.20940  0.84282  0.66822  Biso   1.000  C
  C178     1.0000 0.14800  0.78770  0.61580  Biso   1.000  C
  H101     1.0000 0.11720  0.79490  0.58310  Biso   1.000  H
  C179     1.0000 0.13250  0.72200  0.61220  Biso   1.000  C
  H102     1.0000 0.09130  0.68290  0.57540  Biso   1.000  H
  C180     1.0000 0.17510  0.71110  0.66060  Biso   1.000  C
  H103     1.0000 0.16290  0.66510  0.65700  Biso   1.000  H
  C181     1.0000 0.23450  0.76620  0.71330  Biso   1.000  C
  H104     1.0000 0.26330  0.75930  0.74730  Biso   1.000  H
  C182     1.0000 0.25250  0.83195  0.71690  Biso   1.000  C
  C183     1.0000 0.23530  0.91861  0.68047  Biso   1.000  C
  H105     1.0000 0.20340  0.92540  0.64510  Biso   1.000  H
  C184     1.0000 0.31554  0.89918  0.77128  Biso   1.000  C
  H106     1.0000 0.34760  0.89190  0.80620  Biso   1.000  H
  C185     1.0000 0.31030  0.93906  0.68887  Biso   1.000  C
  C186     1.0000 0.33610  0.96380  0.65273  Biso   1.000  C
  H107     1.0000 0.30620  0.97100  0.61960  Biso   1.000  H
  C187     1.0000 0.40700  0.97790  0.66600  Biso   1.000  C
  H108     1.0000 0.42560  0.99460  0.64180  Biso   1.000  H
  C188     1.0000 0.44930  0.96730  0.71420  Biso   1.000  C
  H109     1.0000 0.49720  0.97620  0.72270  Biso   1.000  H
  C189     1.0000 0.42310  0.94360  0.75160  Biso   1.000  C
  H110     1.0000 0.45350  0.93810  0.78590  Biso   1.000  H
  C190     1.0000 0.35320  0.92860  0.73774  Biso   1.000  C
  C191     1.0000 0.23992  0.96011  0.74697  Biso   1.000  C
  C192     1.0000 0.28294  0.94920  0.79630  Biso   1.000  C
  C193     1.0000 0.29082  0.98156  0.85944  Biso   1.000  C
  C194     1.0000 0.25524  0.02522  0.87231  Biso   1.000  C
  H111     1.0000 0.26200  0.04920  0.91540  Biso   1.000  H
  C195     1.0000 0.21109  0.03359  0.82360  Biso   1.000  C
  H112     1.0000 0.18490  0.06070  0.83240  Biso   1.000  H
  C196     1.0000 0.20416  0.00205  0.76001  Biso   1.000  C
  C197     1.0000 0.15730  0.01354  0.70802  Biso   1.000  C
  C198     1.0000 0.33649  0.97222  0.91350  Biso   1.000  C
  C199     1.0000 0.42337  0.65569  0.07097  Biso   1.000  C
  C200     1.0000 0.47430  0.63880  0.05576  Biso   1.000  C
  H113     1.0000 0.50680  0.67050  0.05010  Biso   1.000  H
  C201     1.0000 0.47700  0.57450  0.04891  Biso   1.000  C
  H114     1.0000 0.51150  0.56220  0.03830  Biso   1.000  H
  C202     1.0000 0.43020  0.52890  0.05735  Biso   1.000  C
  H115     1.0000 0.43270  0.48520  0.05210  Biso   1.000  H
  C203     1.0000 0.37900  0.54525  0.07355  Biso   1.000  C
  H116     1.0000 0.34700  0.51320  0.07930  Biso   1.000  H
  C204     1.0000 0.37601  0.60950  0.08100  Biso   1.000  C
  C205     1.0000 0.41161  0.72244  0.08100  Biso   1.000  C
  H117     1.0000 0.44490  0.75610  0.07450  Biso   1.000  H
  C206     1.0000 0.32592  0.63709  0.10032  Biso   1.000  C
  H118     1.0000 0.29250  0.60360  0.10680  Biso   1.000  H
  C207     1.0000 0.41819  0.75405  0.14959  Biso   1.000  C
  C208     1.0000 0.37252  0.70799  0.16040  Biso   1.000  C
  C209     1.0000 0.37140  0.72780  0.22044  Biso   1.000  C
  H119     1.0000 0.33900  0.69610  0.22620  Biso   1.000  H
  C210     1.0000 0.41830  0.79370  0.27031  Biso   1.000  C
  H120     1.0000 0.41960  0.80810  0.31180  Biso   1.000  H
  C211     1.0000 0.46390  0.83980  0.26030  Biso   1.000  C
  H121     1.0000 0.49610  0.88570  0.29530  Biso   1.000  H
  C212     1.0000 0.46357  0.82000  0.19920  Biso   1.000  C
  H122     1.0000 0.49460  0.85240  0.19290  Biso   1.000  H
  C213     1.0000 0.30586  0.71849  0.98729  Biso   1.000  C
  C214     1.0000 0.33349  0.69851  0.03491  Biso   1.000  C
  C215     1.0000 0.28781  0.65432  0.04697  Biso   1.000  C
  C216     1.0000 0.21555  0.62912  0.01180  Biso   1.000  C
  C217     1.0000 0.18731  0.64676  0.96269  Biso   1.000  C
  H123     1.0000 0.13710  0.62790  0.93680  Biso   1.000  H
  C218     1.0000 0.23261  0.69202  0.95155  Biso   1.000  C
  H124     1.0000 0.21280  0.70490  0.91880  Biso   1.000  H
  C219     1.0000 0.35045  0.76744  0.97223  Biso   1.000  C
  C220     1.0000 0.16581  0.58693  0.02784  Biso   1.000  C
  C221     1.0000 0.59965  0.43675  0.23291  Biso   1.000  C
  C222     1.0000 0.57410  0.48653  0.22792  Biso   1.000  C
  H125     1.0000 0.57430  0.52000  0.26440  Biso   1.000  H
  C223     1.0000 0.54800  0.48652  0.16766  Biso   1.000  C
  H126     1.0000 0.53210  0.52170  0.16390  Biso   1.000  H
  C224     1.0000 0.54500  0.43660  0.11359  Biso   1.000  C
  H127     1.0000 0.52570  0.43690  0.07290  Biso   1.000  H
  C225     1.0000 0.57008  0.38560  0.11818  Biso   1.000  C
  H128     1.0000 0.56850  0.35120  0.08120  Biso   1.000  H
  C226     1.0000 0.59744  0.38635  0.17815  Biso   1.000  C
  C227     1.0000 0.63264  0.42948  0.29421  Biso   1.000  C
  H129     1.0000 0.63530  0.46620  0.33340  Biso   1.000  H
  C228     1.0000 0.62933  0.33610  0.19317  Biso   1.000  C
  H130     1.0000 0.62790  0.30010  0.15440  Biso   1.000  H
  C229     1.0000 0.70530  0.43288  0.30170  Biso   1.000  C
  C230     1.0000 0.76910  0.48110  0.35550  Biso   1.000  C
  H131     1.0000 0.77080  0.51430  0.39330  Biso   1.000  H
  C231     1.0000 0.83140  0.47950  0.35270  Biso   1.000  C
  H132     1.0000 0.87630  0.51250  0.38930  Biso   1.000  H
  C232     1.0000 0.82970  0.43140  0.29800  Biso   1.000  C
  H133     1.0000 0.87300  0.43230  0.29710  Biso   1.000  H
  C233     1.0000 0.76500  0.38220  0.24500  Biso   1.000  C
  H134     1.0000 0.76290  0.34800  0.20760  Biso   1.000  H
  C234     1.0000 0.70320  0.38380  0.24760  Biso   1.000  C
  C235     1.0000 0.58878  0.35492  0.27768  Biso   1.000  C
  C236     1.0000 0.58681  0.30358  0.22269  Biso   1.000  C
  C237     1.0000 0.54671  0.23353  0.20011  Biso   1.000  C
  C238     1.0000 0.50563  0.21459  0.22939  Biso   1.000  C
  H135     1.0000 0.47650  0.16610  0.21230  Biso   1.000  H
  C239     1.0000 0.50599  0.26417  0.28245  Biso   1.000  C
  H136     1.0000 0.47730  0.25010  0.30120  Biso   1.000  H
  C240     1.0000 0.54948  0.33531  0.30776  Biso   1.000  C
  C241     1.0000 0.55050  0.38710  0.36741  Biso   1.000  C
  C242     1.0000 0.54614  0.17555  0.14486  Biso   1.000  C
  C243     1.0000 0.71610  0.64252  0.85244  Biso   1.000  C
  C244     1.0000 0.69060  0.64140  0.89709  Biso   1.000  C
  H137     1.0000 0.71460  0.63240  0.93150  Biso   1.000  H
  C245     1.0000 0.63020  0.65340  0.89070  Biso   1.000  C
  H138     1.0000 0.61240  0.65290  0.92080  Biso   1.000  H
  C246     1.0000 0.59600  0.66600  0.84050  Biso   1.000  C
  H139     1.0000 0.55430  0.67390  0.83600  Biso   1.000  H
  C247     1.0000 0.62150  0.66740  0.79520  Biso   1.000  C
  H140     1.0000 0.59730  0.67650  0.76090  Biso   1.000  H
  C248     1.0000 0.68180  0.65546  0.80129  Biso   1.000  C
  C249     1.0000 0.78150  0.63011  0.85112  Biso   1.000  C
  H141     1.0000 0.80710  0.62090  0.88750  Biso   1.000  H
  C250     1.0000 0.71810  0.65521  0.75773  Biso   1.000  C
  H142     1.0000 0.69320  0.66530  0.72180  Biso   1.000  H
  C251     1.0000 0.82770  0.69350  0.85240  Biso   1.000  C
  C252     1.0000 0.79420  0.70770  0.80180  Biso   1.000  C
  C253     1.0000 0.83060  0.76470  0.79700  Biso   1.000  C
  H143     1.0000 0.80780  0.77420  0.76250  Biso   1.000  H
  C254     1.0000 0.89950  0.80690  0.84250  Biso   1.000  C
  H144     1.0000 0.92520  0.84620  0.83960  Biso   1.000  H
  C255     1.0000 0.93280  0.79370  0.89260  Biso   1.000  C
  H145     1.0000 0.98090  0.82460  0.92440  Biso   1.000  H
  C256     1.0000 0.89790  0.73670  0.89770  Biso   1.000  C
  H146     1.0000 0.92170  0.72720  0.93190  Biso   1.000  H
  C257     1.0000 0.75425  0.56868  0.78351  Biso   1.000  C
  C258     1.0000 0.72058  0.58340  0.73238  Biso   1.000  C
  C259     1.0000 0.69600  0.53509  0.66810  Biso   1.000  C
  C260     1.0000 0.70570  0.47210  0.65494  Biso   1.000  C
  H147     1.0000 0.69040  0.43920  0.61120  Biso   1.000  H
  C261     1.0000 0.73720  0.45810  0.70502  Biso   1.000  C
  H148     1.0000 0.74240  0.41490  0.69530  Biso   1.000  H
  C262     1.0000 0.76178  0.50637  0.77038  Biso   1.000  C
  C263     1.0000 0.79469  0.48641  0.82180  Biso   1.000  C
  C264     1.0000 0.65825  0.54505  0.61108  Biso   1.000  C
  O29      1.0000 0.89270  0.35059  0.82069  Biso   1.000  O
  O30      1.0000 0.01033  0.39346  0.87394  Biso   1.000  O
  O31      1.0000 0.00953  0.08589  0.68159  Biso   1.000  O
  O32      1.0000 0.93107  0.08045  0.59234  Biso   1.000  O
  O33      1.0000 0.96390  0.49951  0.94196  Biso   1.000  O
  O34      1.0000 0.11272  0.53487  0.98137  Biso   1.000  O
  O35      1.0000 0.04111  0.02970  0.56582  Biso   1.000  O
  H149     1.0000 0.07790  0.07930  0.58840  Biso   1.000  H
  O36      1.0000 0.94546  0.92081  0.58927  Biso   1.000  O
  O37      1.0000 0.88620  0.92997  0.50089  Biso   1.000  O
  O38      1.0000 0.09485  0.00081  0.70223  Biso   1.000  O
  O39      1.0000 0.17998  0.03374  0.67435  Biso   1.000  O
  O40      1.0000 0.37036  0.02368  0.96876  Biso   1.000  O
  O41      1.0000 0.33718  0.91272  0.89960  Biso   1.000  O
  O42      1.0000 0.63417  0.58603  0.39749  Biso   1.000  O
  O43      1.0000 0.70009  0.60378  0.49585  Biso   1.000  O
  O44      1.0000 0.52100  0.05723  0.99344  Biso   1.000  O
  O45      1.0000 0.49200  0.11910  0.11249  Biso   1.000  O
  O46      1.0000 0.32186  0.80462  0.95232  Biso   1.000  O
  O47      1.0000 0.40999  0.77089  0.97880  Biso   1.000  O
  O48      1.0000 0.60060  0.18752  0.13656  Biso   1.000  O
  O49      1.0000 0.61006  0.43600  0.40960  Biso   1.000  O
  O50      1.0000 0.49344  0.37688  0.37087  Biso   1.000  O
  O51      1.0000 0.53500  0.52299  0.46983  Biso   1.000  O
  O52      1.0000 0.66606  0.51652  0.56084  Biso   1.000  O
  O53      1.0000 0.61979  0.57841  0.61542  Biso   1.000  O
  O54      1.0000 0.79388  0.51154  0.87503  Biso   1.000  O
  O55      1.0000 0.82236  0.44334  0.80596  Biso   1.000  O
  O56      1.0000 0.18235  0.60864  0.08769  Biso   1.000  O
  Zn9      1.0000 0.87461  0.42493  0.87444  Biso   1.000  Zn
  Zn10     1.0000 0.03257  0.45047  0.96916  Biso   1.000  Zn
  Zn11     1.0000 0.94351  0.02882  0.51200  Biso   1.000  Zn
  Zn12     1.0000 0.02874  0.00811  0.63325  Biso   1.000  Zn
  Zn13     1.0000 0.45572  0.02802  0.03512  Biso   1.000  Zn
  Zn14     1.0000 0.38938  0.86597  0.94008  Biso   1.000  Zn
  Zn15     1.0000 0.62676  0.52341  0.48024  Biso   1.000  Zn
  Zn16     1.0000 0.53109  0.57766  0.55530  Biso   1.000  Zn
  H150     1.0000 0.49400  0.05900  0.96200  Biso   1.000  H
  H151     1.0000 0.52500  0.54000  0.44300  Biso   1.000  H
  H152     1.0000 0.99200  0.54500  0.93900  Biso   1.000  H
