data_image0
_cell_length_a       21.8599
_cell_length_b       21.8599
_cell_length_c       21.3525
_cell_angle_alpha    90
_cell_angle_beta     90
_cell_angle_gamma    120

_symmetry_space_group_name_H-M    "P 1"
_symmetry_int_tables_number       1

loop_
  _symmetry_equiv_pos_as_xyz
  'x, y, z'

loop_
  _atom_site_label
  _atom_site_occupancy
  _atom_site_fract_x
  _atom_site_fract_y
  _atom_site_fract_z
  _atom_site_thermal_displace_type
  _atom_site_B_iso_or_equiv
  _atom_site_type_symbol
  Cu1      1.0000 0.53753  0.06785  0.48923  Biso   1.000  Cu
  O1       1.0000 0.45710  0.05410  0.43613  Biso   1.000  O
  O2       1.0000 0.39110  0.93930  0.45808  Biso   1.000  O
  O3       1.0000 0.37580  0.13390  0.25007  Biso   1.000  O
  O4       1.0000 0.26000  0.08160  0.23111  Biso   1.000  O
  O5       1.0000 0.15790  0.80720  0.45190  Biso   1.000  O
  N1       1.0000 0.14580  0.88160  0.38140  Biso   1.000  N
  C1       1.0000 0.40140  0.99460  0.43220  Biso   1.000  C
  C2       1.0000 0.31280  0.08920  0.26050  Biso   1.000  C
  C3       1.0000 0.35520  0.04300  0.34880  Biso   1.000  C
  H1       1.0000 0.40100  0.07990  0.34220  Biso   1.000  H
  C4       1.0000 0.34150  0.99160  0.39360  Biso   1.000  C
  C5       1.0000 0.27290  0.93720  0.40410  Biso   1.000  C
  H2       1.0000 0.26430  0.90220  0.43320  Biso   1.000  H
  C6       1.0000 0.21700  0.93500  0.37110  Biso   1.000  C
  C7       1.0000 0.23070  0.98590  0.32560  Biso   1.000  C
  H3       1.0000 0.19370  0.98450  0.30300  Biso   1.000  H
  C8       1.0000 0.29930  0.03850  0.31400  Biso   1.000  C
  C9       1.0000 0.12190  0.82390  0.42080  Biso   1.000  C
  C10      1.0000 0.08740  0.88200  0.34670  Biso   1.000  C
  H4       1.0000 0.09100  0.87610  0.30210  Biso   1.000  H
  H5       1.0000 0.08650  0.92540  0.35400  Biso   1.000  H
  C11      1.0000 0.02340  0.81950  0.37420  Biso   1.000  C
  C12      1.0000 0.04400  0.78680  0.41680  Biso   1.000  C
  C13      1.0000 0.99560  0.72590  0.44730  Biso   1.000  C
  H6       1.0000 0.01040  0.70340  0.47540  Biso   1.000  H
  C14      1.0000 0.92570  0.69970  0.43540  Biso   1.000  C
  H7       1.0000 0.89190  0.65930  0.45590  Biso   1.000  H
  C15      1.0000 0.90490  0.73350  0.39230  Biso   1.000  C
  H8       1.0000 0.85700  0.71460  0.38420  Biso   1.000  H
  C16      1.0000 0.95230  0.79320  0.36160  Biso   1.000  C
  H9       1.0000 0.93750  0.81550  0.33330  Biso   1.000  H
  Cu2      1.0000 0.20420  0.40118  0.82256  Biso   1.000  Cu
  O6       1.0000 0.12377  0.38743  0.76946  Biso   1.000  O
  O7       1.0000 0.05777  0.27263  0.79141  Biso   1.000  O
  O8       1.0000 0.04247  0.46723  0.58340  Biso   1.000  O
  O9       1.0000 0.92667  0.41493  0.56444  Biso   1.000  O
  O10      1.0000 0.82457  0.14053  0.78523  Biso   1.000  O
  N2       1.0000 0.81247  0.21493  0.71473  Biso   1.000  N
  C17      1.0000 0.06807  0.32793  0.76553  Biso   1.000  C
  C18      1.0000 0.97947  0.42253  0.59383  Biso   1.000  C
  C19      1.0000 0.02187  0.37633  0.68213  Biso   1.000  C
  H10      1.0000 0.06767  0.41323  0.67553  Biso   1.000  H
  C20      1.0000 0.00817  0.32493  0.72693  Biso   1.000  C
  C21      1.0000 0.93957  0.27053  0.73743  Biso   1.000  C
  H11      1.0000 0.93097  0.23553  0.76653  Biso   1.000  H
  C22      1.0000 0.88367  0.26833  0.70443  Biso   1.000  C
  C23      1.0000 0.89737  0.31923  0.65893  Biso   1.000  C
  H12      1.0000 0.86037  0.31783  0.63633  Biso   1.000  H
  C24      1.0000 0.96597  0.37183  0.64733  Biso   1.000  C
  C25      1.0000 0.78857  0.15723  0.75413  Biso   1.000  C
  C26      1.0000 0.75407  0.21533  0.68003  Biso   1.000  C
  H13      1.0000 0.75767  0.20943  0.63543  Biso   1.000  H
  H14      1.0000 0.75317  0.25873  0.68733  Biso   1.000  H
  C27      1.0000 0.69007  0.15283  0.70753  Biso   1.000  C
  C28      1.0000 0.71067  0.12013  0.75013  Biso   1.000  C
  C29      1.0000 0.66227  0.05923  0.78063  Biso   1.000  C
  H15      1.0000 0.67707  0.03673  0.80873  Biso   1.000  H
  C30      1.0000 0.59237  0.03303  0.76873  Biso   1.000  C
  H16      1.0000 0.55857  0.99263  0.78923  Biso   1.000  H
  C31      1.0000 0.57157  0.06683  0.72563  Biso   1.000  C
  H17      1.0000 0.52367  0.04793  0.71753  Biso   1.000  H
  C32      1.0000 0.61897  0.12653  0.69493  Biso   1.000  C
  H18      1.0000 0.60417  0.14883  0.66663  Biso   1.000  H
  Cu3      1.0000 0.87086  0.73452  0.15590  Biso   1.000  Cu
  O11      1.0000 0.79043  0.72077  0.10280  Biso   1.000  O
  O12      1.0000 0.72443  0.60597  0.12475  Biso   1.000  O
  O13      1.0000 0.70913  0.80057  0.91674  Biso   1.000  O
  O14      1.0000 0.59333  0.74827  0.89778  Biso   1.000  O
  O15      1.0000 0.49123  0.47387  0.11857  Biso   1.000  O
  N3       1.0000 0.47913  0.54827  0.04807  Biso   1.000  N
  C33      1.0000 0.73473  0.66127  0.09887  Biso   1.000  C
  C34      1.0000 0.64613  0.75587  0.92717  Biso   1.000  C
  C35      1.0000 0.68853  0.70967  0.01547  Biso   1.000  C
  H19      1.0000 0.73433  0.74657  0.00887  Biso   1.000  H
  C36      1.0000 0.67483  0.65827  0.06027  Biso   1.000  C
  C37      1.0000 0.60623  0.60387  0.07077  Biso   1.000  C
  H20      1.0000 0.59763  0.56887  0.09987  Biso   1.000  H
  C38      1.0000 0.55033  0.60167  0.03777  Biso   1.000  C
  C39      1.0000 0.56403  0.65257  0.99227  Biso   1.000  C
  H21      1.0000 0.52703  0.65117  0.96967  Biso   1.000  H
  C40      1.0000 0.63263  0.70517  0.98067  Biso   1.000  C
  C41      1.0000 0.45523  0.49057  0.08747  Biso   1.000  C
  C42      1.0000 0.42073  0.54867  0.01337  Biso   1.000  C
  H22      1.0000 0.42433  0.54277  0.96877  Biso   1.000  H
  H23      1.0000 0.41983  0.59207  0.02067  Biso   1.000  H
  C43      1.0000 0.35673  0.48617  0.04087  Biso   1.000  C
  C44      1.0000 0.37733  0.45347  0.08347  Biso   1.000  C
  C45      1.0000 0.32893  0.39257  0.11397  Biso   1.000  C
  H24      1.0000 0.34373  0.37007  0.14207  Biso   1.000  H
  C46      1.0000 0.25903  0.36637  0.10207  Biso   1.000  C
  H25      1.0000 0.22523  0.32597  0.12257  Biso   1.000  H
  C47      1.0000 0.23823  0.40017  0.05897  Biso   1.000  C
  H26      1.0000 0.19033  0.38127  0.05087  Biso   1.000  H
  C48      1.0000 0.28563  0.45987  0.02827  Biso   1.000  C
  H27      1.0000 0.27083  0.48217  0.99997  Biso   1.000  H
  Cu4      1.0000 0.93215  0.46968  0.48923  Biso   1.000  Cu
  O16      1.0000 0.94590  0.40300  0.43613  Biso   1.000  O
  O17      1.0000 0.06070  0.45180  0.45808  Biso   1.000  O
  O18      1.0000 0.86610  0.24190  0.25007  Biso   1.000  O
  O19      1.0000 0.91840  0.17840  0.23111  Biso   1.000  O
  O20      1.0000 0.19280  0.35070  0.45190  Biso   1.000  O
  N4       1.0000 0.11840  0.26420  0.38140  Biso   1.000  N
  C49      1.0000 0.00540  0.40680  0.43220  Biso   1.000  C
  C50      1.0000 0.91080  0.22360  0.26050  Biso   1.000  C
  C51      1.0000 0.95700  0.31220  0.34880  Biso   1.000  C
  H28      1.0000 0.92010  0.32110  0.34220  Biso   1.000  H
  C52      1.0000 0.00840  0.34990  0.39360  Biso   1.000  C
  C53      1.0000 0.06280  0.33570  0.40410  Biso   1.000  C
  H29      1.0000 0.09780  0.36210  0.43320  Biso   1.000  H
  C54      1.0000 0.06500  0.28200  0.37110  Biso   1.000  C
  C55      1.0000 0.01410  0.24480  0.32560  Biso   1.000  C
  H30      1.0000 0.01550  0.20920  0.30300  Biso   1.000  H
  C56      1.0000 0.96150  0.26080  0.31400  Biso   1.000  C
  C57      1.0000 0.17610  0.29800  0.42080  Biso   1.000  C
  C58      1.0000 0.11800  0.20540  0.34670  Biso   1.000  C
  H31      1.0000 0.12390  0.21490  0.30210  Biso   1.000  H
  H32      1.0000 0.07460  0.16110  0.35400  Biso   1.000  H
  C59      1.0000 0.18050  0.20390  0.37420  Biso   1.000  C
  C60      1.0000 0.21320  0.25720  0.41680  Biso   1.000  C
  C61      1.0000 0.27410  0.26970  0.44730  Biso   1.000  C
  H33      1.0000 0.29660  0.30700  0.47540  Biso   1.000  H
  C62      1.0000 0.30030  0.22600  0.43540  Biso   1.000  C
  H34      1.0000 0.34070  0.23260  0.45590  Biso   1.000  H
  C63      1.0000 0.26650  0.17140  0.39230  Biso   1.000  C
  H35      1.0000 0.28540  0.14240  0.38420  Biso   1.000  H
  C64      1.0000 0.20680  0.15910  0.36160  Biso   1.000  C
  H36      1.0000 0.18450  0.12200  0.33330  Biso   1.000  H
  Cu5      1.0000 0.59882  0.80301  0.82256  Biso   1.000  Cu
  O21      1.0000 0.61257  0.73633  0.76946  Biso   1.000  O
  O22      1.0000 0.72737  0.78513  0.79141  Biso   1.000  O
  O23      1.0000 0.53277  0.57523  0.58340  Biso   1.000  O
  O24      1.0000 0.58507  0.51173  0.56444  Biso   1.000  O
  O25      1.0000 0.85947  0.68403  0.78523  Biso   1.000  O
  N5       1.0000 0.78507  0.59753  0.71473  Biso   1.000  N
  C65      1.0000 0.67207  0.74013  0.76553  Biso   1.000  C
  C66      1.0000 0.57747  0.55693  0.59383  Biso   1.000  C
  C67      1.0000 0.62367  0.64553  0.68213  Biso   1.000  C
  H37      1.0000 0.58677  0.65443  0.67553  Biso   1.000  H
  C68      1.0000 0.67507  0.68323  0.72693  Biso   1.000  C
  C69      1.0000 0.72947  0.66903  0.73743  Biso   1.000  C
  H38      1.0000 0.76447  0.69543  0.76653  Biso   1.000  H
  C70      1.0000 0.73167  0.61533  0.70443  Biso   1.000  C
  C71      1.0000 0.68077  0.57813  0.65893  Biso   1.000  C
  H39      1.0000 0.68217  0.54253  0.63633  Biso   1.000  H
  C72      1.0000 0.62817  0.59413  0.64733  Biso   1.000  C
  C73      1.0000 0.84277  0.63133  0.75413  Biso   1.000  C
  C74      1.0000 0.78467  0.53873  0.68003  Biso   1.000  C
  H40      1.0000 0.79057  0.54823  0.63543  Biso   1.000  H
  H41      1.0000 0.74127  0.49443  0.68733  Biso   1.000  H
  C75      1.0000 0.84717  0.53723  0.70753  Biso   1.000  C
  C76      1.0000 0.87987  0.59053  0.75013  Biso   1.000  C
  C77      1.0000 0.94077  0.60303  0.78063  Biso   1.000  C
  H42      1.0000 0.96327  0.64033  0.80873  Biso   1.000  H
  C78      1.0000 0.96697  0.55933  0.76873  Biso   1.000  C
  H43      1.0000 0.00737  0.56593  0.78923  Biso   1.000  H
  C79      1.0000 0.93317  0.50473  0.72563  Biso   1.000  C
  H44      1.0000 0.95207  0.47573  0.71753  Biso   1.000  H
  C80      1.0000 0.87347  0.49243  0.69493  Biso   1.000  C
  H45      1.0000 0.85117  0.45533  0.66663  Biso   1.000  H
  Cu6      1.0000 0.26548  0.13635  0.15590  Biso   1.000  Cu
  O26      1.0000 0.27923  0.06967  0.10280  Biso   1.000  O
  O27      1.0000 0.39403  0.11847  0.12475  Biso   1.000  O
  O28      1.0000 0.19943  0.90857  0.91674  Biso   1.000  O
  O29      1.0000 0.25173  0.84507  0.89778  Biso   1.000  O
  O30      1.0000 0.52613  0.01737  0.11857  Biso   1.000  O
  N6       1.0000 0.45173  0.93087  0.04807  Biso   1.000  N
  C81      1.0000 0.33873  0.07347  0.09887  Biso   1.000  C
  C82      1.0000 0.24413  0.89027  0.92717  Biso   1.000  C
  C83      1.0000 0.29033  0.97887  0.01547  Biso   1.000  C
  H46      1.0000 0.25343  0.98777  0.00887  Biso   1.000  H
  C84      1.0000 0.34173  0.01657  0.06027  Biso   1.000  C
  C85      1.0000 0.39613  0.00237  0.07077  Biso   1.000  C
  H47      1.0000 0.43113  0.02877  0.09987  Biso   1.000  H
  C86      1.0000 0.39833  0.94867  0.03777  Biso   1.000  C
  C87      1.0000 0.34743  0.91147  0.99227  Biso   1.000  C
  H48      1.0000 0.34883  0.87587  0.96967  Biso   1.000  H
  C88      1.0000 0.29483  0.92747  0.98067  Biso   1.000  C
  C89      1.0000 0.50943  0.96467  0.08747  Biso   1.000  C
  C90      1.0000 0.45133  0.87207  0.01337  Biso   1.000  C
  H49      1.0000 0.45723  0.88157  0.96877  Biso   1.000  H
  H50      1.0000 0.40793  0.82777  0.02067  Biso   1.000  H
  C91      1.0000 0.51383  0.87057  0.04087  Biso   1.000  C
  C92      1.0000 0.54653  0.92387  0.08347  Biso   1.000  C
  C93      1.0000 0.60743  0.93637  0.11397  Biso   1.000  C
  H51      1.0000 0.62993  0.97367  0.14207  Biso   1.000  H
  C94      1.0000 0.63363  0.89267  0.10207  Biso   1.000  C
  H52      1.0000 0.67403  0.89927  0.12257  Biso   1.000  H
  C95      1.0000 0.59983  0.83807  0.05897  Biso   1.000  C
  H53      1.0000 0.61873  0.80907  0.05087  Biso   1.000  H
  C96      1.0000 0.54013  0.82577  0.02827  Biso   1.000  C
  H54      1.0000 0.51783  0.78867  0.99997  Biso   1.000  H
  Cu7      1.0000 0.53032  0.46247  0.48923  Biso   1.000  Cu
  O31      1.0000 0.59700  0.54290  0.43613  Biso   1.000  O
  O32      1.0000 0.54820  0.60890  0.45808  Biso   1.000  O
  O33      1.0000 0.75810  0.62420  0.25007  Biso   1.000  O
  O34      1.0000 0.82160  0.74000  0.23111  Biso   1.000  O
  O35      1.0000 0.64930  0.84210  0.45190  Biso   1.000  O
  N7       1.0000 0.73580  0.85420  0.38140  Biso   1.000  N
  C97      1.0000 0.59320  0.59860  0.43220  Biso   1.000  C
  C98      1.0000 0.77640  0.68720  0.26050  Biso   1.000  C
  C99      1.0000 0.68780  0.64480  0.34880  Biso   1.000  C
  H55      1.0000 0.67890  0.59900  0.34220  Biso   1.000  H
  C100     1.0000 0.65010  0.65850  0.39360  Biso   1.000  C
  C101     1.0000 0.66430  0.72710  0.40410  Biso   1.000  C
  H56      1.0000 0.63790  0.73570  0.43320  Biso   1.000  H
  C102     1.0000 0.71800  0.78300  0.37110  Biso   1.000  C
  C103     1.0000 0.75520  0.76930  0.32560  Biso   1.000  C
  H57      1.0000 0.79080  0.80630  0.30300  Biso   1.000  H
  C104     1.0000 0.73920  0.70070  0.31400  Biso   1.000  C
  C105     1.0000 0.70200  0.87810  0.42080  Biso   1.000  C
  C106     1.0000 0.79460  0.91260  0.34670  Biso   1.000  C
  H58      1.0000 0.78510  0.90900  0.30210  Biso   1.000  H
  H59      1.0000 0.83890  0.91350  0.35400  Biso   1.000  H
  C107     1.0000 0.79610  0.97660  0.37420  Biso   1.000  C
  C108     1.0000 0.74280  0.95600  0.41680  Biso   1.000  C
  C109     1.0000 0.73030  0.00440  0.44730  Biso   1.000  C
  H60      1.0000 0.69300  0.98960  0.47540  Biso   1.000  H
  C110     1.0000 0.77400  0.07430  0.43540  Biso   1.000  C
  H61      1.0000 0.76740  0.10810  0.45590  Biso   1.000  H
  C111     1.0000 0.82860  0.09510  0.39230  Biso   1.000  C
  H62      1.0000 0.85760  0.14300  0.38420  Biso   1.000  H
  C112     1.0000 0.84090  0.04770  0.36160  Biso   1.000  C
  H63      1.0000 0.87800  0.06250  0.33330  Biso   1.000  H
  Cu8      1.0000 0.19699  0.79580  0.82256  Biso   1.000  Cu
  O36      1.0000 0.26367  0.87623  0.76946  Biso   1.000  O
  O37      1.0000 0.21487  0.94223  0.79141  Biso   1.000  O
  O38      1.0000 0.42477  0.95753  0.58340  Biso   1.000  O
  O39      1.0000 0.48827  0.07333  0.56444  Biso   1.000  O
  O40      1.0000 0.31597  0.17543  0.78523  Biso   1.000  O
  N8       1.0000 0.40247  0.18753  0.71473  Biso   1.000  N
  C113     1.0000 0.25987  0.93193  0.76553  Biso   1.000  C
  C114     1.0000 0.44307  0.02053  0.59383  Biso   1.000  C
  C115     1.0000 0.35447  0.97813  0.68213  Biso   1.000  C
  H64      1.0000 0.34557  0.93233  0.67553  Biso   1.000  H
  C116     1.0000 0.31677  0.99183  0.72693  Biso   1.000  C
  C117     1.0000 0.33097  0.06043  0.73743  Biso   1.000  C
  H65      1.0000 0.30457  0.06903  0.76653  Biso   1.000  H
  C118     1.0000 0.38467  0.11633  0.70443  Biso   1.000  C
  C119     1.0000 0.42187  0.10263  0.65893  Biso   1.000  C
  H66      1.0000 0.45747  0.13963  0.63633  Biso   1.000  H
  C120     1.0000 0.40587  0.03403  0.64733  Biso   1.000  C
  C121     1.0000 0.36867  0.21143  0.75413  Biso   1.000  C
  C122     1.0000 0.46127  0.24593  0.68003  Biso   1.000  C
  H67      1.0000 0.45177  0.24233  0.63543  Biso   1.000  H
  H68      1.0000 0.50557  0.24683  0.68733  Biso   1.000  H
  C123     1.0000 0.46277  0.30993  0.70753  Biso   1.000  C
  C124     1.0000 0.40947  0.28933  0.75013  Biso   1.000  C
  C125     1.0000 0.39697  0.33773  0.78063  Biso   1.000  C
  H69      1.0000 0.35967  0.32293  0.80873  Biso   1.000  H
  C126     1.0000 0.44067  0.40763  0.76873  Biso   1.000  C
  H70      1.0000 0.43407  0.44143  0.78923  Biso   1.000  H
  C127     1.0000 0.49527  0.42843  0.72563  Biso   1.000  C
  H71      1.0000 0.52427  0.47633  0.71753  Biso   1.000  H
  C128     1.0000 0.50757  0.38103  0.69493  Biso   1.000  C
  H72      1.0000 0.54467  0.39583  0.66663  Biso   1.000  H
  Cu9      1.0000 0.86365  0.12914  0.15590  Biso   1.000  Cu
  O41      1.0000 0.93033  0.20957  0.10280  Biso   1.000  O
  O42      1.0000 0.88153  0.27557  0.12475  Biso   1.000  O
  O43      1.0000 0.09143  0.29087  0.91674  Biso   1.000  O
  O44      1.0000 0.15493  0.40667  0.89778  Biso   1.000  O
  O45      1.0000 0.98263  0.50877  0.11857  Biso   1.000  O
  N9       1.0000 0.06913  0.52087  0.04807  Biso   1.000  N
  C129     1.0000 0.92653  0.26527  0.09887  Biso   1.000  C
  C130     1.0000 0.10973  0.35387  0.92717  Biso   1.000  C
  C131     1.0000 0.02113  0.31147  0.01547  Biso   1.000  C
  H73      1.0000 0.01223  0.26567  0.00887  Biso   1.000  H
  C132     1.0000 0.98343  0.32517  0.06027  Biso   1.000  C
  C133     1.0000 0.99763  0.39377  0.07077  Biso   1.000  C
  H74      1.0000 0.97123  0.40237  0.09987  Biso   1.000  H
  C134     1.0000 0.05133  0.44967  0.03777  Biso   1.000  C
  C135     1.0000 0.08853  0.43597  0.99227  Biso   1.000  C
  H75      1.0000 0.12413  0.47297  0.96967  Biso   1.000  H
  C136     1.0000 0.07253  0.36737  0.98067  Biso   1.000  C
  C137     1.0000 0.03533  0.54477  0.08747  Biso   1.000  C
  C138     1.0000 0.12793  0.57927  0.01337  Biso   1.000  C
  H76      1.0000 0.11843  0.57567  0.96877  Biso   1.000  H
  H77      1.0000 0.17223  0.58017  0.02067  Biso   1.000  H
  C139     1.0000 0.12943  0.64327  0.04087  Biso   1.000  C
  C140     1.0000 0.07613  0.62267  0.08347  Biso   1.000  C
  C141     1.0000 0.06363  0.67107  0.11397  Biso   1.000  C
  H78      1.0000 0.02633  0.65627  0.14207  Biso   1.000  H
  C142     1.0000 0.10733  0.74097  0.10207  Biso   1.000  C
  H79      1.0000 0.10073  0.77477  0.12257  Biso   1.000  H
  C143     1.0000 0.16193  0.76177  0.05897  Biso   1.000  C
  H80      1.0000 0.19093  0.80967  0.05087  Biso   1.000  H
  C144     1.0000 0.17423  0.71437  0.02827  Biso   1.000  C
  H81      1.0000 0.21133  0.72917  0.99997  Biso   1.000  H
  Cu10     1.0000 0.46247  0.93215  0.51077  Biso   1.000  Cu
  O46      1.0000 0.54290  0.94590  0.56387  Biso   1.000  O
  O47      1.0000 0.60890  0.06070  0.54192  Biso   1.000  O
  O48      1.0000 0.62420  0.86610  0.74993  Biso   1.000  O
  O49      1.0000 0.74000  0.91840  0.76889  Biso   1.000  O
  O50      1.0000 0.84210  0.19280  0.54810  Biso   1.000  O
  N10      1.0000 0.85420  0.11840  0.61860  Biso   1.000  N
  C145     1.0000 0.59860  0.00540  0.56780  Biso   1.000  C
  C146     1.0000 0.68720  0.91080  0.73950  Biso   1.000  C
  C147     1.0000 0.64480  0.95700  0.65120  Biso   1.000  C
  H82      1.0000 0.59900  0.92010  0.65780  Biso   1.000  H
  C148     1.0000 0.65850  0.00840  0.60640  Biso   1.000  C
  C149     1.0000 0.72710  0.06280  0.59590  Biso   1.000  C
  H83      1.0000 0.73570  0.09780  0.56680  Biso   1.000  H
  C150     1.0000 0.78300  0.06500  0.62890  Biso   1.000  C
  C151     1.0000 0.76930  0.01410  0.67440  Biso   1.000  C
  H84      1.0000 0.80630  0.01550  0.69700  Biso   1.000  H
  C152     1.0000 0.70070  0.96150  0.68600  Biso   1.000  C
  C153     1.0000 0.87810  0.17610  0.57920  Biso   1.000  C
  C154     1.0000 0.91260  0.11800  0.65330  Biso   1.000  C
  H85      1.0000 0.90900  0.12390  0.69790  Biso   1.000  H
  H86      1.0000 0.91350  0.07460  0.64600  Biso   1.000  H
  C155     1.0000 0.97660  0.18050  0.62580  Biso   1.000  C
  C156     1.0000 0.95600  0.21320  0.58320  Biso   1.000  C
  C157     1.0000 0.00440  0.27410  0.55270  Biso   1.000  C
  H87      1.0000 0.98960  0.29660  0.52460  Biso   1.000  H
  C158     1.0000 0.07430  0.30030  0.56460  Biso   1.000  C
  H88      1.0000 0.10810  0.34070  0.54410  Biso   1.000  H
  C159     1.0000 0.09510  0.26650  0.60770  Biso   1.000  C
  H89      1.0000 0.14300  0.28540  0.61580  Biso   1.000  H
  C160     1.0000 0.04770  0.20680  0.63840  Biso   1.000  C
  H90      1.0000 0.06250  0.18450  0.66670  Biso   1.000  H
  Cu11     1.0000 0.12914  0.26548  0.84410  Biso   1.000  Cu
  O51      1.0000 0.20957  0.27923  0.89720  Biso   1.000  O
  O52      1.0000 0.27557  0.39403  0.87525  Biso   1.000  O
  O53      1.0000 0.29087  0.19943  0.08326  Biso   1.000  O
  O54      1.0000 0.40667  0.25173  0.10222  Biso   1.000  O
  O55      1.0000 0.50877  0.52613  0.88143  Biso   1.000  O
  N11      1.0000 0.52087  0.45173  0.95193  Biso   1.000  N
  C161     1.0000 0.26527  0.33873  0.90113  Biso   1.000  C
  C162     1.0000 0.35387  0.24413  0.07283  Biso   1.000  C
  C163     1.0000 0.31147  0.29033  0.98453  Biso   1.000  C
  H91      1.0000 0.26567  0.25343  0.99113  Biso   1.000  H
  C164     1.0000 0.32517  0.34173  0.93973  Biso   1.000  C
  C165     1.0000 0.39377  0.39613  0.92923  Biso   1.000  C
  H92      1.0000 0.40237  0.43113  0.90013  Biso   1.000  H
  C166     1.0000 0.44967  0.39833  0.96223  Biso   1.000  C
  C167     1.0000 0.43597  0.34743  0.00773  Biso   1.000  C
  H93      1.0000 0.47297  0.34883  0.03033  Biso   1.000  H
  C168     1.0000 0.36737  0.29483  0.01933  Biso   1.000  C
  C169     1.0000 0.54477  0.50943  0.91253  Biso   1.000  C
  C170     1.0000 0.57927  0.45133  0.98663  Biso   1.000  C
  H94      1.0000 0.57567  0.45723  0.03123  Biso   1.000  H
  H95      1.0000 0.58017  0.40793  0.97933  Biso   1.000  H
  C171     1.0000 0.64327  0.51383  0.95913  Biso   1.000  C
  C172     1.0000 0.62267  0.54653  0.91653  Biso   1.000  C
  C173     1.0000 0.67107  0.60743  0.88603  Biso   1.000  C
  H96      1.0000 0.65627  0.62993  0.85793  Biso   1.000  H
  C174     1.0000 0.74097  0.63363  0.89793  Biso   1.000  C
  H97      1.0000 0.77477  0.67403  0.87743  Biso   1.000  H
  C175     1.0000 0.76177  0.59983  0.94103  Biso   1.000  C
  H98      1.0000 0.80967  0.61873  0.94913  Biso   1.000  H
  C176     1.0000 0.71437  0.54013  0.97173  Biso   1.000  C
  H99      1.0000 0.72917  0.51783  0.00003  Biso   1.000  H
  Cu12     1.0000 0.79580  0.59882  0.17744  Biso   1.000  Cu
  O56      1.0000 0.87623  0.61257  0.23054  Biso   1.000  O
  O57      1.0000 0.94223  0.72737  0.20859  Biso   1.000  O
  O58      1.0000 0.95753  0.53277  0.41660  Biso   1.000  O
  O59      1.0000 0.07333  0.58507  0.43556  Biso   1.000  O
  O60      1.0000 0.17543  0.85947  0.21477  Biso   1.000  O
  N12      1.0000 0.18753  0.78507  0.28527  Biso   1.000  N
  C177     1.0000 0.93193  0.67207  0.23447  Biso   1.000  C
  C178     1.0000 0.02053  0.57747  0.40617  Biso   1.000  C
  C179     1.0000 0.97813  0.62367  0.31787  Biso   1.000  C
  H100     1.0000 0.93233  0.58677  0.32447  Biso   1.000  H
  C180     1.0000 0.99183  0.67507  0.27307  Biso   1.000  C
  C181     1.0000 0.06043  0.72947  0.26257  Biso   1.000  C
  H101     1.0000 0.06903  0.76447  0.23347  Biso   1.000  H
  C182     1.0000 0.11633  0.73167  0.29557  Biso   1.000  C
  C183     1.0000 0.10263  0.68077  0.34107  Biso   1.000  C
  H102     1.0000 0.13963  0.68217  0.36367  Biso   1.000  H
  C184     1.0000 0.03403  0.62817  0.35267  Biso   1.000  C
  C185     1.0000 0.21143  0.84277  0.24587  Biso   1.000  C
  C186     1.0000 0.24593  0.78467  0.31997  Biso   1.000  C
  H103     1.0000 0.24233  0.79057  0.36457  Biso   1.000  H
  H104     1.0000 0.24683  0.74127  0.31267  Biso   1.000  H
  C187     1.0000 0.30993  0.84717  0.29247  Biso   1.000  C
  C188     1.0000 0.28933  0.87987  0.24987  Biso   1.000  C
  C189     1.0000 0.33773  0.94077  0.21937  Biso   1.000  C
  H105     1.0000 0.32293  0.96327  0.19127  Biso   1.000  H
  C190     1.0000 0.40763  0.96697  0.23127  Biso   1.000  C
  H106     1.0000 0.44143  0.00737  0.21077  Biso   1.000  H
  C191     1.0000 0.42843  0.93317  0.27437  Biso   1.000  C
  H107     1.0000 0.47633  0.95207  0.28247  Biso   1.000  H
  C192     1.0000 0.38103  0.87347  0.30507  Biso   1.000  C
  H108     1.0000 0.39583  0.85117  0.33337  Biso   1.000  H
  Cu13     1.0000 0.06785  0.53032  0.51077  Biso   1.000  Cu
  O61      1.0000 0.05410  0.59700  0.56387  Biso   1.000  O
  O62      1.0000 0.93930  0.54820  0.54192  Biso   1.000  O
  O63      1.0000 0.13390  0.75810  0.74993  Biso   1.000  O
  O64      1.0000 0.08160  0.82160  0.76889  Biso   1.000  O
  O65      1.0000 0.80720  0.64930  0.54810  Biso   1.000  O
  N13      1.0000 0.88160  0.73580  0.61860  Biso   1.000  N
  C193     1.0000 0.99460  0.59320  0.56780  Biso   1.000  C
  C194     1.0000 0.08920  0.77640  0.73950  Biso   1.000  C
  C195     1.0000 0.04300  0.68780  0.65120  Biso   1.000  C
  H109     1.0000 0.07990  0.67890  0.65780  Biso   1.000  H
  C196     1.0000 0.99160  0.65010  0.60640  Biso   1.000  C
  C197     1.0000 0.93720  0.66430  0.59590  Biso   1.000  C
  H110     1.0000 0.90220  0.63790  0.56680  Biso   1.000  H
  C198     1.0000 0.93500  0.71800  0.62890  Biso   1.000  C
  C199     1.0000 0.98590  0.75520  0.67440  Biso   1.000  C
  H111     1.0000 0.98450  0.79080  0.69700  Biso   1.000  H
  C200     1.0000 0.03850  0.73920  0.68600  Biso   1.000  C
  C201     1.0000 0.82390  0.70200  0.57920  Biso   1.000  C
  C202     1.0000 0.88200  0.79460  0.65330  Biso   1.000  C
  H112     1.0000 0.87610  0.78510  0.69790  Biso   1.000  H
  H113     1.0000 0.92540  0.83890  0.64600  Biso   1.000  H
  C203     1.0000 0.81950  0.79610  0.62580  Biso   1.000  C
  C204     1.0000 0.78680  0.74280  0.58320  Biso   1.000  C
  C205     1.0000 0.72590  0.73030  0.55270  Biso   1.000  C
  H114     1.0000 0.70340  0.69300  0.52460  Biso   1.000  H
  C206     1.0000 0.69970  0.77400  0.56460  Biso   1.000  C
  H115     1.0000 0.65930  0.76740  0.54410  Biso   1.000  H
  C207     1.0000 0.73350  0.82860  0.60770  Biso   1.000  C
  H116     1.0000 0.71460  0.85760  0.61580  Biso   1.000  H
  C208     1.0000 0.79320  0.84090  0.63840  Biso   1.000  C
  H117     1.0000 0.81550  0.87800  0.66670  Biso   1.000  H
  Cu14     1.0000 0.73452  0.86365  0.84410  Biso   1.000  Cu
  O66      1.0000 0.72077  0.93033  0.89720  Biso   1.000  O
  O67      1.0000 0.60597  0.88153  0.87525  Biso   1.000  O
  O68      1.0000 0.80057  0.09143  0.08326  Biso   1.000  O
  O69      1.0000 0.74827  0.15493  0.10222  Biso   1.000  O
  O70      1.0000 0.47387  0.98263  0.88143  Biso   1.000  O
  N14      1.0000 0.54827  0.06913  0.95193  Biso   1.000  N
  C209     1.0000 0.66127  0.92653  0.90113  Biso   1.000  C
  C210     1.0000 0.75587  0.10973  0.07283  Biso   1.000  C
  C211     1.0000 0.70967  0.02113  0.98453  Biso   1.000  C
  H118     1.0000 0.74657  0.01223  0.99113  Biso   1.000  H
  C212     1.0000 0.65827  0.98343  0.93973  Biso   1.000  C
  C213     1.0000 0.60387  0.99763  0.92923  Biso   1.000  C
  H119     1.0000 0.56887  0.97123  0.90013  Biso   1.000  H
  C214     1.0000 0.60167  0.05133  0.96223  Biso   1.000  C
  C215     1.0000 0.65257  0.08853  0.00773  Biso   1.000  C
  H120     1.0000 0.65117  0.12413  0.03033  Biso   1.000  H
  C216     1.0000 0.70517  0.07253  0.01933  Biso   1.000  C
  C217     1.0000 0.49057  0.03533  0.91253  Biso   1.000  C
  C218     1.0000 0.54867  0.12793  0.98663  Biso   1.000  C
  H121     1.0000 0.54277  0.11843  0.03123  Biso   1.000  H
  H122     1.0000 0.59207  0.17223  0.97933  Biso   1.000  H
  C219     1.0000 0.48617  0.12943  0.95913  Biso   1.000  C
  C220     1.0000 0.45347  0.07613  0.91653  Biso   1.000  C
  C221     1.0000 0.39257  0.06363  0.88603  Biso   1.000  C
  H123     1.0000 0.37007  0.02633  0.85793  Biso   1.000  H
  C222     1.0000 0.36637  0.10733  0.89793  Biso   1.000  C
  H124     1.0000 0.32597  0.10073  0.87743  Biso   1.000  H
  C223     1.0000 0.40017  0.16193  0.94103  Biso   1.000  C
  H125     1.0000 0.38127  0.19093  0.94913  Biso   1.000  H
  C224     1.0000 0.45987  0.17423  0.97173  Biso   1.000  C
  H126     1.0000 0.48217  0.21133  0.00003  Biso   1.000  H
  Cu15     1.0000 0.40118  0.19699  0.17744  Biso   1.000  Cu
  O71      1.0000 0.38743  0.26367  0.23054  Biso   1.000  O
  O72      1.0000 0.27263  0.21487  0.20859  Biso   1.000  O
  O73      1.0000 0.46723  0.42477  0.41660  Biso   1.000  O
  O74      1.0000 0.41493  0.48827  0.43556  Biso   1.000  O
  O75      1.0000 0.14053  0.31597  0.21477  Biso   1.000  O
  N15      1.0000 0.21493  0.40247  0.28527  Biso   1.000  N
  C225     1.0000 0.32793  0.25987  0.23447  Biso   1.000  C
  C226     1.0000 0.42253  0.44307  0.40617  Biso   1.000  C
  C227     1.0000 0.37633  0.35447  0.31787  Biso   1.000  C
  H127     1.0000 0.41323  0.34557  0.32447  Biso   1.000  H
  C228     1.0000 0.32493  0.31677  0.27307  Biso   1.000  C
  C229     1.0000 0.27053  0.33097  0.26257  Biso   1.000  C
  H128     1.0000 0.23553  0.30457  0.23347  Biso   1.000  H
  C230     1.0000 0.26833  0.38467  0.29557  Biso   1.000  C
  C231     1.0000 0.31923  0.42187  0.34107  Biso   1.000  C
  H129     1.0000 0.31783  0.45747  0.36367  Biso   1.000  H
  C232     1.0000 0.37183  0.40587  0.35267  Biso   1.000  C
  C233     1.0000 0.15723  0.36867  0.24587  Biso   1.000  C
  C234     1.0000 0.21533  0.46127  0.31997  Biso   1.000  C
  H130     1.0000 0.20943  0.45177  0.36457  Biso   1.000  H
  H131     1.0000 0.25873  0.50557  0.31267  Biso   1.000  H
  C235     1.0000 0.15283  0.46277  0.29247  Biso   1.000  C
  C236     1.0000 0.12013  0.40947  0.24987  Biso   1.000  C
  C237     1.0000 0.05923  0.39697  0.21937  Biso   1.000  C
  H132     1.0000 0.03673  0.35967  0.19127  Biso   1.000  H
  C238     1.0000 0.03303  0.44067  0.23127  Biso   1.000  C
  H133     1.0000 0.99263  0.43407  0.21077  Biso   1.000  H
  C239     1.0000 0.06683  0.49527  0.27437  Biso   1.000  C
  H134     1.0000 0.04793  0.52427  0.28247  Biso   1.000  H
  C240     1.0000 0.12653  0.50757  0.30507  Biso   1.000  C
  H135     1.0000 0.14883  0.54467  0.33337  Biso   1.000  H
  Cu16     1.0000 0.46968  0.53753  0.51077  Biso   1.000  Cu
  O76      1.0000 0.40300  0.45710  0.56387  Biso   1.000  O
  O77      1.0000 0.45180  0.39110  0.54192  Biso   1.000  O
  O78      1.0000 0.24190  0.37580  0.74993  Biso   1.000  O
  O79      1.0000 0.17840  0.26000  0.76889  Biso   1.000  O
  O80      1.0000 0.35070  0.15790  0.54810  Biso   1.000  O
  N16      1.0000 0.26420  0.14580  0.61860  Biso   1.000  N
  C241     1.0000 0.40680  0.40140  0.56780  Biso   1.000  C
  C242     1.0000 0.22360  0.31280  0.73950  Biso   1.000  C
  C243     1.0000 0.31220  0.35520  0.65120  Biso   1.000  C
  H136     1.0000 0.32110  0.40100  0.65780  Biso   1.000  H
  C244     1.0000 0.34990  0.34150  0.60640  Biso   1.000  C
  C245     1.0000 0.33570  0.27290  0.59590  Biso   1.000  C
  H137     1.0000 0.36210  0.26430  0.56680  Biso   1.000  H
  C246     1.0000 0.28200  0.21700  0.62890  Biso   1.000  C
  C247     1.0000 0.24480  0.23070  0.67440  Biso   1.000  C
  H138     1.0000 0.20920  0.19370  0.69700  Biso   1.000  H
  C248     1.0000 0.26080  0.29930  0.68600  Biso   1.000  C
  C249     1.0000 0.29800  0.12190  0.57920  Biso   1.000  C
  C250     1.0000 0.20540  0.08740  0.65330  Biso   1.000  C
  H139     1.0000 0.21490  0.09100  0.69790  Biso   1.000  H
  H140     1.0000 0.16110  0.08650  0.64600  Biso   1.000  H
  C251     1.0000 0.20390  0.02340  0.62580  Biso   1.000  C
  C252     1.0000 0.25720  0.04400  0.58320  Biso   1.000  C
  C253     1.0000 0.26970  0.99560  0.55270  Biso   1.000  C
  H141     1.0000 0.30700  0.01040  0.52460  Biso   1.000  H
  C254     1.0000 0.22600  0.92570  0.56460  Biso   1.000  C
  H142     1.0000 0.23260  0.89190  0.54410  Biso   1.000  H
  C255     1.0000 0.17140  0.90490  0.60770  Biso   1.000  C
  H143     1.0000 0.14240  0.85700  0.61580  Biso   1.000  H
  C256     1.0000 0.15910  0.95230  0.63840  Biso   1.000  C
  H144     1.0000 0.12200  0.93750  0.66670  Biso   1.000  H
  Cu17     1.0000 0.13635  0.87086  0.84410  Biso   1.000  Cu
  O81      1.0000 0.06967  0.79043  0.89720  Biso   1.000  O
  O82      1.0000 0.11847  0.72443  0.87525  Biso   1.000  O
  O83      1.0000 0.90857  0.70913  0.08326  Biso   1.000  O
  O84      1.0000 0.84507  0.59333  0.10222  Biso   1.000  O
  O85      1.0000 0.01737  0.49123  0.88143  Biso   1.000  O
  N17      1.0000 0.93087  0.47913  0.95193  Biso   1.000  N
  C257     1.0000 0.07347  0.73473  0.90113  Biso   1.000  C
  C258     1.0000 0.89027  0.64613  0.07283  Biso   1.000  C
  C259     1.0000 0.97887  0.68853  0.98453  Biso   1.000  C
  H145     1.0000 0.98777  0.73433  0.99113  Biso   1.000  H
  C260     1.0000 0.01657  0.67483  0.93973  Biso   1.000  C
  C261     1.0000 0.00237  0.60623  0.92923  Biso   1.000  C
  H146     1.0000 0.02877  0.59763  0.90013  Biso   1.000  H
  C262     1.0000 0.94867  0.55033  0.96223  Biso   1.000  C
  C263     1.0000 0.91147  0.56403  0.00773  Biso   1.000  C
  H147     1.0000 0.87587  0.52703  0.03033  Biso   1.000  H
  C264     1.0000 0.92747  0.63263  0.01933  Biso   1.000  C
  C265     1.0000 0.96467  0.45523  0.91253  Biso   1.000  C
  C266     1.0000 0.87207  0.42073  0.98663  Biso   1.000  C
  H148     1.0000 0.88157  0.42433  0.03123  Biso   1.000  H
  H149     1.0000 0.82777  0.41983  0.97933  Biso   1.000  H
  C267     1.0000 0.87057  0.35673  0.95913  Biso   1.000  C
  C268     1.0000 0.92387  0.37733  0.91653  Biso   1.000  C
  C269     1.0000 0.93637  0.32893  0.88603  Biso   1.000  C
  H150     1.0000 0.97367  0.34373  0.85793  Biso   1.000  H
  C270     1.0000 0.89267  0.25903  0.89793  Biso   1.000  C
  H151     1.0000 0.89927  0.22523  0.87743  Biso   1.000  H
  C271     1.0000 0.83807  0.23823  0.94103  Biso   1.000  C
  H152     1.0000 0.80907  0.19033  0.94913  Biso   1.000  H
  C272     1.0000 0.82577  0.28563  0.97173  Biso   1.000  C
  H153     1.0000 0.78867  0.27083  0.00003  Biso   1.000  H
  Cu18     1.0000 0.80301  0.20420  0.17744  Biso   1.000  Cu
  O86      1.0000 0.73633  0.12377  0.23054  Biso   1.000  O
  O87      1.0000 0.78513  0.05777  0.20859  Biso   1.000  O
  O88      1.0000 0.57523  0.04247  0.41660  Biso   1.000  O
  O89      1.0000 0.51173  0.92667  0.43556  Biso   1.000  O
  O90      1.0000 0.68403  0.82457  0.21477  Biso   1.000  O
  N18      1.0000 0.59753  0.81247  0.28527  Biso   1.000  N
  C273     1.0000 0.74013  0.06807  0.23447  Biso   1.000  C
  C274     1.0000 0.55693  0.97947  0.40617  Biso   1.000  C
  C275     1.0000 0.64553  0.02187  0.31787  Biso   1.000  C
  H154     1.0000 0.65443  0.06767  0.32447  Biso   1.000  H
  C276     1.0000 0.68323  0.00817  0.27307  Biso   1.000  C
  C277     1.0000 0.66903  0.93957  0.26257  Biso   1.000  C
  H155     1.0000 0.69543  0.93097  0.23347  Biso   1.000  H
  C278     1.0000 0.61533  0.88367  0.29557  Biso   1.000  C
  C279     1.0000 0.57813  0.89737  0.34107  Biso   1.000  C
  H156     1.0000 0.54253  0.86037  0.36367  Biso   1.000  H
  C280     1.0000 0.59413  0.96597  0.35267  Biso   1.000  C
  C281     1.0000 0.63133  0.78857  0.24587  Biso   1.000  C
  C282     1.0000 0.53873  0.75407  0.31997  Biso   1.000  C
  H157     1.0000 0.54823  0.75767  0.36457  Biso   1.000  H
  H158     1.0000 0.49443  0.75317  0.31267  Biso   1.000  H
  C283     1.0000 0.53723  0.69007  0.29247  Biso   1.000  C
  C284     1.0000 0.59053  0.71067  0.24987  Biso   1.000  C
  C285     1.0000 0.60303  0.66227  0.21937  Biso   1.000  C
  H159     1.0000 0.64033  0.67707  0.19127  Biso   1.000  H
  C286     1.0000 0.55933  0.59237  0.23127  Biso   1.000  C
  H160     1.0000 0.56593  0.55857  0.21077  Biso   1.000  H
  C287     1.0000 0.50473  0.57157  0.27437  Biso   1.000  C
  H161     1.0000 0.47573  0.52367  0.28247  Biso   1.000  H
  C288     1.0000 0.49243  0.61897  0.30507  Biso   1.000  C
  H162     1.0000 0.45533  0.60417  0.33337  Biso   1.000  H
