data_image0
_cell_length_a       21.2498
_cell_length_b       21.2498
_cell_length_c       22.0147
_cell_angle_alpha    90
_cell_angle_beta     90
_cell_angle_gamma    120

_symmetry_space_group_name_H-M    "P 1"
_symmetry_int_tables_number       1

loop_
  _symmetry_equiv_pos_as_xyz
  'x, y, z'

loop_
  _atom_site_label
  _atom_site_occupancy
  _atom_site_fract_x
  _atom_site_fract_y
  _atom_site_fract_z
  _atom_site_thermal_displace_type
  _atom_site_B_iso_or_equiv
  _atom_site_type_symbol
  Cu1      1.0000 0.46007  0.53039  0.00980  Biso   1.000  Cu
  O1       1.0000 0.54193  0.59921  0.06200  Biso   1.000  O
  O2       1.0000 0.61133  0.55070  0.04179  Biso   1.000  O
  O3       1.0000 0.73930  0.82089  0.27028  Biso   1.000  O
  O4       1.0000 0.62026  0.75359  0.25260  Biso   1.000  O
  O5       1.0000 0.84570  0.65270  0.04850  Biso   1.000  O
  N1       1.0000 0.85960  0.73910  0.12040  Biso   1.000  N
  C1       1.0000 0.59920  0.59600  0.06683  Biso   1.000  C
  C2       1.0000 0.68480  0.77380  0.24077  Biso   1.000  C
  C3       1.0000 0.70000  0.73910  0.18790  Biso   1.000  C
  C4       1.0000 0.64330  0.68760  0.15200  Biso   1.000  C
  H1       1.0000 0.59580  0.67680  0.15900  Biso   1.000  H
  C5       1.0000 0.65860  0.65320  0.10610  Biso   1.000  C
  C6       1.0000 0.72990  0.66830  0.09620  Biso   1.000  C
  H2       1.0000 0.73940  0.64310  0.06640  Biso   1.000  H
  C7       1.0000 0.78670  0.72090  0.13090  Biso   1.000  C
  C8       1.0000 0.77120  0.75680  0.17670  Biso   1.000  C
  H3       1.0000 0.80870  0.79260  0.19970  Biso   1.000  H
  C9       1.0000 0.88150  0.70470  0.07840  Biso   1.000  C
  C10      1.0000 0.92030  0.79560  0.15390  Biso   1.000  C
  H4       1.0000 0.91620  0.78430  0.19690  Biso   1.000  H
  H5       1.0000 0.92330  0.84230  0.14830  Biso   1.000  H
  C11      1.0000 0.98420  0.79530  0.12680  Biso   1.000  C
  C12      1.0000 0.96210  0.74300  0.08310  Biso   1.000  C
  C13      1.0000 0.01010  0.72800  0.05200  Biso   1.000  C
  H6       1.0000 0.99380  0.69130  0.02300  Biso   1.000  H
  C14      1.0000 0.08280  0.77000  0.06600  Biso   1.000  C
  H7       1.0000 0.11670  0.76240  0.04540  Biso   1.000  H
  C15      1.0000 0.10590  0.82300  0.10990  Biso   1.000  C
  H8       1.0000 0.15520  0.85020  0.11870  Biso   1.000  H
  C16      1.0000 0.05820  0.83710  0.14140  Biso   1.000  C
  H9       1.0000 0.07440  0.87300  0.17110  Biso   1.000  H
  Cu2      1.0000 0.12674  0.86372  0.34313  Biso   1.000  Cu
  O6       1.0000 0.20860  0.93254  0.39533  Biso   1.000  O
  O7       1.0000 0.27800  0.88403  0.37512  Biso   1.000  O
  O8       1.0000 0.40597  0.15422  0.60361  Biso   1.000  O
  O9       1.0000 0.28693  0.08692  0.58593  Biso   1.000  O
  O10      1.0000 0.51237  0.98603  0.38183  Biso   1.000  O
  N2       1.0000 0.52627  0.07243  0.45373  Biso   1.000  N
  C17      1.0000 0.26587  0.92933  0.40016  Biso   1.000  C
  C18      1.0000 0.35147  0.10713  0.57410  Biso   1.000  C
  C19      1.0000 0.36667  0.07243  0.52123  Biso   1.000  C
  C20      1.0000 0.30997  0.02093  0.48533  Biso   1.000  C
  H10      1.0000 0.26247  0.01013  0.49233  Biso   1.000  H
  C21      1.0000 0.32527  0.98653  0.43943  Biso   1.000  C
  C22      1.0000 0.39657  0.00163  0.42953  Biso   1.000  C
  H11      1.0000 0.40607  0.97643  0.39973  Biso   1.000  H
  C23      1.0000 0.45337  0.05423  0.46423  Biso   1.000  C
  C24      1.0000 0.43787  0.09013  0.51003  Biso   1.000  C
  H12      1.0000 0.47537  0.12593  0.53303  Biso   1.000  H
  C25      1.0000 0.54817  0.03803  0.41173  Biso   1.000  C
  C26      1.0000 0.58697  0.12893  0.48723  Biso   1.000  C
  H13      1.0000 0.58287  0.11763  0.53023  Biso   1.000  H
  H14      1.0000 0.58997  0.17563  0.48163  Biso   1.000  H
  C27      1.0000 0.65087  0.12863  0.46013  Biso   1.000  C
  C28      1.0000 0.62877  0.07633  0.41643  Biso   1.000  C
  C29      1.0000 0.67677  0.06133  0.38533  Biso   1.000  C
  H15      1.0000 0.66047  0.02463  0.35633  Biso   1.000  H
  C30      1.0000 0.74947  0.10333  0.39933  Biso   1.000  C
  H16      1.0000 0.78337  0.09573  0.37873  Biso   1.000  H
  C31      1.0000 0.77257  0.15633  0.44323  Biso   1.000  C
  H17      1.0000 0.82187  0.18353  0.45203  Biso   1.000  H
  C32      1.0000 0.72487  0.17043  0.47473  Biso   1.000  C
  H18      1.0000 0.74107  0.20633  0.50443  Biso   1.000  H
  Cu3      1.0000 0.79340  0.19706  0.67647  Biso   1.000  Cu
  O11      1.0000 0.87526  0.26588  0.72867  Biso   1.000  O
  O12      1.0000 0.94466  0.21737  0.70846  Biso   1.000  O
  O13      1.0000 0.07263  0.48756  0.93695  Biso   1.000  O
  O14      1.0000 0.95359  0.42026  0.91927  Biso   1.000  O
  O15      1.0000 0.17903  0.31937  0.71517  Biso   1.000  O
  N3       1.0000 0.19293  0.40577  0.78707  Biso   1.000  N
  C33      1.0000 0.93253  0.26267  0.73350  Biso   1.000  C
  C34      1.0000 0.01813  0.44047  0.90744  Biso   1.000  C
  C35      1.0000 0.03333  0.40577  0.85457  Biso   1.000  C
  C36      1.0000 0.97663  0.35427  0.81867  Biso   1.000  C
  H19      1.0000 0.92913  0.34347  0.82567  Biso   1.000  H
  C37      1.0000 0.99193  0.31987  0.77277  Biso   1.000  C
  C38      1.0000 0.06323  0.33497  0.76287  Biso   1.000  C
  H20      1.0000 0.07273  0.30977  0.73307  Biso   1.000  H
  C39      1.0000 0.12003  0.38757  0.79757  Biso   1.000  C
  C40      1.0000 0.10453  0.42347  0.84337  Biso   1.000  C
  H21      1.0000 0.14203  0.45927  0.86637  Biso   1.000  H
  C41      1.0000 0.21483  0.37137  0.74507  Biso   1.000  C
  C42      1.0000 0.25363  0.46227  0.82057  Biso   1.000  C
  H22      1.0000 0.24953  0.45097  0.86357  Biso   1.000  H
  H23      1.0000 0.25663  0.50897  0.81497  Biso   1.000  H
  C43      1.0000 0.31753  0.46197  0.79347  Biso   1.000  C
  C44      1.0000 0.29543  0.40967  0.74977  Biso   1.000  C
  C45      1.0000 0.34343  0.39467  0.71867  Biso   1.000  C
  H24      1.0000 0.32713  0.35797  0.68967  Biso   1.000  H
  C46      1.0000 0.41613  0.43667  0.73267  Biso   1.000  C
  H25      1.0000 0.45003  0.42907  0.71207  Biso   1.000  H
  C47      1.0000 0.43923  0.48967  0.77657  Biso   1.000  C
  H26      1.0000 0.48853  0.51687  0.78537  Biso   1.000  H
  C48      1.0000 0.39153  0.50377  0.80807  Biso   1.000  C
  H27      1.0000 0.40773  0.53967  0.83777  Biso   1.000  H
  Cu4      1.0000 0.46961  0.92968  0.00980  Biso   1.000  Cu
  O16      1.0000 0.40079  0.94272  0.06200  Biso   1.000  O
  O17      1.0000 0.44930  0.06063  0.04179  Biso   1.000  O
  O18      1.0000 0.17911  0.91841  0.27028  Biso   1.000  O
  O19      1.0000 0.24641  0.86667  0.25260  Biso   1.000  O
  O20      1.0000 0.34730  0.19300  0.04850  Biso   1.000  O
  N4       1.0000 0.26090  0.12050  0.12040  Biso   1.000  N
  C49      1.0000 0.40400  0.00320  0.06683  Biso   1.000  C
  C50      1.0000 0.22620  0.91100  0.24077  Biso   1.000  C
  C51      1.0000 0.26090  0.96090  0.18790  Biso   1.000  C
  C52      1.0000 0.31240  0.95570  0.15200  Biso   1.000  C
  H28      1.0000 0.32320  0.91900  0.15900  Biso   1.000  H
  C53      1.0000 0.34680  0.00540  0.10610  Biso   1.000  C
  C54      1.0000 0.33170  0.06160  0.09620  Biso   1.000  C
  H29      1.0000 0.35690  0.09630  0.06640  Biso   1.000  H
  C55      1.0000 0.27910  0.06580  0.13090  Biso   1.000  C
  C56      1.0000 0.24320  0.01440  0.17670  Biso   1.000  C
  H30      1.0000 0.20740  0.01610  0.19970  Biso   1.000  H
  C57      1.0000 0.29530  0.17680  0.07840  Biso   1.000  C
  C58      1.0000 0.20440  0.12470  0.15390  Biso   1.000  C
  H31      1.0000 0.21570  0.13190  0.19690  Biso   1.000  H
  H32      1.0000 0.15770  0.08100  0.14830  Biso   1.000  H
  C59      1.0000 0.20470  0.18890  0.12680  Biso   1.000  C
  C60      1.0000 0.25700  0.21910  0.08310  Biso   1.000  C
  C61      1.0000 0.27200  0.28210  0.05200  Biso   1.000  C
  H33      1.0000 0.30870  0.30250  0.02300  Biso   1.000  H
  C62      1.0000 0.23000  0.31280  0.06600  Biso   1.000  C
  H34      1.0000 0.23760  0.35430  0.04540  Biso   1.000  H
  C63      1.0000 0.17700  0.28290  0.10990  Biso   1.000  C
  H35      1.0000 0.14980  0.30500  0.11870  Biso   1.000  H
  C64      1.0000 0.16290  0.22110  0.14140  Biso   1.000  C
  H36      1.0000 0.12700  0.20140  0.17110  Biso   1.000  H
  Cu5      1.0000 0.13628  0.26301  0.34313  Biso   1.000  Cu
  O21      1.0000 0.06746  0.27605  0.39533  Biso   1.000  O
  O22      1.0000 0.11597  0.39396  0.37512  Biso   1.000  O
  O23      1.0000 0.84578  0.25174  0.60361  Biso   1.000  O
  O24      1.0000 0.91308  0.20000  0.58593  Biso   1.000  O
  O25      1.0000 0.01397  0.52633  0.38183  Biso   1.000  O
  N5       1.0000 0.92757  0.45383  0.45373  Biso   1.000  N
  C65      1.0000 0.07067  0.33653  0.40016  Biso   1.000  C
  C66      1.0000 0.89287  0.24433  0.57410  Biso   1.000  C
  C67      1.0000 0.92757  0.29423  0.52123  Biso   1.000  C
  C68      1.0000 0.97907  0.28903  0.48533  Biso   1.000  C
  H37      1.0000 0.98987  0.25233  0.49233  Biso   1.000  H
  C69      1.0000 0.01347  0.33873  0.43943  Biso   1.000  C
  C70      1.0000 0.99837  0.39493  0.42953  Biso   1.000  C
  H38      1.0000 0.02357  0.42963  0.39973  Biso   1.000  H
  C71      1.0000 0.94577  0.39913  0.46423  Biso   1.000  C
  C72      1.0000 0.90987  0.34773  0.51003  Biso   1.000  C
  H39      1.0000 0.87407  0.34943  0.53303  Biso   1.000  H
  C73      1.0000 0.96197  0.51013  0.41173  Biso   1.000  C
  C74      1.0000 0.87107  0.45803  0.48723  Biso   1.000  C
  H40      1.0000 0.88237  0.46523  0.53023  Biso   1.000  H
  H41      1.0000 0.82437  0.41433  0.48163  Biso   1.000  H
  C75      1.0000 0.87137  0.52223  0.46013  Biso   1.000  C
  C76      1.0000 0.92367  0.55243  0.41643  Biso   1.000  C
  C77      1.0000 0.93867  0.61543  0.38533  Biso   1.000  C
  H42      1.0000 0.97537  0.63583  0.35633  Biso   1.000  H
  C78      1.0000 0.89667  0.64613  0.39933  Biso   1.000  C
  H43      1.0000 0.90427  0.68763  0.37873  Biso   1.000  H
  C79      1.0000 0.84367  0.61623  0.44323  Biso   1.000  C
  H44      1.0000 0.81647  0.63833  0.45203  Biso   1.000  H
  C80      1.0000 0.82957  0.55443  0.47473  Biso   1.000  C
  H45      1.0000 0.79367  0.53473  0.50443  Biso   1.000  H
  Cu6      1.0000 0.80294  0.59635  0.67647  Biso   1.000  Cu
  O26      1.0000 0.73412  0.60939  0.72867  Biso   1.000  O
  O27      1.0000 0.78263  0.72730  0.70846  Biso   1.000  O
  O28      1.0000 0.51244  0.58508  0.93695  Biso   1.000  O
  O29      1.0000 0.57974  0.53334  0.91927  Biso   1.000  O
  O30      1.0000 0.68063  0.85967  0.71517  Biso   1.000  O
  N6       1.0000 0.59423  0.78717  0.78707  Biso   1.000  N
  C81      1.0000 0.73733  0.66987  0.73350  Biso   1.000  C
  C82      1.0000 0.55953  0.57767  0.90744  Biso   1.000  C
  C83      1.0000 0.59423  0.62757  0.85457  Biso   1.000  C
  C84      1.0000 0.64573  0.62237  0.81867  Biso   1.000  C
  H46      1.0000 0.65653  0.58567  0.82567  Biso   1.000  H
  C85      1.0000 0.68013  0.67207  0.77277  Biso   1.000  C
  C86      1.0000 0.66503  0.72827  0.76287  Biso   1.000  C
  H47      1.0000 0.69023  0.76297  0.73307  Biso   1.000  H
  C87      1.0000 0.61243  0.73247  0.79757  Biso   1.000  C
  C88      1.0000 0.57653  0.68107  0.84337  Biso   1.000  C
  H48      1.0000 0.54073  0.68277  0.86637  Biso   1.000  H
  C89      1.0000 0.62863  0.84347  0.74507  Biso   1.000  C
  C90      1.0000 0.53773  0.79137  0.82057  Biso   1.000  C
  H49      1.0000 0.54903  0.79857  0.86357  Biso   1.000  H
  H50      1.0000 0.49103  0.74767  0.81497  Biso   1.000  H
  C91      1.0000 0.53803  0.85557  0.79347  Biso   1.000  C
  C92      1.0000 0.59033  0.88577  0.74977  Biso   1.000  C
  C93      1.0000 0.60533  0.94877  0.71867  Biso   1.000  C
  H51      1.0000 0.64203  0.96917  0.68967  Biso   1.000  H
  C94      1.0000 0.56333  0.97947  0.73267  Biso   1.000  C
  H52      1.0000 0.57093  0.02097  0.71207  Biso   1.000  H
  C95      1.0000 0.51033  0.94957  0.77657  Biso   1.000  C
  H53      1.0000 0.48313  0.97167  0.78537  Biso   1.000  H
  C96      1.0000 0.49623  0.88777  0.80807  Biso   1.000  C
  H54      1.0000 0.46033  0.86807  0.83777  Biso   1.000  H
  Cu7      1.0000 0.07032  0.53993  0.00980  Biso   1.000  Cu
  O31      1.0000 0.05728  0.45807  0.06200  Biso   1.000  O
  O32      1.0000 0.93937  0.38867  0.04179  Biso   1.000  O
  O33      1.0000 0.08159  0.26070  0.27028  Biso   1.000  O
  O34      1.0000 0.13333  0.37974  0.25260  Biso   1.000  O
  O35      1.0000 0.80700  0.15430  0.04850  Biso   1.000  O
  N7       1.0000 0.87950  0.14040  0.12040  Biso   1.000  N
  C97      1.0000 0.99680  0.40080  0.06683  Biso   1.000  C
  C98      1.0000 0.08900  0.31520  0.24077  Biso   1.000  C
  C99      1.0000 0.03910  0.30000  0.18790  Biso   1.000  C
  C100     1.0000 0.04430  0.35670  0.15200  Biso   1.000  C
  H55      1.0000 0.08100  0.40420  0.15900  Biso   1.000  H
  C101     1.0000 0.99460  0.34140  0.10610  Biso   1.000  C
  C102     1.0000 0.93840  0.27010  0.09620  Biso   1.000  C
  H56      1.0000 0.90370  0.26060  0.06640  Biso   1.000  H
  C103     1.0000 0.93420  0.21330  0.13090  Biso   1.000  C
  C104     1.0000 0.98560  0.22880  0.17670  Biso   1.000  C
  H57      1.0000 0.98390  0.19130  0.19970  Biso   1.000  H
  C105     1.0000 0.82320  0.11850  0.07840  Biso   1.000  C
  C106     1.0000 0.87530  0.07970  0.15390  Biso   1.000  C
  H58      1.0000 0.86810  0.08380  0.19690  Biso   1.000  H
  H59      1.0000 0.91900  0.07670  0.14830  Biso   1.000  H
  C107     1.0000 0.81110  0.01580  0.12680  Biso   1.000  C
  C108     1.0000 0.78090  0.03790  0.08310  Biso   1.000  C
  C109     1.0000 0.71790  0.98990  0.05200  Biso   1.000  C
  H60      1.0000 0.69750  0.00620  0.02300  Biso   1.000  H
  C110     1.0000 0.68720  0.91720  0.06600  Biso   1.000  C
  H61      1.0000 0.64570  0.88330  0.04540  Biso   1.000  H
  C111     1.0000 0.71710  0.89410  0.10990  Biso   1.000  C
  H62      1.0000 0.69500  0.84480  0.11870  Biso   1.000  H
  C112     1.0000 0.77890  0.94180  0.14140  Biso   1.000  C
  H63      1.0000 0.79860  0.92560  0.17110  Biso   1.000  H
  Cu8      1.0000 0.73699  0.87326  0.34313  Biso   1.000  Cu
  O36      1.0000 0.72395  0.79140  0.39533  Biso   1.000  O
  O37      1.0000 0.60604  0.72200  0.37512  Biso   1.000  O
  O38      1.0000 0.74826  0.59403  0.60361  Biso   1.000  O
  O39      1.0000 0.80000  0.71307  0.58593  Biso   1.000  O
  O40      1.0000 0.47367  0.48763  0.38183  Biso   1.000  O
  N8       1.0000 0.54617  0.47373  0.45373  Biso   1.000  N
  C113     1.0000 0.66347  0.73413  0.40016  Biso   1.000  C
  C114     1.0000 0.75567  0.64853  0.57410  Biso   1.000  C
  C115     1.0000 0.70577  0.63333  0.52123  Biso   1.000  C
  C116     1.0000 0.71097  0.69003  0.48533  Biso   1.000  C
  H64      1.0000 0.74767  0.73753  0.49233  Biso   1.000  H
  C117     1.0000 0.66127  0.67473  0.43943  Biso   1.000  C
  C118     1.0000 0.60507  0.60343  0.42953  Biso   1.000  C
  H65      1.0000 0.57037  0.59393  0.39973  Biso   1.000  H
  C119     1.0000 0.60087  0.54663  0.46423  Biso   1.000  C
  C120     1.0000 0.65227  0.56213  0.51003  Biso   1.000  C
  H66      1.0000 0.65057  0.52463  0.53303  Biso   1.000  H
  C121     1.0000 0.48987  0.45183  0.41173  Biso   1.000  C
  C122     1.0000 0.54197  0.41303  0.48723  Biso   1.000  C
  H67      1.0000 0.53477  0.41713  0.53023  Biso   1.000  H
  H68      1.0000 0.58567  0.41003  0.48163  Biso   1.000  H
  C123     1.0000 0.47777  0.34913  0.46013  Biso   1.000  C
  C124     1.0000 0.44757  0.37123  0.41643  Biso   1.000  C
  C125     1.0000 0.38457  0.32323  0.38533  Biso   1.000  C
  H69      1.0000 0.36417  0.33953  0.35633  Biso   1.000  H
  C126     1.0000 0.35387  0.25053  0.39933  Biso   1.000  C
  H70      1.0000 0.31237  0.21663  0.37873  Biso   1.000  H
  C127     1.0000 0.38377  0.22743  0.44323  Biso   1.000  C
  H71      1.0000 0.36167  0.17813  0.45203  Biso   1.000  H
  C128     1.0000 0.44557  0.27513  0.47473  Biso   1.000  C
  H72      1.0000 0.46527  0.25893  0.50443  Biso   1.000  H
  Cu9      1.0000 0.40365  0.20660  0.67647  Biso   1.000  Cu
  O41      1.0000 0.39061  0.12474  0.72867  Biso   1.000  O
  O42      1.0000 0.27270  0.05534  0.70846  Biso   1.000  O
  O43      1.0000 0.41492  0.92737  0.93695  Biso   1.000  O
  O44      1.0000 0.46666  0.04641  0.91927  Biso   1.000  O
  O45      1.0000 0.14033  0.82097  0.71517  Biso   1.000  O
  N9       1.0000 0.21283  0.80707  0.78707  Biso   1.000  N
  C129     1.0000 0.33013  0.06747  0.73350  Biso   1.000  C
  C130     1.0000 0.42233  0.98187  0.90744  Biso   1.000  C
  C131     1.0000 0.37243  0.96667  0.85457  Biso   1.000  C
  C132     1.0000 0.37763  0.02337  0.81867  Biso   1.000  C
  H73      1.0000 0.41433  0.07087  0.82567  Biso   1.000  H
  C133     1.0000 0.32793  0.00807  0.77277  Biso   1.000  C
  C134     1.0000 0.27173  0.93677  0.76287  Biso   1.000  C
  H74      1.0000 0.23703  0.92727  0.73307  Biso   1.000  H
  C135     1.0000 0.26753  0.87997  0.79757  Biso   1.000  C
  C136     1.0000 0.31893  0.89547  0.84337  Biso   1.000  C
  H75      1.0000 0.31723  0.85797  0.86637  Biso   1.000  H
  C137     1.0000 0.15653  0.78517  0.74507  Biso   1.000  C
  C138     1.0000 0.20863  0.74637  0.82057  Biso   1.000  C
  H76      1.0000 0.20143  0.75047  0.86357  Biso   1.000  H
  H77      1.0000 0.25233  0.74337  0.81497  Biso   1.000  H
  C139     1.0000 0.14443  0.68247  0.79347  Biso   1.000  C
  C140     1.0000 0.11423  0.70457  0.74977  Biso   1.000  C
  C141     1.0000 0.05123  0.65657  0.71867  Biso   1.000  C
  H78      1.0000 0.03083  0.67287  0.68967  Biso   1.000  H
  C142     1.0000 0.02053  0.58387  0.73267  Biso   1.000  C
  H79      1.0000 0.97903  0.54997  0.71207  Biso   1.000  H
  C143     1.0000 0.05043  0.56077  0.77657  Biso   1.000  C
  H80      1.0000 0.02833  0.51147  0.78537  Biso   1.000  H
  C144     1.0000 0.11223  0.60847  0.80807  Biso   1.000  C
  H81      1.0000 0.13193  0.59227  0.83777  Biso   1.000  H
  Cu10     1.0000 0.53993  0.46961  0.99020  Biso   1.000  Cu
  O46      1.0000 0.45807  0.40079  0.93800  Biso   1.000  O
  O47      1.0000 0.38867  0.44930  0.95821  Biso   1.000  O
  O48      1.0000 0.26070  0.17911  0.72972  Biso   1.000  O
  O49      1.0000 0.37974  0.24641  0.74740  Biso   1.000  O
  O50      1.0000 0.15430  0.34730  0.95150  Biso   1.000  O
  N10      1.0000 0.14040  0.26090  0.87960  Biso   1.000  N
  C145     1.0000 0.40080  0.40400  0.93317  Biso   1.000  C
  C146     1.0000 0.31520  0.22620  0.75923  Biso   1.000  C
  C147     1.0000 0.30000  0.26090  0.81210  Biso   1.000  C
  C148     1.0000 0.35670  0.31240  0.84800  Biso   1.000  C
  H82      1.0000 0.40420  0.32320  0.84100  Biso   1.000  H
  C149     1.0000 0.34140  0.34680  0.89390  Biso   1.000  C
  C150     1.0000 0.27010  0.33170  0.90380  Biso   1.000  C
  H83      1.0000 0.26060  0.35690  0.93360  Biso   1.000  H
  C151     1.0000 0.21330  0.27910  0.86910  Biso   1.000  C
  C152     1.0000 0.22880  0.24320  0.82330  Biso   1.000  C
  H84      1.0000 0.19130  0.20740  0.80030  Biso   1.000  H
  C153     1.0000 0.11850  0.29530  0.92160  Biso   1.000  C
  C154     1.0000 0.07970  0.20440  0.84610  Biso   1.000  C
  H85      1.0000 0.08380  0.21570  0.80310  Biso   1.000  H
  H86      1.0000 0.07670  0.15770  0.85170  Biso   1.000  H
  C155     1.0000 0.01580  0.20470  0.87320  Biso   1.000  C
  C156     1.0000 0.03790  0.25700  0.91690  Biso   1.000  C
  C157     1.0000 0.98990  0.27200  0.94800  Biso   1.000  C
  H87      1.0000 0.00620  0.30870  0.97700  Biso   1.000  H
  C158     1.0000 0.91720  0.23000  0.93400  Biso   1.000  C
  H88      1.0000 0.88330  0.23760  0.95460  Biso   1.000  H
  C159     1.0000 0.89410  0.17700  0.89010  Biso   1.000  C
  H89      1.0000 0.84480  0.14980  0.88130  Biso   1.000  H
  C160     1.0000 0.94180  0.16290  0.85860  Biso   1.000  C
  H90      1.0000 0.92560  0.12700  0.82890  Biso   1.000  H
  Cu11     1.0000 0.20660  0.80294  0.32353  Biso   1.000  Cu
  O51      1.0000 0.12474  0.73412  0.27133  Biso   1.000  O
  O52      1.0000 0.05534  0.78263  0.29154  Biso   1.000  O
  O53      1.0000 0.92737  0.51244  0.06305  Biso   1.000  O
  O54      1.0000 0.04641  0.57974  0.08073  Biso   1.000  O
  O55      1.0000 0.82097  0.68063  0.28483  Biso   1.000  O
  N11      1.0000 0.80707  0.59423  0.21293  Biso   1.000  N
  C161     1.0000 0.06747  0.73733  0.26650  Biso   1.000  C
  C162     1.0000 0.98187  0.55953  0.09256  Biso   1.000  C
  C163     1.0000 0.96667  0.59423  0.14543  Biso   1.000  C
  C164     1.0000 0.02337  0.64573  0.18133  Biso   1.000  C
  H91      1.0000 0.07087  0.65653  0.17433  Biso   1.000  H
  C165     1.0000 0.00807  0.68013  0.22723  Biso   1.000  C
  C166     1.0000 0.93677  0.66503  0.23713  Biso   1.000  C
  H92      1.0000 0.92727  0.69023  0.26693  Biso   1.000  H
  C167     1.0000 0.87997  0.61243  0.20243  Biso   1.000  C
  C168     1.0000 0.89547  0.57653  0.15663  Biso   1.000  C
  H93      1.0000 0.85797  0.54073  0.13363  Biso   1.000  H
  C169     1.0000 0.78517  0.62863  0.25493  Biso   1.000  C
  C170     1.0000 0.74637  0.53773  0.17943  Biso   1.000  C
  H94      1.0000 0.75047  0.54903  0.13643  Biso   1.000  H
  H95      1.0000 0.74337  0.49103  0.18503  Biso   1.000  H
  C171     1.0000 0.68247  0.53803  0.20653  Biso   1.000  C
  C172     1.0000 0.70457  0.59033  0.25023  Biso   1.000  C
  C173     1.0000 0.65657  0.60533  0.28133  Biso   1.000  C
  H96      1.0000 0.67287  0.64203  0.31033  Biso   1.000  H
  C174     1.0000 0.58387  0.56333  0.26733  Biso   1.000  C
  H97      1.0000 0.54997  0.57093  0.28793  Biso   1.000  H
  C175     1.0000 0.56077  0.51033  0.22343  Biso   1.000  C
  H98      1.0000 0.51147  0.48313  0.21463  Biso   1.000  H
  C176     1.0000 0.60847  0.49623  0.19193  Biso   1.000  C
  H99      1.0000 0.59227  0.46033  0.16223  Biso   1.000  H
  Cu12     1.0000 0.87326  0.13628  0.65687  Biso   1.000  Cu
  O56      1.0000 0.79140  0.06746  0.60467  Biso   1.000  O
  O57      1.0000 0.72200  0.11597  0.62488  Biso   1.000  O
  O58      1.0000 0.59403  0.84578  0.39639  Biso   1.000  O
  O59      1.0000 0.71307  0.91308  0.41407  Biso   1.000  O
  O60      1.0000 0.48763  0.01397  0.61817  Biso   1.000  O
  N12      1.0000 0.47373  0.92757  0.54627  Biso   1.000  N
  C177     1.0000 0.73413  0.07067  0.59984  Biso   1.000  C
  C178     1.0000 0.64853  0.89287  0.42590  Biso   1.000  C
  C179     1.0000 0.63333  0.92757  0.47877  Biso   1.000  C
  C180     1.0000 0.69003  0.97907  0.51467  Biso   1.000  C
  H100     1.0000 0.73753  0.98987  0.50767  Biso   1.000  H
  C181     1.0000 0.67473  0.01347  0.56057  Biso   1.000  C
  C182     1.0000 0.60343  0.99837  0.57047  Biso   1.000  C
  H101     1.0000 0.59393  0.02357  0.60027  Biso   1.000  H
  C183     1.0000 0.54663  0.94577  0.53577  Biso   1.000  C
  C184     1.0000 0.56213  0.90987  0.48997  Biso   1.000  C
  H102     1.0000 0.52463  0.87407  0.46697  Biso   1.000  H
  C185     1.0000 0.45183  0.96197  0.58827  Biso   1.000  C
  C186     1.0000 0.41303  0.87107  0.51277  Biso   1.000  C
  H103     1.0000 0.41713  0.88237  0.46977  Biso   1.000  H
  H104     1.0000 0.41003  0.82437  0.51837  Biso   1.000  H
  C187     1.0000 0.34913  0.87137  0.53987  Biso   1.000  C
  C188     1.0000 0.37123  0.92367  0.58357  Biso   1.000  C
  C189     1.0000 0.32323  0.93867  0.61467  Biso   1.000  C
  H105     1.0000 0.33953  0.97537  0.64367  Biso   1.000  H
  C190     1.0000 0.25053  0.89667  0.60067  Biso   1.000  C
  H106     1.0000 0.21663  0.90427  0.62127  Biso   1.000  H
  C191     1.0000 0.22743  0.84367  0.55677  Biso   1.000  C
  H107     1.0000 0.17813  0.81647  0.54797  Biso   1.000  H
  C192     1.0000 0.27513  0.82957  0.52527  Biso   1.000  C
  H108     1.0000 0.25893  0.79367  0.49557  Biso   1.000  H
  Cu13     1.0000 0.53039  0.07032  0.99020  Biso   1.000  Cu
  O61      1.0000 0.59921  0.05728  0.93800  Biso   1.000  O
  O62      1.0000 0.55070  0.93937  0.95821  Biso   1.000  O
  O63      1.0000 0.82089  0.08159  0.72972  Biso   1.000  O
  O64      1.0000 0.75359  0.13333  0.74740  Biso   1.000  O
  O65      1.0000 0.65270  0.80700  0.95150  Biso   1.000  O
  N13      1.0000 0.73910  0.87950  0.87960  Biso   1.000  N
  C193     1.0000 0.59600  0.99680  0.93317  Biso   1.000  C
  C194     1.0000 0.77380  0.08900  0.75923  Biso   1.000  C
  C195     1.0000 0.73910  0.03910  0.81210  Biso   1.000  C
  C196     1.0000 0.68760  0.04430  0.84800  Biso   1.000  C
  H109     1.0000 0.67680  0.08100  0.84100  Biso   1.000  H
  C197     1.0000 0.65320  0.99460  0.89390  Biso   1.000  C
  C198     1.0000 0.66830  0.93840  0.90380  Biso   1.000  C
  H110     1.0000 0.64310  0.90370  0.93360  Biso   1.000  H
  C199     1.0000 0.72090  0.93420  0.86910  Biso   1.000  C
  C200     1.0000 0.75680  0.98560  0.82330  Biso   1.000  C
  H111     1.0000 0.79260  0.98390  0.80030  Biso   1.000  H
  C201     1.0000 0.70470  0.82320  0.92160  Biso   1.000  C
  C202     1.0000 0.79560  0.87530  0.84610  Biso   1.000  C
  H112     1.0000 0.78430  0.86810  0.80310  Biso   1.000  H
  H113     1.0000 0.84230  0.91900  0.85170  Biso   1.000  H
  C203     1.0000 0.79530  0.81110  0.87320  Biso   1.000  C
  C204     1.0000 0.74300  0.78090  0.91690  Biso   1.000  C
  C205     1.0000 0.72800  0.71790  0.94800  Biso   1.000  C
  H114     1.0000 0.69130  0.69750  0.97700  Biso   1.000  H
  C206     1.0000 0.77000  0.68720  0.93400  Biso   1.000  C
  H115     1.0000 0.76240  0.64570  0.95460  Biso   1.000  H
  C207     1.0000 0.82300  0.71710  0.89010  Biso   1.000  C
  H116     1.0000 0.85020  0.69500  0.88130  Biso   1.000  H
  C208     1.0000 0.83710  0.77890  0.85860  Biso   1.000  C
  H117     1.0000 0.87300  0.79860  0.82890  Biso   1.000  H
  Cu14     1.0000 0.19706  0.40365  0.32353  Biso   1.000  Cu
  O66      1.0000 0.26588  0.39061  0.27133  Biso   1.000  O
  O67      1.0000 0.21737  0.27270  0.29154  Biso   1.000  O
  O68      1.0000 0.48756  0.41492  0.06305  Biso   1.000  O
  O69      1.0000 0.42026  0.46666  0.08073  Biso   1.000  O
  O70      1.0000 0.31937  0.14033  0.28483  Biso   1.000  O
  N14      1.0000 0.40577  0.21283  0.21293  Biso   1.000  N
  C209     1.0000 0.26267  0.33013  0.26650  Biso   1.000  C
  C210     1.0000 0.44047  0.42233  0.09256  Biso   1.000  C
  C211     1.0000 0.40577  0.37243  0.14543  Biso   1.000  C
  C212     1.0000 0.35427  0.37763  0.18133  Biso   1.000  C
  H118     1.0000 0.34347  0.41433  0.17433  Biso   1.000  H
  C213     1.0000 0.31987  0.32793  0.22723  Biso   1.000  C
  C214     1.0000 0.33497  0.27173  0.23713  Biso   1.000  C
  H119     1.0000 0.30977  0.23703  0.26693  Biso   1.000  H
  C215     1.0000 0.38757  0.26753  0.20243  Biso   1.000  C
  C216     1.0000 0.42347  0.31893  0.15663  Biso   1.000  C
  H120     1.0000 0.45927  0.31723  0.13363  Biso   1.000  H
  C217     1.0000 0.37137  0.15653  0.25493  Biso   1.000  C
  C218     1.0000 0.46227  0.20863  0.17943  Biso   1.000  C
  H121     1.0000 0.45097  0.20143  0.13643  Biso   1.000  H
  H122     1.0000 0.50897  0.25233  0.18503  Biso   1.000  H
  C219     1.0000 0.46197  0.14443  0.20653  Biso   1.000  C
  C220     1.0000 0.40967  0.11423  0.25023  Biso   1.000  C
  C221     1.0000 0.39467  0.05123  0.28133  Biso   1.000  C
  H123     1.0000 0.35797  0.03083  0.31033  Biso   1.000  H
  C222     1.0000 0.43667  0.02053  0.26733  Biso   1.000  C
  H124     1.0000 0.42907  0.97903  0.28793  Biso   1.000  H
  C223     1.0000 0.48967  0.05043  0.22343  Biso   1.000  C
  H125     1.0000 0.51687  0.02833  0.21463  Biso   1.000  H
  C224     1.0000 0.50377  0.11223  0.19193  Biso   1.000  C
  H126     1.0000 0.53967  0.13193  0.16223  Biso   1.000  H
  Cu15     1.0000 0.86372  0.73699  0.65687  Biso   1.000  Cu
  O71      1.0000 0.93254  0.72395  0.60467  Biso   1.000  O
  O72      1.0000 0.88403  0.60604  0.62488  Biso   1.000  O
  O73      1.0000 0.15422  0.74826  0.39639  Biso   1.000  O
  O74      1.0000 0.08692  0.80000  0.41407  Biso   1.000  O
  O75      1.0000 0.98603  0.47367  0.61817  Biso   1.000  O
  N15      1.0000 0.07243  0.54617  0.54627  Biso   1.000  N
  C225     1.0000 0.92933  0.66347  0.59984  Biso   1.000  C
  C226     1.0000 0.10713  0.75567  0.42590  Biso   1.000  C
  C227     1.0000 0.07243  0.70577  0.47877  Biso   1.000  C
  C228     1.0000 0.02093  0.71097  0.51467  Biso   1.000  C
  H127     1.0000 0.01013  0.74767  0.50767  Biso   1.000  H
  C229     1.0000 0.98653  0.66127  0.56057  Biso   1.000  C
  C230     1.0000 0.00163  0.60507  0.57047  Biso   1.000  C
  H128     1.0000 0.97643  0.57037  0.60027  Biso   1.000  H
  C231     1.0000 0.05423  0.60087  0.53577  Biso   1.000  C
  C232     1.0000 0.09013  0.65227  0.48997  Biso   1.000  C
  H129     1.0000 0.12593  0.65057  0.46697  Biso   1.000  H
  C233     1.0000 0.03803  0.48987  0.58827  Biso   1.000  C
  C234     1.0000 0.12893  0.54197  0.51277  Biso   1.000  C
  H130     1.0000 0.11763  0.53477  0.46977  Biso   1.000  H
  H131     1.0000 0.17563  0.58567  0.51837  Biso   1.000  H
  C235     1.0000 0.12863  0.47777  0.53987  Biso   1.000  C
  C236     1.0000 0.07633  0.44757  0.58357  Biso   1.000  C
  C237     1.0000 0.06133  0.38457  0.61467  Biso   1.000  C
  H132     1.0000 0.02463  0.36417  0.64367  Biso   1.000  H
  C238     1.0000 0.10333  0.35387  0.60067  Biso   1.000  C
  H133     1.0000 0.09573  0.31237  0.62127  Biso   1.000  H
  C239     1.0000 0.15633  0.38377  0.55677  Biso   1.000  C
  H134     1.0000 0.18353  0.36167  0.54797  Biso   1.000  H
  C240     1.0000 0.17043  0.44557  0.52527  Biso   1.000  C
  H135     1.0000 0.20633  0.46527  0.49557  Biso   1.000  H
  Cu16     1.0000 0.92968  0.46007  0.99020  Biso   1.000  Cu
  O76      1.0000 0.94272  0.54193  0.93800  Biso   1.000  O
  O77      1.0000 0.06063  0.61133  0.95821  Biso   1.000  O
  O78      1.0000 0.91841  0.73930  0.72972  Biso   1.000  O
  O79      1.0000 0.86667  0.62026  0.74740  Biso   1.000  O
  O80      1.0000 0.19300  0.84570  0.95150  Biso   1.000  O
  N16      1.0000 0.12050  0.85960  0.87960  Biso   1.000  N
  C241     1.0000 0.00320  0.59920  0.93317  Biso   1.000  C
  C242     1.0000 0.91100  0.68480  0.75923  Biso   1.000  C
  C243     1.0000 0.96090  0.70000  0.81210  Biso   1.000  C
  C244     1.0000 0.95570  0.64330  0.84800  Biso   1.000  C
  H136     1.0000 0.91900  0.59580  0.84100  Biso   1.000  H
  C245     1.0000 0.00540  0.65860  0.89390  Biso   1.000  C
  C246     1.0000 0.06160  0.72990  0.90380  Biso   1.000  C
  H137     1.0000 0.09630  0.73940  0.93360  Biso   1.000  H
  C247     1.0000 0.06580  0.78670  0.86910  Biso   1.000  C
  C248     1.0000 0.01440  0.77120  0.82330  Biso   1.000  C
  H138     1.0000 0.01610  0.80870  0.80030  Biso   1.000  H
  C249     1.0000 0.17680  0.88150  0.92160  Biso   1.000  C
  C250     1.0000 0.12470  0.92030  0.84610  Biso   1.000  C
  H139     1.0000 0.13190  0.91620  0.80310  Biso   1.000  H
  H140     1.0000 0.08100  0.92330  0.85170  Biso   1.000  H
  C251     1.0000 0.18890  0.98420  0.87320  Biso   1.000  C
  C252     1.0000 0.21910  0.96210  0.91690  Biso   1.000  C
  C253     1.0000 0.28210  0.01010  0.94800  Biso   1.000  C
  H141     1.0000 0.30250  0.99380  0.97700  Biso   1.000  H
  C254     1.0000 0.31280  0.08280  0.93400  Biso   1.000  C
  H142     1.0000 0.35430  0.11670  0.95460  Biso   1.000  H
  C255     1.0000 0.28290  0.10590  0.89010  Biso   1.000  C
  H143     1.0000 0.30500  0.15520  0.88130  Biso   1.000  H
  C256     1.0000 0.22110  0.05820  0.85860  Biso   1.000  C
  H144     1.0000 0.20140  0.07440  0.82890  Biso   1.000  H
  Cu17     1.0000 0.59635  0.79340  0.32353  Biso   1.000  Cu
  O81      1.0000 0.60939  0.87526  0.27133  Biso   1.000  O
  O82      1.0000 0.72730  0.94466  0.29154  Biso   1.000  O
  O83      1.0000 0.58508  0.07263  0.06305  Biso   1.000  O
  O84      1.0000 0.53334  0.95359  0.08073  Biso   1.000  O
  O85      1.0000 0.85967  0.17903  0.28483  Biso   1.000  O
  N17      1.0000 0.78717  0.19293  0.21293  Biso   1.000  N
  C257     1.0000 0.66987  0.93253  0.26650  Biso   1.000  C
  C258     1.0000 0.57767  0.01813  0.09256  Biso   1.000  C
  C259     1.0000 0.62757  0.03333  0.14543  Biso   1.000  C
  C260     1.0000 0.62237  0.97663  0.18133  Biso   1.000  C
  H145     1.0000 0.58567  0.92913  0.17433  Biso   1.000  H
  C261     1.0000 0.67207  0.99193  0.22723  Biso   1.000  C
  C262     1.0000 0.72827  0.06323  0.23713  Biso   1.000  C
  H146     1.0000 0.76297  0.07273  0.26693  Biso   1.000  H
  C263     1.0000 0.73247  0.12003  0.20243  Biso   1.000  C
  C264     1.0000 0.68107  0.10453  0.15663  Biso   1.000  C
  H147     1.0000 0.68277  0.14203  0.13363  Biso   1.000  H
  C265     1.0000 0.84347  0.21483  0.25493  Biso   1.000  C
  C266     1.0000 0.79137  0.25363  0.17943  Biso   1.000  C
  H148     1.0000 0.79857  0.24953  0.13643  Biso   1.000  H
  H149     1.0000 0.74767  0.25663  0.18503  Biso   1.000  H
  C267     1.0000 0.85557  0.31753  0.20653  Biso   1.000  C
  C268     1.0000 0.88577  0.29543  0.25023  Biso   1.000  C
  C269     1.0000 0.94877  0.34343  0.28133  Biso   1.000  C
  H150     1.0000 0.96917  0.32713  0.31033  Biso   1.000  H
  C270     1.0000 0.97947  0.41613  0.26733  Biso   1.000  C
  H151     1.0000 0.02097  0.45003  0.28793  Biso   1.000  H
  C271     1.0000 0.94957  0.43923  0.22343  Biso   1.000  C
  H152     1.0000 0.97167  0.48853  0.21463  Biso   1.000  H
  C272     1.0000 0.88777  0.39153  0.19193  Biso   1.000  C
  H153     1.0000 0.86807  0.40773  0.16223  Biso   1.000  H
  Cu18     1.0000 0.26301  0.12674  0.65687  Biso   1.000  Cu
  O86      1.0000 0.27605  0.20860  0.60467  Biso   1.000  O
  O87      1.0000 0.39396  0.27800  0.62488  Biso   1.000  O
  O88      1.0000 0.25174  0.40597  0.39639  Biso   1.000  O
  O89      1.0000 0.20000  0.28693  0.41407  Biso   1.000  O
  O90      1.0000 0.52633  0.51237  0.61817  Biso   1.000  O
  N18      1.0000 0.45383  0.52627  0.54627  Biso   1.000  N
  C273     1.0000 0.33653  0.26587  0.59984  Biso   1.000  C
  C274     1.0000 0.24433  0.35147  0.42590  Biso   1.000  C
  C275     1.0000 0.29423  0.36667  0.47877  Biso   1.000  C
  C276     1.0000 0.28903  0.30997  0.51467  Biso   1.000  C
  H154     1.0000 0.25233  0.26247  0.50767  Biso   1.000  H
  C277     1.0000 0.33873  0.32527  0.56057  Biso   1.000  C
  C278     1.0000 0.39493  0.39657  0.57047  Biso   1.000  C
  H155     1.0000 0.42963  0.40607  0.60027  Biso   1.000  H
  C279     1.0000 0.39913  0.45337  0.53577  Biso   1.000  C
  C280     1.0000 0.34773  0.43787  0.48997  Biso   1.000  C
  H156     1.0000 0.34943  0.47537  0.46697  Biso   1.000  H
  C281     1.0000 0.51013  0.54817  0.58827  Biso   1.000  C
  C282     1.0000 0.45803  0.58697  0.51277  Biso   1.000  C
  H157     1.0000 0.46523  0.58287  0.46977  Biso   1.000  H
  H158     1.0000 0.41433  0.58997  0.51837  Biso   1.000  H
  C283     1.0000 0.52223  0.65087  0.53987  Biso   1.000  C
  C284     1.0000 0.55243  0.62877  0.58357  Biso   1.000  C
  C285     1.0000 0.61543  0.67677  0.61467  Biso   1.000  C
  H159     1.0000 0.63583  0.66047  0.64367  Biso   1.000  H
  C286     1.0000 0.64613  0.74947  0.60067  Biso   1.000  C
  H160     1.0000 0.68763  0.78337  0.62127  Biso   1.000  H
  C287     1.0000 0.61623  0.77257  0.55677  Biso   1.000  C
  H161     1.0000 0.63833  0.82187  0.54797  Biso   1.000  H
  C288     1.0000 0.55443  0.72487  0.52527  Biso   1.000  C
  H162     1.0000 0.53473  0.74107  0.49557  Biso   1.000  H
