data_image0
_cell_length_a       20.3837
_cell_length_b       20.3837
_cell_length_c       14.0079
_cell_angle_alpha    90
_cell_angle_beta     90
_cell_angle_gamma    90

_symmetry_space_group_name_H-M    "P 1"
_symmetry_int_tables_number       1

loop_
  _symmetry_equiv_pos_as_xyz
  'x, y, z'

loop_
  _atom_site_label
  _atom_site_occupancy
  _atom_site_fract_x
  _atom_site_fract_y
  _atom_site_fract_z
  _atom_site_thermal_displace_type
  _atom_site_B_iso_or_equiv
  _atom_site_type_symbol
  N1       1.0000 0.47580  0.34450  0.07520  Biso   1.000  N
  N2       1.0000 0.59740  0.48160  0.19420  Biso   1.000  N
  C1       1.0000 0.48350  0.39760  0.04880  Biso   1.000  C
  C2       1.0000 0.56510  0.48790  0.12910  Biso   1.000  C
  N3       1.0000 0.97580  0.84450  0.57520  Biso   1.000  N
  N4       1.0000 0.09740  0.98160  0.69420  Biso   1.000  N
  C3       1.0000 0.98350  0.89760  0.54880  Biso   1.000  C
  C4       1.0000 0.06510  0.98790  0.62910  Biso   1.000  C
  N5       1.0000 0.02420  0.15550  0.57520  Biso   1.000  N
  N6       1.0000 0.90260  0.01840  0.69420  Biso   1.000  N
  C5       1.0000 0.01650  0.10240  0.54880  Biso   1.000  C
  C6       1.0000 0.93490  0.01210  0.62910  Biso   1.000  C
  N7       1.0000 0.52420  0.65550  0.07520  Biso   1.000  N
  N8       1.0000 0.40260  0.51840  0.19420  Biso   1.000  N
  C7       1.0000 0.51650  0.60240  0.04880  Biso   1.000  C
  C8       1.0000 0.43490  0.51210  0.12910  Biso   1.000  C
  N9       1.0000 0.65550  0.97580  0.32520  Biso   1.000  N
  N10      1.0000 0.51840  0.09740  0.44420  Biso   1.000  N
  C9       1.0000 0.60240  0.98350  0.29880  Biso   1.000  C
  C10      1.0000 0.51210  0.06510  0.37910  Biso   1.000  C
  N11      1.0000 0.15550  0.47580  0.82520  Biso   1.000  N
  N12      1.0000 0.01840  0.59740  0.94420  Biso   1.000  N
  C11      1.0000 0.10240  0.48350  0.79880  Biso   1.000  C
  C12      1.0000 0.01210  0.56510  0.87910  Biso   1.000  C
  N13      1.0000 0.84450  0.52420  0.82520  Biso   1.000  N
  N14      1.0000 0.98160  0.40260  0.94420  Biso   1.000  N
  C13      1.0000 0.89760  0.51650  0.79880  Biso   1.000  C
  C14      1.0000 0.98790  0.43490  0.87910  Biso   1.000  C
  N15      1.0000 0.34450  0.02420  0.32520  Biso   1.000  N
  N16      1.0000 0.48160  0.90260  0.44420  Biso   1.000  N
  C15      1.0000 0.39760  0.01650  0.29880  Biso   1.000  C
  C16      1.0000 0.48790  0.93490  0.37910  Biso   1.000  C
  N17      1.0000 0.02420  0.34450  0.67480  Biso   1.000  N
  N18      1.0000 0.90260  0.48160  0.55580  Biso   1.000  N
  C17      1.0000 0.01650  0.39760  0.70120  Biso   1.000  C
  C18      1.0000 0.93490  0.48790  0.62090  Biso   1.000  C
  N19      1.0000 0.52420  0.84450  0.17480  Biso   1.000  N
  N20      1.0000 0.40260  0.98160  0.05580  Biso   1.000  N
  C19      1.0000 0.51650  0.89760  0.20120  Biso   1.000  C
  C20      1.0000 0.43490  0.98790  0.12090  Biso   1.000  C
  N21      1.0000 0.47580  0.15550  0.17480  Biso   1.000  N
  N22      1.0000 0.59740  0.01840  0.05580  Biso   1.000  N
  C21      1.0000 0.48350  0.10240  0.20120  Biso   1.000  C
  C22      1.0000 0.56510  0.01210  0.12090  Biso   1.000  C
  N23      1.0000 0.97580  0.65550  0.67480  Biso   1.000  N
  N24      1.0000 0.09740  0.51840  0.55580  Biso   1.000  N
  C23      1.0000 0.98350  0.60240  0.70120  Biso   1.000  C
  C24      1.0000 0.06510  0.51210  0.62090  Biso   1.000  C
  N25      1.0000 0.84450  0.97580  0.42480  Biso   1.000  N
  N26      1.0000 0.98160  0.09740  0.30580  Biso   1.000  N
  C25      1.0000 0.89760  0.98350  0.45120  Biso   1.000  C
  C26      1.0000 0.98790  0.06510  0.37090  Biso   1.000  C
  N27      1.0000 0.34450  0.47580  0.92480  Biso   1.000  N
  N28      1.0000 0.48160  0.59740  0.80580  Biso   1.000  N
  C27      1.0000 0.39760  0.48350  0.95120  Biso   1.000  C
  C28      1.0000 0.48790  0.56510  0.87090  Biso   1.000  C
  N29      1.0000 0.65550  0.52420  0.92480  Biso   1.000  N
  N30      1.0000 0.51840  0.40260  0.80580  Biso   1.000  N
  C29      1.0000 0.60240  0.51650  0.95120  Biso   1.000  C
  C30      1.0000 0.51210  0.43490  0.87090  Biso   1.000  C
  N31      1.0000 0.15550  0.02420  0.42480  Biso   1.000  N
  N32      1.0000 0.01840  0.90260  0.30580  Biso   1.000  N
  C31      1.0000 0.10240  0.01650  0.45120  Biso   1.000  C
  C32      1.0000 0.01210  0.93490  0.37090  Biso   1.000  C
  Nb1      1.0000 0.50000  0.50000  0.00000  Biso   1.000  Nb
  Nb2      1.0000 0.00000  0.00000  0.50000  Biso   1.000  Nb
  Nb3      1.0000 0.50000  0.00000  0.25000  Biso   1.000  Nb
  Nb4      1.0000 0.00000  0.50000  0.75000  Biso   1.000  Nb
  Zn1      1.0000 0.47759  0.25000  0.12500  Biso   1.000  Zn
  Zn2      1.0000 0.97759  0.75000  0.62500  Biso   1.000  Zn
  Zn3      1.0000 0.02241  0.25000  0.62500  Biso   1.000  Zn
  Zn4      1.0000 0.52241  0.75000  0.12500  Biso   1.000  Zn
  Zn5      1.0000 0.75000  0.97759  0.37500  Biso   1.000  Zn
  Zn6      1.0000 0.25000  0.47759  0.87500  Biso   1.000  Zn
  Zn7      1.0000 0.75000  0.52241  0.87500  Biso   1.000  Zn
  Zn8      1.0000 0.25000  0.02241  0.37500  Biso   1.000  Zn
