data_image0
_cell_length_a       20.3534
_cell_length_b       20.3534
_cell_length_c       13.9824
_cell_angle_alpha    90
_cell_angle_beta     90
_cell_angle_gamma    90

_symmetry_space_group_name_H-M    "P 1"
_symmetry_int_tables_number       1

loop_
  _symmetry_equiv_pos_as_xyz
  'x, y, z'

loop_
  _atom_site_label
  _atom_site_occupancy
  _atom_site_fract_x
  _atom_site_fract_y
  _atom_site_fract_z
  _atom_site_thermal_displace_type
  _atom_site_B_iso_or_equiv
  _atom_site_type_symbol
  N1       1.0000 0.52420  0.34450  0.07540  Biso   1.000  N
  N2       1.0000 0.40240  0.48100  0.19370  Biso   1.000  N
  C1       1.0000 0.51630  0.39680  0.04870  Biso   1.000  C
  C2       1.0000 0.43460  0.48760  0.12940  Biso   1.000  C
  N3       1.0000 0.02420  0.84450  0.57540  Biso   1.000  N
  N4       1.0000 0.90240  0.98100  0.69370  Biso   1.000  N
  C3       1.0000 0.01630  0.89680  0.54870  Biso   1.000  C
  C4       1.0000 0.93460  0.98760  0.62940  Biso   1.000  C
  N5       1.0000 0.97580  0.15550  0.57540  Biso   1.000  N
  N6       1.0000 0.09760  0.01900  0.69370  Biso   1.000  N
  C5       1.0000 0.98370  0.10320  0.54870  Biso   1.000  C
  C6       1.0000 0.06540  0.01240  0.62940  Biso   1.000  C
  N7       1.0000 0.47580  0.65550  0.07540  Biso   1.000  N
  N8       1.0000 0.59760  0.51900  0.19370  Biso   1.000  N
  C7       1.0000 0.48370  0.60320  0.04870  Biso   1.000  C
  C8       1.0000 0.56540  0.51240  0.12940  Biso   1.000  C
  N9       1.0000 0.65550  0.02420  0.32540  Biso   1.000  N
  N10      1.0000 0.51900  0.90240  0.44370  Biso   1.000  N
  C9       1.0000 0.60320  0.01630  0.29870  Biso   1.000  C
  C10      1.0000 0.51240  0.93460  0.37940  Biso   1.000  C
  N11      1.0000 0.15550  0.52420  0.82540  Biso   1.000  N
  N12      1.0000 0.01900  0.40240  0.94370  Biso   1.000  N
  C11      1.0000 0.10320  0.51630  0.79870  Biso   1.000  C
  C12      1.0000 0.01240  0.43460  0.87940  Biso   1.000  C
  N13      1.0000 0.84450  0.47580  0.82540  Biso   1.000  N
  N14      1.0000 0.98100  0.59760  0.94370  Biso   1.000  N
  C13      1.0000 0.89680  0.48370  0.79870  Biso   1.000  C
  C14      1.0000 0.98760  0.56540  0.87940  Biso   1.000  C
  N15      1.0000 0.34450  0.97580  0.32540  Biso   1.000  N
  N16      1.0000 0.48100  0.09760  0.44370  Biso   1.000  N
  C15      1.0000 0.39680  0.98370  0.29870  Biso   1.000  C
  C16      1.0000 0.48760  0.06540  0.37940  Biso   1.000  C
  N17      1.0000 0.97580  0.34450  0.67460  Biso   1.000  N
  N18      1.0000 0.09760  0.48100  0.55630  Biso   1.000  N
  C17      1.0000 0.98370  0.39680  0.70130  Biso   1.000  C
  C18      1.0000 0.06540  0.48760  0.62060  Biso   1.000  C
  N19      1.0000 0.47580  0.84450  0.17460  Biso   1.000  N
  N20      1.0000 0.59760  0.98100  0.05630  Biso   1.000  N
  C19      1.0000 0.48370  0.89680  0.20130  Biso   1.000  C
  C20      1.0000 0.56540  0.98760  0.12060  Biso   1.000  C
  N21      1.0000 0.52420  0.15550  0.17460  Biso   1.000  N
  N22      1.0000 0.40240  0.01900  0.05630  Biso   1.000  N
  C21      1.0000 0.51630  0.10320  0.20130  Biso   1.000  C
  C22      1.0000 0.43460  0.01240  0.12060  Biso   1.000  C
  N23      1.0000 0.02420  0.65550  0.67460  Biso   1.000  N
  N24      1.0000 0.90240  0.51900  0.55630  Biso   1.000  N
  C23      1.0000 0.01630  0.60320  0.70130  Biso   1.000  C
  C24      1.0000 0.93460  0.51240  0.62060  Biso   1.000  C
  N25      1.0000 0.84450  0.02420  0.42460  Biso   1.000  N
  N26      1.0000 0.98100  0.90240  0.30630  Biso   1.000  N
  C25      1.0000 0.89680  0.01630  0.45130  Biso   1.000  C
  C26      1.0000 0.98760  0.93460  0.37060  Biso   1.000  C
  N27      1.0000 0.34450  0.52420  0.92460  Biso   1.000  N
  N28      1.0000 0.48100  0.40240  0.80630  Biso   1.000  N
  C27      1.0000 0.39680  0.51630  0.95130  Biso   1.000  C
  C28      1.0000 0.48760  0.43460  0.87060  Biso   1.000  C
  N29      1.0000 0.65550  0.47580  0.92460  Biso   1.000  N
  N30      1.0000 0.51900  0.59760  0.80630  Biso   1.000  N
  C29      1.0000 0.60320  0.48370  0.95130  Biso   1.000  C
  C30      1.0000 0.51240  0.56540  0.87060  Biso   1.000  C
  N31      1.0000 0.15550  0.97580  0.42460  Biso   1.000  N
  N32      1.0000 0.01900  0.09760  0.30630  Biso   1.000  N
  C31      1.0000 0.10320  0.98370  0.45130  Biso   1.000  C
  C32      1.0000 0.01240  0.06540  0.37060  Biso   1.000  C
  Nb1      1.0000 0.50000  0.50000  0.00000  Biso   1.000  Nb
  Nb2      1.0000 0.00000  0.00000  0.50000  Biso   1.000  Nb
  Nb3      1.0000 0.50000  0.00000  0.25000  Biso   1.000  Nb
  Nb4      1.0000 0.00000  0.50000  0.75000  Biso   1.000  Nb
  Zn1      1.0000 0.52232  0.25000  0.12500  Biso   1.000  Zn
  Zn2      1.0000 0.02232  0.75000  0.62500  Biso   1.000  Zn
  Zn3      1.0000 0.97768  0.25000  0.62500  Biso   1.000  Zn
  Zn4      1.0000 0.47768  0.75000  0.12500  Biso   1.000  Zn
  Zn5      1.0000 0.75000  0.02232  0.37500  Biso   1.000  Zn
  Zn6      1.0000 0.25000  0.52232  0.87500  Biso   1.000  Zn
  Zn7      1.0000 0.75000  0.47768  0.87500  Biso   1.000  Zn
  Zn8      1.0000 0.25000  0.97768  0.37500  Biso   1.000  Zn
