data_EPOXAJ_clean
_audit_creation_date              2014-07-02
_audit_creation_method            'Materials Studio'
_symmetry_space_group_name_H-M    'P1'
_symmetry_Int_Tables_number       1
_symmetry_cell_setting            triclinic
loop_
_symmetry_equiv_pos_as_xyz
  x,y,z
_cell_length_a                    8.0495
_cell_length_b                    11.8852
_cell_length_c                    11.9209
_cell_angle_alpha                 79.8810
_cell_angle_beta                  86.2310
_cell_angle_gamma                 81.9120
loop_
_atom_site_label
_atom_site_type_symbol
_atom_site_fract_x
_atom_site_fract_y
_atom_site_fract_z
_atom_site_U_iso_or_equiv
_atom_site_adp_type
_atom_site_occupancy
U1     U     0.04212   0.56392   0.70208   0.01267  Uiso   1.00
U2     U     0.77696   0.50507   0.97635   0.01267  Uiso   1.00
U3     U     0.60820   0.84850   0.99040   0.01267  Uiso   1.00
U4     U     0.31680   0.06250   0.71860   0.01267  Uiso   1.00
U5     U     0.95788   0.43608   0.29792   0.01267  Uiso   1.00
U6     U     0.22304   0.49493   0.02365   0.01267  Uiso   1.00
U7     U     0.39180   0.15150   0.00960   0.01267  Uiso   1.00
U8     U     0.68320   0.93750   0.28140   0.01267  Uiso   1.00
H1     H     0.51993   0.49741   0.59988   0.01267  Uiso   1.00
H2     H     0.63879   0.41715   0.67835   0.01267  Uiso   1.00
H3     H     0.48367   0.71651   0.60203   0.01267  Uiso   1.00
H4     H     0.66700   0.72750   0.60022   0.01267  Uiso   1.00
H5     H     0.48007   0.50259   0.40012   0.01267  Uiso   1.00
H6     H     0.36121   0.58285   0.32165   0.01267  Uiso   1.00
H7     H     0.51633   0.28349   0.39797   0.01267  Uiso   1.00
H8     H     0.33300   0.27250   0.39978   0.01267  Uiso   1.00
C1     C     0.53700   0.79960   0.72910   0.01267  Uiso   1.00
C2     C     0.61060   0.58190   0.71460   0.01267  Uiso   1.00
C3     C     0.62500   0.49350   0.63450   0.01267  Uiso   1.00
C4     C     0.76300   0.50340   0.54330   0.01267  Uiso   1.00
C5     C     0.57400   0.70950   0.65220   0.01267  Uiso   1.00
C6     C     0.46310   0.55550   0.79450   0.01267  Uiso   1.00
C7     C     0.46300   0.20040   0.27090   0.01267  Uiso   1.00
C8     C     0.38940   0.41810   0.28540   0.01267  Uiso   1.00
C9     C     0.37500   0.50650   0.36550   0.01267  Uiso   1.00
C10    C     0.23700   0.49660   0.45670   0.01267  Uiso   1.00
C11    C     0.42600   0.29050   0.34780   0.01267  Uiso   1.00
C12    C     0.53690   0.44450   0.20550   0.01267  Uiso   1.00
O1     O     0.75750   0.56630   0.77640   0.01267  Uiso   1.00
O2     O     0.31920   0.57180   0.75780   0.01267  Uiso   1.00
O3     O     0.73630   0.65230   0.00540   0.01267  Uiso   1.00
O4     O     0.02690   0.53980   0.89340   0.01267  Uiso   1.00
O5     O     0.52020   0.76610   0.83520   0.01267  Uiso   1.00
O6     O     0.86760   0.57480   0.54660   0.01267  Uiso   1.00
O7     O     0.78600   0.81200   0.15120   0.01267  Uiso   1.00
O8     O     0.48750   0.52030   0.89960   0.01267  Uiso   1.00
O9     O     0.40600   0.99300   0.90800   0.01267  Uiso   1.00
O10    O     0.77080   0.43940   0.46960   0.01267  Uiso   1.00
O11    O     0.52400   0.90190   0.68310   0.01267  Uiso   1.00
O12    O     0.24250   0.43370   0.22360   0.01267  Uiso   1.00
O13    O     0.68080   0.42820   0.24220   0.01267  Uiso   1.00
O14    O     0.26370   0.34770   0.99460   0.01267  Uiso   1.00
O15    O     0.97310   0.46020   0.10660   0.01267  Uiso   1.00
O16    O     0.47980   0.23390   0.16480   0.01267  Uiso   1.00
O17    O     0.13240   0.42520   0.45340   0.01267  Uiso   1.00
O18    O     0.21400   0.18800   0.84880   0.01267  Uiso   1.00
O19    O     0.51250   0.47970   0.10040   0.01267  Uiso   1.00
O20    O     0.59400   0.00700   0.09200   0.01267  Uiso   1.00
O21    O     0.22920   0.56060   0.53040   0.01267  Uiso   1.00
O22    O     0.47600   0.09810   0.31690   0.01267  Uiso   1.00
