data_EPUVAN_charged
_audit_creation_date              2014-07-02
_audit_creation_method            'Materials Studio'
_symmetry_space_group_name_H-M    'P1'
_symmetry_Int_Tables_number       1
_symmetry_cell_setting            triclinic
loop_
_symmetry_equiv_pos_as_xyz
  x,y,z
_cell_length_a                    14.9365
_cell_length_b                    17.1361
_cell_length_c                    17.3016
_cell_angle_alpha                 118.5090
_cell_angle_beta                  103.3540
_cell_angle_gamma                 96.6400
loop_
_atom_site_label
_atom_site_type_symbol
_atom_site_fract_x
_atom_site_fract_y
_atom_site_fract_z
_atom_site_U_iso_or_equiv
_atom_site_adp_type
_atom_site_occupancy
Gd1    Gd    0.88079   0.45839   0.39204   0.01267  Uiso   1.00
Gd2    Gd    0.11921   0.54161   0.60796   0.01267  Uiso   1.00
H1     H     0.90420   0.88530   0.81100   0.01267  Uiso   1.00
H2     H     0.92820   0.92900   0.91870   0.01267  Uiso   1.00
H3     H     0.94370   0.99220   0.87820   0.01267  Uiso   1.00
H4     H     0.64530   0.07430   0.03810   0.01267  Uiso   1.00
H5     H     0.67910   0.99720   0.05190   0.01267  Uiso   1.00
H6     H     0.57520   0.97620   0.98810   0.01267  Uiso   1.00
H7     H     0.58620   0.97880   0.67790   0.01267  Uiso   1.00
H8     H     0.52190   0.89140   0.66490   0.01267  Uiso   1.00
H9     H     0.60700   0.88260   0.62520   0.01267  Uiso   1.00
H10    H     0.79370   0.95280   0.04600   0.01267  Uiso   1.00
H11    H     0.88320   0.95630   0.01370   0.01267  Uiso   1.00
H12    H     0.88610   0.12560   0.01120   0.01267  Uiso   1.00
H13    H     0.93670   0.27880   0.11850   0.01267  Uiso   1.00
H14    H     0.91950   0.22080   0.31650   0.01267  Uiso   1.00
H15    H     0.86870   0.06890   0.20410   0.01267  Uiso   1.00
H16    H     0.51750   0.02280   0.89640   0.01267  Uiso   1.00
H17    H     0.51370   0.02130   0.80440   0.01267  Uiso   1.00
H18    H     0.49630   0.82860   0.82860   0.01267  Uiso   1.00
H19    H     0.36820   0.70370   0.75160   0.01267  Uiso   1.00
H20    H     0.22690   0.82920   0.63930   0.01267  Uiso   1.00
H21    H     0.35620   0.95240   0.72110   0.01267  Uiso   1.00
H22    H     0.74060   0.92710   0.65490   0.01267  Uiso   1.00
H23    H     0.84450   0.96280   0.72490   0.01267  Uiso   1.00
H24    H     0.70470   0.76230   0.67880   0.01267  Uiso   1.00
H25    H     0.72300   0.61840   0.59770   0.01267  Uiso   1.00
H26    H     0.91880   0.71730   0.52150   0.01267  Uiso   1.00
H27    H     0.89500   0.85840   0.60220   0.01267  Uiso   1.00
H28    H     0.51340   0.30160   0.65090   0.01267  Uiso   1.00
H29    H     0.59750   0.26950   0.61510   0.01267  Uiso   1.00
H30    H     0.55200   0.22550   0.66300   0.01267  Uiso   1.00
H31    H     0.94030   0.45680   0.92650   0.01267  Uiso   1.00
H32    H     0.92090   0.41430   0.81950   0.01267  Uiso   1.00
H33    H     0.93430   0.52010   0.88450   0.01267  Uiso   1.00
H34    H     0.57050   0.50620   0.98200   0.01267  Uiso   1.00
H35    H     0.66900   0.51970   0.04970   0.01267  Uiso   1.00
H36    H     0.65490   0.59250   0.02080   0.01267  Uiso   1.00
H37    H     0.49570   0.39310   0.87780   0.01267  Uiso   1.00
H38    H     0.47780   0.31180   0.77640   0.01267  Uiso   1.00
H39    H     0.53270   0.55060   0.86240   0.01267  Uiso   1.00
H40    H     0.43630   0.62450   0.81730   0.01267  Uiso   1.00
H41    H     0.23770   0.38510   0.64070   0.01267  Uiso   1.00
H42    H     0.33770   0.31390   0.68980   0.01267  Uiso   1.00
H43    H     0.80980   0.63170   0.03140   0.01267  Uiso   1.00
H44    H     0.89610   0.59260   0.00850   0.01267  Uiso   1.00
H45    H     0.88250   0.70170   0.19160   0.01267  Uiso   1.00
H46    H     0.91720   0.69390   0.32200   0.01267  Uiso   1.00
H47    H     0.86750   0.41860   0.16000   0.01267  Uiso   1.00
H48    H     0.83750   0.43350   0.03340   0.01267  Uiso   1.00
H49    H     0.72420   0.25240   0.65150   0.01267  Uiso   1.00
H50    H     0.82490   0.28740   0.72640   0.01267  Uiso   1.00
H51    H     0.85500   0.23310   0.57430   0.01267  Uiso   1.00
H52    H     0.92600   0.28670   0.50010   0.01267  Uiso   1.00
H53    H     0.86250   0.52660   0.63800   0.01267  Uiso   1.00
H54    H     0.78660   0.46640   0.70550   0.01267  Uiso   1.00
H55    H     0.09580   0.11470   0.18900   0.01267  Uiso   1.00
H56    H     0.07180   0.07100   0.08130   0.01267  Uiso   1.00
H57    H     0.05630   0.00780   0.12180   0.01267  Uiso   1.00
H58    H     0.35470   0.92570   0.96190   0.01267  Uiso   1.00
H59    H     0.32090   0.00280   0.94810   0.01267  Uiso   1.00
H60    H     0.42480   0.02380   0.01190   0.01267  Uiso   1.00
H61    H     0.41380   0.02120   0.32210   0.01267  Uiso   1.00
H62    H     0.47810   0.10860   0.33510   0.01267  Uiso   1.00
H63    H     0.39300   0.11740   0.37480   0.01267  Uiso   1.00
H64    H     0.20630   0.04720   0.95400   0.01267  Uiso   1.00
H65    H     0.11680   0.04370   0.98630   0.01267  Uiso   1.00
H66    H     0.11390   0.87440   0.98880   0.01267  Uiso   1.00
H67    H     0.06330   0.72120   0.88150   0.01267  Uiso   1.00
H68    H     0.08050   0.77920   0.68350   0.01267  Uiso   1.00
H69    H     0.13130   0.93110   0.79590   0.01267  Uiso   1.00
H70    H     0.48250   0.97720   0.10360   0.01267  Uiso   1.00
H71    H     0.48630   0.97870   0.19560   0.01267  Uiso   1.00
H72    H     0.50370   0.17140   0.17140   0.01267  Uiso   1.00
H73    H     0.63180   0.29630   0.24840   0.01267  Uiso   1.00
H74    H     0.77310   0.17080   0.36070   0.01267  Uiso   1.00
H75    H     0.64380   0.04760   0.27890   0.01267  Uiso   1.00
H76    H     0.25940   0.07290   0.34510   0.01267  Uiso   1.00
H77    H     0.15550   0.03720   0.27510   0.01267  Uiso   1.00
H78    H     0.29530   0.23770   0.32120   0.01267  Uiso   1.00
H79    H     0.27700   0.38160   0.40230   0.01267  Uiso   1.00
H80    H     0.08120   0.28270   0.47850   0.01267  Uiso   1.00
H81    H     0.10500   0.14160   0.39780   0.01267  Uiso   1.00
H82    H     0.48660   0.69840   0.34910   0.01267  Uiso   1.00
H83    H     0.40250   0.73050   0.38490   0.01267  Uiso   1.00
H84    H     0.44800   0.77450   0.33700   0.01267  Uiso   1.00
H85    H     0.05970   0.54320   0.07350   0.01267  Uiso   1.00
H86    H     0.07910   0.58570   0.18050   0.01267  Uiso   1.00
H87    H     0.06570   0.47990   0.11550   0.01267  Uiso   1.00
H88    H     0.42950   0.49380   0.01800   0.01267  Uiso   1.00
H89    H     0.33100   0.48030   0.95030   0.01267  Uiso   1.00
H90    H     0.34510   0.40750   0.97920   0.01267  Uiso   1.00
H91    H     0.50430   0.60690   0.12220   0.01267  Uiso   1.00
H92    H     0.52220   0.68820   0.22360   0.01267  Uiso   1.00
H93    H     0.46730   0.44940   0.13760   0.01267  Uiso   1.00
H94    H     0.56370   0.37550   0.18270   0.01267  Uiso   1.00
H95    H     0.76230   0.61490   0.35930   0.01267  Uiso   1.00
H96    H     0.66230   0.68610   0.31020   0.01267  Uiso   1.00
H97    H     0.19020   0.36830   0.96860   0.01267  Uiso   1.00
H98    H     0.10390   0.40740   0.99150   0.01267  Uiso   1.00
H99    H     0.11750   0.29830   0.80840   0.01267  Uiso   1.00
H100   H     0.08280   0.30610   0.67800   0.01267  Uiso   1.00
H101   H     0.13250   0.58140   0.84000   0.01267  Uiso   1.00
H102   H     0.16250   0.56650   0.96660   0.01267  Uiso   1.00
H103   H     0.27580   0.74760   0.34850   0.01267  Uiso   1.00
H104   H     0.17510   0.71260   0.27360   0.01267  Uiso   1.00
H105   H     0.14500   0.76690   0.42570   0.01267  Uiso   1.00
H106   H     0.07400   0.71330   0.49990   0.01267  Uiso   1.00
H107   H     0.13750   0.47340   0.36200   0.01267  Uiso   1.00
H108   H     0.21340   0.53360   0.29450   0.01267  Uiso   1.00
C1     C     0.90400   0.93740   0.86750   0.01267  Uiso   1.00
C2     C     0.64050   0.00950   0.00850   0.01267  Uiso   1.00
C3     C     0.58560   0.92150   0.67530   0.01267  Uiso   1.00
C4     C     0.76820   0.96830   0.93370   0.01267  Uiso   1.00
C5     C     0.67490   0.97930   0.92550   0.01267  Uiso   1.00
C6     C     0.61740   0.96560   0.84150   0.01267  Uiso   1.00
C7     C     0.65070   0.93950   0.76540   0.01267  Uiso   1.00
C8     C     0.74440   0.93320   0.77590   0.01267  Uiso   1.00
C9     C     0.80290   0.94640   0.85890   0.01267  Uiso   1.00
C10    C     0.83040   0.98350   0.02400   0.01267  Uiso   1.00
C11    C     0.89100   0.14590   0.07280   0.01267  Uiso   1.00
C12    C     0.92050   0.23750   0.13660   0.01267  Uiso   1.00
C13    C     0.92690   0.27090   0.23100   0.01267  Uiso   1.00
C14    C     0.91020   0.20300   0.25470   0.01267  Uiso   1.00
C15    C     0.88080   0.11240   0.18760   0.01267  Uiso   1.00
C16    C     0.52050   0.98550   0.83410   0.01267  Uiso   1.00
C17    C     0.44140   0.82820   0.78970   0.01267  Uiso   1.00
C18    C     0.36450   0.75300   0.74290   0.01267  Uiso   1.00
C19    C     0.28060   0.74780   0.68260   0.01267  Uiso   1.00
C20    C     0.28100   0.82710   0.67710   0.01267  Uiso   1.00
C21    C     0.35870   0.90080   0.72580   0.01267  Uiso   1.00
C22    C     0.78380   0.91760   0.69900   0.01267  Uiso   1.00
C23    C     0.74800   0.75270   0.64630   0.01267  Uiso   1.00
C24    C     0.75870   0.66640   0.59750   0.01267  Uiso   1.00
C25    C     0.82170   0.64880   0.54740   0.01267  Uiso   1.00
C26    C     0.87410   0.72470   0.55220   0.01267  Uiso   1.00
C27    C     0.86040   0.80900   0.60120   0.01267  Uiso   1.00
C28    C     0.56930   0.28110   0.66280   0.01267  Uiso   1.00
C29    C     0.90940   0.46010   0.87340   0.01267  Uiso   1.00
C30    C     0.63840   0.52820  -0.00000   0.01267  Uiso   1.00
C31    C     0.64050   0.35480   0.75680   0.01267  Uiso   1.00
C32    C     0.73880   0.37170   0.77140   0.01267  Uiso   1.00
C33    C     0.80270   0.44290   0.85690   0.01267  Uiso   1.00
C34    C     0.76820   0.49600   0.92850   0.01267  Uiso   1.00
C35    C     0.67110   0.47520   0.91790   0.01267  Uiso   1.00
C36    C     0.60770   0.40420   0.83120   0.01267  Uiso   1.00
C37    C     0.50270   0.37790   0.81820   0.01267  Uiso   1.00
C38    C     0.47280   0.51710   0.81770   0.01267  Uiso   1.00
C39    C     0.41480   0.56120   0.79090   0.01267  Uiso   1.00
C40    C     0.32350   0.51480   0.72490   0.01267  Uiso   1.00
C41    C     0.29680   0.41990   0.68630   0.01267  Uiso   1.00
C42    C     0.35750   0.37710   0.71540   0.01267  Uiso   1.00
C43    C     0.83600   0.57920   0.01790   0.01267  Uiso   1.00
C44    C     0.87940   0.64460   0.18590   0.01267  Uiso   1.00
C45    C     0.89940   0.64000   0.26400   0.01267  Uiso   1.00
C46    C     0.89370   0.55440   0.25870   0.01267  Uiso   1.00
C47    C     0.87040   0.47660   0.16800   0.01267  Uiso   1.00
C48    C     0.85230   0.48560   0.09210   0.01267  Uiso   1.00
C49    C     0.77590   0.30680   0.69760   0.01267  Uiso   1.00
C50    C     0.85700   0.29260   0.58700   0.01267  Uiso   1.00
C51    C     0.90030   0.32510   0.54350   0.01267  Uiso   1.00
C52    C     0.90740   0.41520   0.56230   0.01267  Uiso   1.00
C53    C     0.86210   0.46700   0.62450   0.01267  Uiso   1.00
C54    C     0.81720   0.43110   0.66540   0.01267  Uiso   1.00
C55    C     0.09600   0.06260   0.13250   0.01267  Uiso   1.00
C56    C     0.35950   0.99050   0.99150   0.01267  Uiso   1.00
C57    C     0.41440   0.07850   0.32470   0.01267  Uiso   1.00
C58    C     0.23180   0.03170   0.06630   0.01267  Uiso   1.00
C59    C     0.32510   0.02070   0.07450   0.01267  Uiso   1.00
C60    C     0.38260   0.03440   0.15850   0.01267  Uiso   1.00
C61    C     0.34930   0.06050   0.23460   0.01267  Uiso   1.00
C62    C     0.25560   0.06680   0.22410   0.01267  Uiso   1.00
C63    C     0.19710   0.05360   0.14110   0.01267  Uiso   1.00
C64    C     0.16960   0.01650   0.97600   0.01267  Uiso   1.00
C65    C     0.10900   0.85410   0.92720   0.01267  Uiso   1.00
C66    C     0.07950   0.76250   0.86340   0.01267  Uiso   1.00
C67    C     0.07310   0.72910   0.76900   0.01267  Uiso   1.00
C68    C     0.08980   0.79700   0.74530   0.01267  Uiso   1.00
C69    C     0.11920   0.88760   0.81240   0.01267  Uiso   1.00
C70    C     0.47950   0.01450   0.16590   0.01267  Uiso   1.00
C71    C     0.55860   0.17180   0.21030   0.01267  Uiso   1.00
C72    C     0.63550   0.24700   0.25710   0.01267  Uiso   1.00
C73    C     0.71940   0.25220   0.31740   0.01267  Uiso   1.00
C74    C     0.71900   0.17290   0.32290   0.01267  Uiso   1.00
C75    C     0.64130   0.09920   0.27420   0.01267  Uiso   1.00
C76    C     0.21620   0.08240   0.30100   0.01267  Uiso   1.00
C77    C     0.25200   0.24730   0.35370   0.01267  Uiso   1.00
C78    C     0.24130   0.33360   0.40250   0.01267  Uiso   1.00
C79    C     0.17830   0.35120   0.45260   0.01267  Uiso   1.00
C80    C     0.12590   0.27530   0.44780   0.01267  Uiso   1.00
C81    C     0.13960   0.19100   0.39880   0.01267  Uiso   1.00
C82    C     0.43070   0.71890   0.33720   0.01267  Uiso   1.00
C83    C     0.09060   0.53990   0.12660   0.01267  Uiso   1.00
C84    C     0.36160   0.47180  -0.00000   0.01267  Uiso   1.00
C85    C     0.35950   0.64520   0.24320   0.01267  Uiso   1.00
C86    C     0.26120   0.62830   0.22860   0.01267  Uiso   1.00
C87    C     0.19730   0.55710   0.14310   0.01267  Uiso   1.00
C88    C     0.23180   0.50400   0.07150   0.01267  Uiso   1.00
C89    C     0.32890   0.52480   0.08210   0.01267  Uiso   1.00
C90    C     0.39230   0.59580   0.16880   0.01267  Uiso   1.00
C91    C     0.49730   0.62210   0.18180   0.01267  Uiso   1.00
C92    C     0.52720   0.48290   0.18230   0.01267  Uiso   1.00
C93    C     0.58520   0.43880   0.20910   0.01267  Uiso   1.00
C94    C     0.67650   0.48520   0.27510   0.01267  Uiso   1.00
C95    C     0.70320   0.58010   0.31370   0.01267  Uiso   1.00
C96    C     0.64250   0.62290   0.28460   0.01267  Uiso   1.00
C97    C     0.16400   0.42080   0.98210   0.01267  Uiso   1.00
C98    C     0.12060   0.35540   0.81410   0.01267  Uiso   1.00
C99    C     0.10060   0.36000   0.73600   0.01267  Uiso   1.00
C100   C     0.10630   0.44560   0.74130   0.01267  Uiso   1.00
C101   C     0.12960   0.52340   0.83200   0.01267  Uiso   1.00
C102   C     0.14770   0.51440   0.90790   0.01267  Uiso   1.00
C103   C     0.22410   0.69320   0.30240   0.01267  Uiso   1.00
C104   C     0.14300   0.70740   0.41300   0.01267  Uiso   1.00
C105   C     0.09970   0.67490   0.45650   0.01267  Uiso   1.00
C106   C     0.09260   0.58480   0.43770   0.01267  Uiso   1.00
C107   C     0.13790   0.53300   0.37550   0.01267  Uiso   1.00
C108   C     0.18280   0.56890   0.33460   0.01267  Uiso   1.00
N1     N     0.44480   0.42450   0.78010   0.01267  Uiso   1.00
N2     N     0.85510   0.56830   0.10000   0.01267  Uiso   1.00
N3     N     0.81620   0.34650   0.64920   0.01267  Uiso   1.00
N4     N     0.43920   0.90120   0.78060   0.01267  Uiso   1.00
N5     N     0.86850   0.08310   0.09640   0.01267  Uiso   1.00
N6     N     0.79800   0.82370   0.64870   0.01267  Uiso   1.00
N7     N     0.55520   0.57550   0.21990   0.01267  Uiso   1.00
N8     N     0.14490   0.43170   0.90000   0.01267  Uiso   1.00
N9     N     0.18380   0.65350   0.35080   0.01267  Uiso   1.00
N10    N     0.56080   0.09880   0.21940   0.01267  Uiso   1.00
N11    N     0.13150   0.91690   0.90360   0.01267  Uiso   1.00
N12    N     0.20200   0.17630   0.35130   0.01267  Uiso   1.00
O1     O     0.26980   0.55930   0.70360   0.01267  Uiso   1.00
O2     O     0.90900   0.54920   0.33100   0.01267  Uiso   1.00
O3     O     0.95510   0.44950   0.52540   0.01267  Uiso   1.00
O4     O     0.20910   0.67660   0.63510   0.01267  Uiso   1.00
O5     O     0.83210   0.56740   0.50010   0.01267  Uiso   1.00
O6     O     0.94500   0.35780   0.28950   0.01267  Uiso   1.00
O7     O     0.73020   0.44070   0.29640   0.01267  Uiso   1.00
O8     O     0.09100   0.45080   0.66900   0.01267  Uiso   1.00
O9     O     0.04490   0.55050   0.47460   0.01267  Uiso   1.00
O10    O     0.79090   0.32340   0.36490   0.01267  Uiso   1.00
O11    O     0.16790   0.43260   0.49990   0.01267  Uiso   1.00
O12    O     0.05500   0.64220   0.71050   0.01267  Uiso   1.00
C109   C     0.45810   0.76260   0.06320   0.01267  Uiso   1.00
S1     S     0.56140   0.79250   0.03750   0.01267  Uiso   1.00
O13    O     0.60170   0.72110   0.03050   0.01267  Uiso   1.00
O14    O     0.61460   0.88500   0.11740   0.01267  Uiso   1.00
O15    O     0.51860   0.79420   0.95610   0.01267  Uiso   1.00
F1     F     0.47100   0.78840   0.15120   0.01267  Uiso   1.00
F2     F     0.41270   0.67760   0.01130   0.01267  Uiso   1.00
F3     F     0.39400   0.80930   0.04580   0.01267  Uiso   1.00
C110   C     0.79380   0.19050   0.85450   0.01267  Uiso   1.00
S2     S     0.92109   0.22766   0.89503   0.01267  Uiso   1.00
O16    O     0.94430   0.24620   0.82830   0.01267  Uiso   1.00
O17    O     0.94350   0.30740   0.98560   0.01267  Uiso   1.00
O18    O     0.94710   0.14920   0.89420   0.01267  Uiso   1.00
F4     F     0.76050   0.12320   0.76480   0.01267  Uiso   1.00
F5     F     0.75590   0.25940   0.86230   0.01267  Uiso   1.00
F6     F     0.76260   0.15920   0.90210   0.01267  Uiso   1.00
C111   C     0.65630   0.99120   0.46210   0.01267  Uiso   1.00
S3     S     0.71060   0.89881   0.45115   0.01267  Uiso   1.00
O19    O     0.65630   0.84940   0.47850   0.01267  Uiso   1.00
O20    O     0.70260   0.84780   0.35500   0.01267  Uiso   1.00
O21    O     0.80590   0.94800   0.51310   0.01267  Uiso   1.00
F7     F     0.56600   0.95620   0.40520   0.01267  Uiso   1.00
F8     F     0.70050   0.04650   0.44590   0.01267  Uiso   1.00
F9     F     0.65670   0.04020   0.54720   0.01267  Uiso   1.00
C112   C     0.54190   0.23740   0.93680   0.01267  Uiso   1.00
S4     S     0.43860   0.20750   0.96250   0.01267  Uiso   1.00
O22    O     0.39830   0.27890   0.96950   0.01267  Uiso   1.00
O23    O     0.38540   0.11500   0.88260   0.01267  Uiso   1.00
O24    O     0.48140   0.20580   0.04390   0.01267  Uiso   1.00
F10    F     0.52900   0.21160   0.84880   0.01267  Uiso   1.00
F11    F     0.58730   0.32240   0.98870   0.01267  Uiso   1.00
F12    F     0.60600   0.19070   0.95420   0.01267  Uiso   1.00
C113   C     0.20620   0.80950   0.14550   0.01267  Uiso   1.00
S5     S     0.07891   0.77234   0.10497   0.01267  Uiso   1.00
O25    O     0.05570   0.75380   0.17170   0.01267  Uiso   1.00
O26    O     0.05650   0.69260   0.01440   0.01267  Uiso   1.00
O27    O     0.05290   0.85080   0.10580   0.01267  Uiso   1.00
F13    F     0.23950   0.87680   0.23520   0.01267  Uiso   1.00
F14    F     0.24410   0.74060   0.13770   0.01267  Uiso   1.00
F15    F     0.23740   0.84080   0.09790   0.01267  Uiso   1.00
C114   C     0.34370   0.00880   0.53790   0.01267  Uiso   1.00
S6     S     0.28940   0.10119   0.54885   0.01267  Uiso   1.00
O28    O     0.34370   0.15060   0.52150   0.01267  Uiso   1.00
O29    O     0.29740   0.15220   0.64500   0.01267  Uiso   1.00
O30    O     0.19410   0.05200   0.48690   0.01267  Uiso   1.00
F16    F     0.43400   0.04380   0.59480   0.01267  Uiso   1.00
F17    F     0.29950   0.95350   0.55410   0.01267  Uiso   1.00
F18    F     0.34330   0.95980   0.45280   0.01267  Uiso   1.00
