data_image0
_cell_length_a       6.907
_cell_length_b       21.897
_cell_length_c       23.151
_cell_angle_alpha    90
_cell_angle_beta     90
_cell_angle_gamma    90

_symmetry_space_group_name_H-M    "P 1"
_symmetry_int_tables_number       1

loop_
  _symmetry_equiv_pos_as_xyz
  'x, y, z'

loop_
  _atom_site_label
  _atom_site_occupancy
  _atom_site_fract_x
  _atom_site_fract_y
  _atom_site_fract_z
  _atom_site_thermal_displace_type
  _atom_site_B_iso_or_equiv
  _atom_site_type_symbol
  Nd1      1.0000 0.57830  0.26843  0.44936  Biso   1.000  Nd
  O1       1.0000 0.60060  0.31026  0.34950  Biso   1.000  O
  O2       1.0000 0.56640  0.21088  0.35873  Biso   1.000  O
  O3       1.0000 0.79820  0.35142  0.46075  Biso   1.000  O
  O4       1.0000 0.41500  0.22452  0.05241  Biso   1.000  O
  O5       1.0000 0.72840  0.23946  0.05149  Biso   1.000  O
  O6       1.0000 0.04940  0.33625  0.52031  Biso   1.000  O
  C1       1.0000 0.58240  0.25770  0.32740  Biso   1.000  C
  C2       1.0000 0.57950  0.24970  0.26340  Biso   1.000  C
  C3       1.0000 0.57070  0.19180  0.23980  Biso   1.000  C
  H1       1.0000 0.56460  0.15760  0.26360  Biso   1.000  H
  C4       1.0000 0.58680  0.30020  0.22710  Biso   1.000  C
  H2       1.0000 0.59280  0.33920  0.24290  Biso   1.000  H
  C5       1.0000 0.57300  0.23150  0.07850  Biso   1.000  C
  C6       1.0000 0.57650  0.23470  0.14380  Biso   1.000  C
  C7       1.0000 0.58530  0.29310  0.16750  Biso   1.000  C
  H3       1.0000 0.59010  0.32710  0.14360  Biso   1.000  H
  C8       1.0000 0.57100  0.18540  0.18040  Biso   1.000  C
  O7       1.0000 0.60210  0.11700  0.10500  Biso   1.000  O
  O8       1.0000 0.53500  0.08260  0.18870  Biso   1.000  O
  N1       1.0000 0.56830  0.12390  0.15620  Biso   1.000  N
  N2       1.0000 0.09760  0.43080  0.59950  Biso   1.000  N
  O9       1.0000 0.96100  0.41370  0.62970  Biso   1.000  O
  O10      1.0000 0.26300  0.42450  0.61070  Biso   1.000  O
  C9       1.0000 0.93130  0.36970  0.49320  Biso   1.000  C
  C10      1.0000 0.89800  0.47500  0.45340  Biso   1.000  C
  C11      1.0000 0.06280  0.46270  0.54410  Biso   1.000  C
  C12      1.0000 0.96410  0.43740  0.49800  Biso   1.000  C
  Nd2      1.0000 0.92170  0.73157  0.94936  Biso   1.000  Nd
  O11      1.0000 0.89940  0.68974  0.84950  Biso   1.000  O
  O12      1.0000 0.93360  0.78912  0.85873  Biso   1.000  O
  O13      1.0000 0.70180  0.64858  0.96075  Biso   1.000  O
  O14      1.0000 0.08500  0.77548  0.55241  Biso   1.000  O
  O15      1.0000 0.77160  0.76054  0.55149  Biso   1.000  O
  O16      1.0000 0.45060  0.66375  0.02031  Biso   1.000  O
  C13      1.0000 0.91760  0.74230  0.82740  Biso   1.000  C
  C14      1.0000 0.92050  0.75030  0.76340  Biso   1.000  C
  C15      1.0000 0.92930  0.80820  0.73980  Biso   1.000  C
  H4       1.0000 0.93540  0.84240  0.76360  Biso   1.000  H
  C16      1.0000 0.91320  0.69980  0.72710  Biso   1.000  C
  H5       1.0000 0.90720  0.66080  0.74290  Biso   1.000  H
  C17      1.0000 0.92700  0.76850  0.57850  Biso   1.000  C
  C18      1.0000 0.92350  0.76530  0.64380  Biso   1.000  C
  C19      1.0000 0.91470  0.70690  0.66750  Biso   1.000  C
  H6       1.0000 0.90990  0.67290  0.64360  Biso   1.000  H
  C20      1.0000 0.92900  0.81460  0.68040  Biso   1.000  C
  O17      1.0000 0.89790  0.88300  0.60500  Biso   1.000  O
  O18      1.0000 0.96500  0.91740  0.68870  Biso   1.000  O
  N3       1.0000 0.93170  0.87610  0.65620  Biso   1.000  N
  N4       1.0000 0.40240  0.56920  0.09950  Biso   1.000  N
  O19      1.0000 0.53900  0.58630  0.12970  Biso   1.000  O
  O20      1.0000 0.23700  0.57550  0.11070  Biso   1.000  O
  C21      1.0000 0.56870  0.63030  0.99320  Biso   1.000  C
  C22      1.0000 0.60200  0.52500  0.95340  Biso   1.000  C
  C23      1.0000 0.43720  0.53730  0.04410  Biso   1.000  C
  C24      1.0000 0.53590  0.56260  0.99800  Biso   1.000  C
  Nd3      1.0000 0.42170  0.76843  0.05064  Biso   1.000  Nd
  O21      1.0000 0.39940  0.81026  0.15050  Biso   1.000  O
  O22      1.0000 0.43360  0.71088  0.14127  Biso   1.000  O
  O23      1.0000 0.20180  0.85142  0.03925  Biso   1.000  O
  O24      1.0000 0.58500  0.72452  0.44759  Biso   1.000  O
  O25      1.0000 0.27160  0.73946  0.44851  Biso   1.000  O
  O26      1.0000 0.95060  0.83625  0.97969  Biso   1.000  O
  C25      1.0000 0.41760  0.75770  0.17260  Biso   1.000  C
  C26      1.0000 0.42050  0.74970  0.23660  Biso   1.000  C
  C27      1.0000 0.42930  0.69180  0.26020  Biso   1.000  C
  H7       1.0000 0.43540  0.65760  0.23640  Biso   1.000  H
  C28      1.0000 0.41320  0.80020  0.27290  Biso   1.000  C
  H8       1.0000 0.40720  0.83920  0.25710  Biso   1.000  H
  C29      1.0000 0.42700  0.73150  0.42150  Biso   1.000  C
  C30      1.0000 0.42350  0.73470  0.35620  Biso   1.000  C
  C31      1.0000 0.41470  0.79310  0.33250  Biso   1.000  C
  H9       1.0000 0.40990  0.82710  0.35640  Biso   1.000  H
  C32      1.0000 0.42900  0.68540  0.31960  Biso   1.000  C
  O27      1.0000 0.39790  0.61700  0.39500  Biso   1.000  O
  O28      1.0000 0.46500  0.58260  0.31130  Biso   1.000  O
  N5       1.0000 0.43170  0.62390  0.34380  Biso   1.000  N
  N6       1.0000 0.90240  0.93080  0.90050  Biso   1.000  N
  O29      1.0000 0.03900  0.91370  0.87030  Biso   1.000  O
  O30      1.0000 0.73700  0.92450  0.88930  Biso   1.000  O
  C33      1.0000 0.06870  0.86970  0.00680  Biso   1.000  C
  C34      1.0000 0.10200  0.97500  0.04660  Biso   1.000  C
  C35      1.0000 0.93720  0.96270  0.95590  Biso   1.000  C
  C36      1.0000 0.03590  0.93740  0.00200  Biso   1.000  C
  Nd4      1.0000 0.07830  0.23157  0.55064  Biso   1.000  Nd
  O31      1.0000 0.10060  0.18974  0.65050  Biso   1.000  O
  O32      1.0000 0.06640  0.28912  0.64127  Biso   1.000  O
  O33      1.0000 0.29820  0.14858  0.53925  Biso   1.000  O
  O34      1.0000 0.91500  0.27548  0.94759  Biso   1.000  O
  O35      1.0000 0.22840  0.26054  0.94851  Biso   1.000  O
  O36      1.0000 0.54940  0.16375  0.47969  Biso   1.000  O
  C37      1.0000 0.08240  0.24230  0.67260  Biso   1.000  C
  C38      1.0000 0.07950  0.25030  0.73660  Biso   1.000  C
  C39      1.0000 0.07070  0.30820  0.76020  Biso   1.000  C
  H10      1.0000 0.06460  0.34240  0.73640  Biso   1.000  H
  C40      1.0000 0.08680  0.19980  0.77290  Biso   1.000  C
  H11      1.0000 0.09280  0.16080  0.75710  Biso   1.000  H
  C41      1.0000 0.07300  0.26850  0.92150  Biso   1.000  C
  C42      1.0000 0.07650  0.26530  0.85620  Biso   1.000  C
  C43      1.0000 0.08530  0.20690  0.83250  Biso   1.000  C
  H12      1.0000 0.09010  0.17290  0.85640  Biso   1.000  H
  C44      1.0000 0.07100  0.31460  0.81960  Biso   1.000  C
  O37      1.0000 0.10210  0.38300  0.89500  Biso   1.000  O
  O38      1.0000 0.03500  0.41740  0.81130  Biso   1.000  O
  N7       1.0000 0.06830  0.37610  0.84380  Biso   1.000  N
  N8       1.0000 0.59760  0.06920  0.40050  Biso   1.000  N
  O39      1.0000 0.46100  0.08630  0.37030  Biso   1.000  O
  O40      1.0000 0.76300  0.07550  0.38930  Biso   1.000  O
  C45      1.0000 0.43130  0.13030  0.50680  Biso   1.000  C
  C46      1.0000 0.39800  0.02500  0.54660  Biso   1.000  C
  C47      1.0000 0.56280  0.03730  0.45590  Biso   1.000  C
  C48      1.0000 0.46410  0.06260  0.50200  Biso   1.000  C
  Nd5      1.0000 0.42170  0.73157  0.55064  Biso   1.000  Nd
  O41      1.0000 0.39940  0.68974  0.65050  Biso   1.000  O
  O42      1.0000 0.43360  0.78912  0.64127  Biso   1.000  O
  O43      1.0000 0.20180  0.64858  0.53925  Biso   1.000  O
  O44      1.0000 0.58500  0.77548  0.94759  Biso   1.000  O
  O45      1.0000 0.27160  0.76054  0.94851  Biso   1.000  O
  O46      1.0000 0.95060  0.66375  0.47969  Biso   1.000  O
  C49      1.0000 0.41760  0.74230  0.67260  Biso   1.000  C
  C50      1.0000 0.42050  0.75030  0.73660  Biso   1.000  C
  C51      1.0000 0.42930  0.80820  0.76020  Biso   1.000  C
  H13      1.0000 0.43540  0.84240  0.73640  Biso   1.000  H
  C52      1.0000 0.41320  0.69980  0.77290  Biso   1.000  C
  H14      1.0000 0.40720  0.66080  0.75710  Biso   1.000  H
  C53      1.0000 0.42700  0.76850  0.92150  Biso   1.000  C
  C54      1.0000 0.42350  0.76530  0.85620  Biso   1.000  C
  C55      1.0000 0.41470  0.70690  0.83250  Biso   1.000  C
  H15      1.0000 0.40990  0.67290  0.85640  Biso   1.000  H
  C56      1.0000 0.42900  0.81460  0.81960  Biso   1.000  C
  O47      1.0000 0.39790  0.88300  0.89500  Biso   1.000  O
  O48      1.0000 0.46500  0.91740  0.81130  Biso   1.000  O
  N9       1.0000 0.43170  0.87610  0.84380  Biso   1.000  N
  N10      1.0000 0.90240  0.56920  0.40050  Biso   1.000  N
  O49      1.0000 0.03900  0.58630  0.37030  Biso   1.000  O
  O50      1.0000 0.73700  0.57550  0.38930  Biso   1.000  O
  C57      1.0000 0.06870  0.63030  0.50680  Biso   1.000  C
  C58      1.0000 0.10200  0.52500  0.54660  Biso   1.000  C
  C59      1.0000 0.93720  0.53730  0.45590  Biso   1.000  C
  C60      1.0000 0.03590  0.56260  0.50200  Biso   1.000  C
  Nd6      1.0000 0.07830  0.26843  0.05064  Biso   1.000  Nd
  O51      1.0000 0.10060  0.31026  0.15050  Biso   1.000  O
  O52      1.0000 0.06640  0.21088  0.14127  Biso   1.000  O
  O53      1.0000 0.29820  0.35142  0.03925  Biso   1.000  O
  O54      1.0000 0.91500  0.22452  0.44759  Biso   1.000  O
  O55      1.0000 0.22840  0.23946  0.44851  Biso   1.000  O
  O56      1.0000 0.54940  0.33625  0.97969  Biso   1.000  O
  C61      1.0000 0.08240  0.25770  0.17260  Biso   1.000  C
  C62      1.0000 0.07950  0.24970  0.23660  Biso   1.000  C
  C63      1.0000 0.07070  0.19180  0.26020  Biso   1.000  C
  H16      1.0000 0.06460  0.15760  0.23640  Biso   1.000  H
  C64      1.0000 0.08680  0.30020  0.27290  Biso   1.000  C
  H17      1.0000 0.09280  0.33920  0.25710  Biso   1.000  H
  C65      1.0000 0.07300  0.23150  0.42150  Biso   1.000  C
  C66      1.0000 0.07650  0.23470  0.35620  Biso   1.000  C
  C67      1.0000 0.08530  0.29310  0.33250  Biso   1.000  C
  H18      1.0000 0.09010  0.32710  0.35640  Biso   1.000  H
  C68      1.0000 0.07100  0.18540  0.31960  Biso   1.000  C
  O57      1.0000 0.10210  0.11700  0.39500  Biso   1.000  O
  O58      1.0000 0.03500  0.08260  0.31130  Biso   1.000  O
  N11      1.0000 0.06830  0.12390  0.34380  Biso   1.000  N
  N12      1.0000 0.59760  0.43080  0.90050  Biso   1.000  N
  O59      1.0000 0.46100  0.41370  0.87030  Biso   1.000  O
  O60      1.0000 0.76300  0.42450  0.88930  Biso   1.000  O
  C69      1.0000 0.43130  0.36970  0.00680  Biso   1.000  C
  C70      1.0000 0.39800  0.47500  0.04660  Biso   1.000  C
  C71      1.0000 0.56280  0.46270  0.95590  Biso   1.000  C
  C72      1.0000 0.46410  0.43740  0.00200  Biso   1.000  C
  Nd7      1.0000 0.57830  0.23157  0.94936  Biso   1.000  Nd
  O61      1.0000 0.60060  0.18974  0.84950  Biso   1.000  O
  O62      1.0000 0.56640  0.28912  0.85873  Biso   1.000  O
  O63      1.0000 0.79820  0.14858  0.96075  Biso   1.000  O
  O64      1.0000 0.41500  0.27548  0.55241  Biso   1.000  O
  O65      1.0000 0.72840  0.26054  0.55149  Biso   1.000  O
  O66      1.0000 0.04940  0.16375  0.02031  Biso   1.000  O
  C73      1.0000 0.58240  0.24230  0.82740  Biso   1.000  C
  C74      1.0000 0.57950  0.25030  0.76340  Biso   1.000  C
  C75      1.0000 0.57070  0.30820  0.73980  Biso   1.000  C
  H19      1.0000 0.56460  0.34240  0.76360  Biso   1.000  H
  C76      1.0000 0.58680  0.19980  0.72710  Biso   1.000  C
  H20      1.0000 0.59280  0.16080  0.74290  Biso   1.000  H
  C77      1.0000 0.57300  0.26850  0.57850  Biso   1.000  C
  C78      1.0000 0.57650  0.26530  0.64380  Biso   1.000  C
  C79      1.0000 0.58530  0.20690  0.66750  Biso   1.000  C
  H21      1.0000 0.59010  0.17290  0.64360  Biso   1.000  H
  C80      1.0000 0.57100  0.31460  0.68040  Biso   1.000  C
  O67      1.0000 0.60210  0.38300  0.60500  Biso   1.000  O
  O68      1.0000 0.53500  0.41740  0.68870  Biso   1.000  O
  N13      1.0000 0.56830  0.37610  0.65620  Biso   1.000  N
  N14      1.0000 0.09760  0.06920  0.09950  Biso   1.000  N
  O69      1.0000 0.96100  0.08630  0.12970  Biso   1.000  O
  O70      1.0000 0.26300  0.07550  0.11070  Biso   1.000  O
  C81      1.0000 0.93130  0.13030  0.99320  Biso   1.000  C
  C82      1.0000 0.89800  0.02500  0.95340  Biso   1.000  C
  C83      1.0000 0.06280  0.03730  0.04410  Biso   1.000  C
  C84      1.0000 0.96410  0.06260  0.99800  Biso   1.000  C
  Nd8      1.0000 0.92170  0.76843  0.44936  Biso   1.000  Nd
  O71      1.0000 0.89940  0.81026  0.34950  Biso   1.000  O
  O72      1.0000 0.93360  0.71088  0.35873  Biso   1.000  O
  O73      1.0000 0.70180  0.85142  0.46075  Biso   1.000  O
  O74      1.0000 0.08500  0.72452  0.05241  Biso   1.000  O
  O75      1.0000 0.77160  0.73946  0.05149  Biso   1.000  O
  O76      1.0000 0.45060  0.83625  0.52031  Biso   1.000  O
  C85      1.0000 0.91760  0.75770  0.32740  Biso   1.000  C
  C86      1.0000 0.92050  0.74970  0.26340  Biso   1.000  C
  C87      1.0000 0.92930  0.69180  0.23980  Biso   1.000  C
  H22      1.0000 0.93540  0.65760  0.26360  Biso   1.000  H
  C88      1.0000 0.91320  0.80020  0.22710  Biso   1.000  C
  H23      1.0000 0.90720  0.83920  0.24290  Biso   1.000  H
  C89      1.0000 0.92700  0.73150  0.07850  Biso   1.000  C
  C90      1.0000 0.92350  0.73470  0.14380  Biso   1.000  C
  C91      1.0000 0.91470  0.79310  0.16750  Biso   1.000  C
  H24      1.0000 0.90990  0.82710  0.14360  Biso   1.000  H
  C92      1.0000 0.92900  0.68540  0.18040  Biso   1.000  C
  O77      1.0000 0.89790  0.61700  0.10500  Biso   1.000  O
  O78      1.0000 0.96500  0.58260  0.18870  Biso   1.000  O
  N15      1.0000 0.93170  0.62390  0.15620  Biso   1.000  N
  N16      1.0000 0.40240  0.93080  0.59950  Biso   1.000  N
  O79      1.0000 0.53900  0.91370  0.62970  Biso   1.000  O
  O80      1.0000 0.23700  0.92450  0.61070  Biso   1.000  O
  C93      1.0000 0.56870  0.86970  0.49320  Biso   1.000  C
  C94      1.0000 0.60200  0.97500  0.45340  Biso   1.000  C
  C95      1.0000 0.43720  0.96270  0.54410  Biso   1.000  C
  C96      1.0000 0.53590  0.93740  0.49800  Biso   1.000  C
