data_EQERAU_clean
_audit_creation_date              2014-07-02
_audit_creation_method            'Materials Studio'
_symmetry_space_group_name_H-M    'P1'
_symmetry_Int_Tables_number       1
_symmetry_cell_setting            triclinic
loop_
_symmetry_equiv_pos_as_xyz
  x,y,z
_cell_length_a                    13.5792
_cell_length_b                    13.8958
_cell_length_c                    20.7478
_cell_angle_alpha                 90.0000
_cell_angle_beta                  104.8820
_cell_angle_gamma                 90.0000
loop_
_atom_site_label
_atom_site_type_symbol
_atom_site_fract_x
_atom_site_fract_y
_atom_site_fract_z
_atom_site_U_iso_or_equiv
_atom_site_adp_type
_atom_site_occupancy
Mg1    Mg    0.34614   0.13395   0.04953   0.01267  Uiso   1.00
Mg2    Mg    0.59493   0.04299   0.05170   0.01267  Uiso   1.00
Mg3    Mg    0.65386   0.63395   0.45047   0.01267  Uiso   1.00
Mg4    Mg    0.40507   0.54299   0.44830   0.01267  Uiso   1.00
Mg5    Mg    0.65386   0.86605   0.95047   0.01267  Uiso   1.00
Mg6    Mg    0.40507   0.95701   0.94830   0.01267  Uiso   1.00
Mg7    Mg    0.34614   0.36605   0.54953   0.01267  Uiso   1.00
Mg8    Mg    0.59493   0.45701   0.55170   0.01267  Uiso   1.00
P1     P     0.26404   0.03705   0.18150   0.01267  Uiso   1.00
P2     P     0.73596   0.53705   0.31850   0.01267  Uiso   1.00
P3     P     0.73596   0.96295   0.81850   0.01267  Uiso   1.00
P4     P     0.26404   0.46295   0.68150   0.01267  Uiso   1.00
H1     H     0.43290   0.97380   0.07290   0.01267  Uiso   1.00
H2     H     0.32480   0.23220   0.19310   0.01267  Uiso   1.00
H3     H     0.36250   0.34520   0.27860   0.01267  Uiso   1.00
H4     H     0.28640   0.15430   0.40340   0.01267  Uiso   1.00
H5     H     0.24680   0.04020   0.31830   0.01267  Uiso   1.00
H6     H     0.08070   0.13140   0.19560   0.01267  Uiso   1.00
H7     H     0.90770   0.11620   0.14230   0.01267  Uiso   1.00
H8     H     0.97020   0.89430   0.03550   0.01267  Uiso   1.00
H9     H     0.14430   0.91070   0.08610   0.01267  Uiso   1.00
H10    H     0.17880   0.86670   0.23190   0.01267  Uiso   1.00
H11    H     0.25180   0.73870   0.29990   0.01267  Uiso   1.00
H12    H     0.53220   0.83940   0.30350   0.01267  Uiso   1.00
H13    H     0.45990   0.96080   0.23070   0.01267  Uiso   1.00
H14    H     0.56710   0.47380   0.42710   0.01267  Uiso   1.00
H15    H     0.67520   0.73220   0.30690   0.01267  Uiso   1.00
H16    H     0.63750   0.84520   0.22140   0.01267  Uiso   1.00
H17    H     0.71360   0.65430   0.09660   0.01267  Uiso   1.00
H18    H     0.75320   0.54020   0.18170   0.01267  Uiso   1.00
H19    H     0.91930   0.63140   0.30440   0.01267  Uiso   1.00
H20    H     0.09230   0.61620   0.35770   0.01267  Uiso   1.00
H21    H     0.02980   0.39430   0.46450   0.01267  Uiso   1.00
H22    H     0.85570   0.41070   0.41390   0.01267  Uiso   1.00
H23    H     0.82120   0.36670   0.26810   0.01267  Uiso   1.00
H24    H     0.74820   0.23870   0.20010   0.01267  Uiso   1.00
H25    H     0.46780   0.33940   0.19650   0.01267  Uiso   1.00
H26    H     0.54010   0.46080   0.26930   0.01267  Uiso   1.00
H27    H     0.56710   0.02620   0.92710   0.01267  Uiso   1.00
H28    H     0.67520   0.76780   0.80690   0.01267  Uiso   1.00
H29    H     0.63750   0.65480   0.72140   0.01267  Uiso   1.00
H30    H     0.71360   0.84570   0.59660   0.01267  Uiso   1.00
H31    H     0.75320   0.95980   0.68170   0.01267  Uiso   1.00
H32    H     0.91930   0.86860   0.80440   0.01267  Uiso   1.00
H33    H     0.09230   0.88380   0.85770   0.01267  Uiso   1.00
H34    H     0.02980   0.10570   0.96450   0.01267  Uiso   1.00
H35    H     0.85570   0.08930   0.91390   0.01267  Uiso   1.00
H36    H     0.82120   0.13330   0.76810   0.01267  Uiso   1.00
H37    H     0.74820   0.26130   0.70010   0.01267  Uiso   1.00
H38    H     0.46780   0.16060   0.69650   0.01267  Uiso   1.00
H39    H     0.54010   0.03920   0.76930   0.01267  Uiso   1.00
H40    H     0.43290   0.52620   0.57290   0.01267  Uiso   1.00
H41    H     0.32480   0.26780   0.69310   0.01267  Uiso   1.00
H42    H     0.36250   0.15480   0.77860   0.01267  Uiso   1.00
H43    H     0.28640   0.34570   0.90340   0.01267  Uiso   1.00
H44    H     0.24680   0.45980   0.81830   0.01267  Uiso   1.00
H45    H     0.08070   0.36860   0.69560   0.01267  Uiso   1.00
H46    H     0.90770   0.38380   0.64230   0.01267  Uiso   1.00
H47    H     0.97020   0.60570   0.53550   0.01267  Uiso   1.00
H48    H     0.14430   0.58930   0.58610   0.01267  Uiso   1.00
H49    H     0.17880   0.63330   0.73190   0.01267  Uiso   1.00
H50    H     0.25180   0.76130   0.79990   0.01267  Uiso   1.00
H51    H     0.53220   0.66060   0.80350   0.01267  Uiso   1.00
H52    H     0.45990   0.53920   0.73070   0.01267  Uiso   1.00
C1     C     0.28410   0.12560   0.24731   0.01267  Uiso   1.00
C2     C     0.31740   0.21570   0.23610   0.01267  Uiso   1.00
C3     C     0.34020   0.28270   0.28700   0.01267  Uiso   1.00
C4     C     0.33080   0.25940   0.35036   0.01267  Uiso   1.00
C5     C     0.29510   0.17000   0.36060   0.01267  Uiso   1.00
C6     C     0.27130   0.10190   0.31030   0.01267  Uiso   1.00
C7     C     0.35920   0.33150   0.40660   0.01267  Uiso   1.00
C8     C     0.12930   0.02290   0.14608   0.01267  Uiso   1.00
C9     C     0.05870   0.08330   0.16250   0.01267  Uiso   1.00
C10    C     0.95580   0.07420   0.13080   0.01267  Uiso   1.00
C11    C     0.92340   0.00510   0.08340   0.01267  Uiso   1.00
C12    C     0.99310   0.94350   0.06760   0.01267  Uiso   1.00
C13    C     0.09650   0.95250   0.09800   0.01267  Uiso   1.00
C14    C     0.80990   0.99390   0.04950   0.01267  Uiso   1.00
C15    C     0.31140   0.92730   0.22540   0.01267  Uiso   1.00
C16    C     0.25090   0.86080   0.24600   0.01267  Uiso   1.00
C17    C     0.29430   0.78530   0.28710   0.01267  Uiso   1.00
C18    C     0.39930   0.77720   0.30990   0.01267  Uiso   1.00
C19    C     0.46010   0.84420   0.28850   0.01267  Uiso   1.00
C20    C     0.41730   0.91700   0.24620   0.01267  Uiso   1.00
C21    C     0.44710   0.69980   0.35920   0.01267  Uiso   1.00
C22    C     0.71590   0.62560   0.25269   0.01267  Uiso   1.00
C23    C     0.68260   0.71570   0.26390   0.01267  Uiso   1.00
C24    C     0.65980   0.78270   0.21300   0.01267  Uiso   1.00
C25    C     0.66920   0.75940   0.14964   0.01267  Uiso   1.00
C26    C     0.70490   0.67000   0.13940   0.01267  Uiso   1.00
C27    C     0.72870   0.60190   0.18970   0.01267  Uiso   1.00
C28    C     0.64080   0.83150   0.09340   0.01267  Uiso   1.00
C29    C     0.87070   0.52290   0.35392   0.01267  Uiso   1.00
C30    C     0.94130   0.58330   0.33750   0.01267  Uiso   1.00
C31    C     0.04420   0.57420   0.36920   0.01267  Uiso   1.00
C32    C     0.07660   0.50510   0.41660   0.01267  Uiso   1.00
C33    C     0.00690   0.44350   0.43240   0.01267  Uiso   1.00
C34    C     0.90350   0.45250   0.40200   0.01267  Uiso   1.00
C35    C     0.19010   0.49390   0.45050   0.01267  Uiso   1.00
C36    C     0.68860   0.42730   0.27460   0.01267  Uiso   1.00
C37    C     0.74910   0.36080   0.25400   0.01267  Uiso   1.00
C38    C     0.70570   0.28530   0.21290   0.01267  Uiso   1.00
C39    C     0.60070   0.27720   0.19010   0.01267  Uiso   1.00
C40    C     0.53990   0.34420   0.21150   0.01267  Uiso   1.00
C41    C     0.58270   0.41700   0.25380   0.01267  Uiso   1.00
C42    C     0.55290   0.19980   0.14080   0.01267  Uiso   1.00
C43    C     0.71590   0.87440   0.75269   0.01267  Uiso   1.00
C44    C     0.68260   0.78430   0.76390   0.01267  Uiso   1.00
C45    C     0.65980   0.71730   0.71300   0.01267  Uiso   1.00
C46    C     0.66920   0.74060   0.64964   0.01267  Uiso   1.00
C47    C     0.70490   0.83000   0.63940   0.01267  Uiso   1.00
C48    C     0.72870   0.89810   0.68970   0.01267  Uiso   1.00
C49    C     0.64080   0.66850   0.59340   0.01267  Uiso   1.00
C50    C     0.87070   0.97710   0.85392   0.01267  Uiso   1.00
C51    C     0.94130   0.91670   0.83750   0.01267  Uiso   1.00
C52    C     0.04420   0.92580   0.86920   0.01267  Uiso   1.00
C53    C     0.07660   0.99490   0.91660   0.01267  Uiso   1.00
C54    C     0.00690   0.05650   0.93240   0.01267  Uiso   1.00
C55    C     0.90350   0.04750   0.90200   0.01267  Uiso   1.00
C56    C     0.19010   0.00610   0.95050   0.01267  Uiso   1.00
C57    C     0.68860   0.07270   0.77460   0.01267  Uiso   1.00
C58    C     0.74910   0.13920   0.75400   0.01267  Uiso   1.00
C59    C     0.70570   0.21470   0.71290   0.01267  Uiso   1.00
C60    C     0.60070   0.22280   0.69010   0.01267  Uiso   1.00
C61    C     0.53990   0.15580   0.71150   0.01267  Uiso   1.00
C62    C     0.58270   0.08300   0.75380   0.01267  Uiso   1.00
C63    C     0.55290   0.30020   0.64080   0.01267  Uiso   1.00
C64    C     0.28410   0.37440   0.74731   0.01267  Uiso   1.00
C65    C     0.31740   0.28430   0.73610   0.01267  Uiso   1.00
C66    C     0.34020   0.21730   0.78700   0.01267  Uiso   1.00
C67    C     0.33080   0.24060   0.85036   0.01267  Uiso   1.00
C68    C     0.29510   0.33000   0.86060   0.01267  Uiso   1.00
C69    C     0.27130   0.39810   0.81030   0.01267  Uiso   1.00
C70    C     0.35920   0.16850   0.90660   0.01267  Uiso   1.00
C71    C     0.12930   0.47710   0.64608   0.01267  Uiso   1.00
C72    C     0.05870   0.41670   0.66250   0.01267  Uiso   1.00
C73    C     0.95580   0.42580   0.63080   0.01267  Uiso   1.00
C74    C     0.92340   0.49490   0.58340   0.01267  Uiso   1.00
C75    C     0.99310   0.55650   0.56760   0.01267  Uiso   1.00
C76    C     0.09650   0.54750   0.59800   0.01267  Uiso   1.00
C77    C     0.80990   0.50610   0.54950   0.01267  Uiso   1.00
C78    C     0.31140   0.57270   0.72540   0.01267  Uiso   1.00
C79    C     0.25090   0.63920   0.74600   0.01267  Uiso   1.00
C80    C     0.29430   0.71470   0.78710   0.01267  Uiso   1.00
C81    C     0.39930   0.72280   0.80990   0.01267  Uiso   1.00
C82    C     0.46010   0.65580   0.78850   0.01267  Uiso   1.00
C83    C     0.41730   0.58300   0.74620   0.01267  Uiso   1.00
C84    C     0.44710   0.80020   0.85920   0.01267  Uiso   1.00
O1     O     0.32120   0.06230   0.13157   0.01267  Uiso   1.00
O2     O     0.37150   0.41690   0.39263   0.01267  Uiso   1.00
O3     O     0.36950   0.29700   0.46473   0.01267  Uiso   1.00
O4     O     0.78570   0.92260   0.01136   0.01267  Uiso   1.00
O5     O     0.75180   0.05580   0.06207   0.01267  Uiso   1.00
O6     O     0.39160   0.62910   0.36522   0.01267  Uiso   1.00
O7     O     0.53840   0.71430   0.38969   0.01267  Uiso   1.00
O8     O     0.43996   0.02380   0.03977   0.01267  Uiso   1.00
O9     O     0.67880   0.56230   0.36843   0.01267  Uiso   1.00
O10    O     0.62850   0.91690   0.10737   0.01267  Uiso   1.00
O11    O     0.63050   0.79700   0.03527   0.01267  Uiso   1.00
O12    O     0.21430   0.42260   0.48864   0.01267  Uiso   1.00
O13    O     0.24820   0.55580   0.43793   0.01267  Uiso   1.00
O14    O     0.60840   0.12910   0.13478   0.01267  Uiso   1.00
O15    O     0.46160   0.21430   0.11031   0.01267  Uiso   1.00
O16    O     0.56004   0.52380   0.46023   0.01267  Uiso   1.00
O17    O     0.67880   0.93770   0.86843   0.01267  Uiso   1.00
O18    O     0.62850   0.58310   0.60737   0.01267  Uiso   1.00
O19    O     0.63050   0.70300   0.53527   0.01267  Uiso   1.00
O20    O     0.21430   0.07740   0.98864   0.01267  Uiso   1.00
O21    O     0.24820   0.94420   0.93793   0.01267  Uiso   1.00
O22    O     0.60840   0.37090   0.63478   0.01267  Uiso   1.00
O23    O     0.46160   0.28570   0.61031   0.01267  Uiso   1.00
O24    O     0.56004   0.97620   0.96023   0.01267  Uiso   1.00
O25    O     0.32120   0.43770   0.63157   0.01267  Uiso   1.00
O26    O     0.37150   0.08310   0.89263   0.01267  Uiso   1.00
O27    O     0.36950   0.20300   0.96473   0.01267  Uiso   1.00
O28    O     0.78570   0.57740   0.51136   0.01267  Uiso   1.00
O29    O     0.75180   0.44420   0.56207   0.01267  Uiso   1.00
O30    O     0.39160   0.87090   0.86522   0.01267  Uiso   1.00
O31    O     0.53840   0.78570   0.88969   0.01267  Uiso   1.00
O32    O     0.43996   0.47620   0.53977   0.01267  Uiso   1.00
