data_image0
_cell_length_a       15.023
_cell_length_b       10.1643
_cell_length_c       18.196
_cell_angle_alpha    90
_cell_angle_beta     114.233
_cell_angle_gamma    90

_symmetry_space_group_name_H-M    "P 1"
_symmetry_int_tables_number       1

loop_
  _symmetry_equiv_pos_as_xyz
  'x, y, z'

loop_
  _atom_site_label
  _atom_site_occupancy
  _atom_site_fract_x
  _atom_site_fract_y
  _atom_site_fract_z
  _atom_site_thermal_displace_type
  _atom_site_B_iso_or_equiv
  _atom_site_type_symbol
  Zn1      1.0000 0.11150  0.27736  0.23655  Biso   1.000  Zn
  Zn2      1.0000 0.84417  0.05025  0.04666  Biso   1.000  Zn
  C1       1.0000 0.17467  0.66500  0.20190  Biso   1.000  C
  H1       1.0000 0.23850  0.70640  0.21630  Biso   1.000  H
  C2       1.0000 0.10889  0.74020  0.23557  Biso   1.000  C
  H2       1.0000 0.13080  0.83180  0.24650  Biso   1.000  H
  C3       1.0000 0.02346  0.73100  0.15121  Biso   1.000  C
  H3       1.0000 0.98790  0.64930  0.14920  Biso   1.000  H
  C4       1.0000 0.09852  0.70230  0.11489  Biso   1.000  C
  H4       1.0000 0.08000  0.62720  0.07780  Biso   1.000  H
  C5       1.0000 0.18120  0.51850  0.21858  Biso   1.000  C
  C6       1.0000 0.09737  0.68460  0.30745  Biso   1.000  C
  C7       1.0000 0.95059  0.84070  0.12414  Biso   1.000  C
  C8       1.0000 0.13045  0.82070  0.08132  Biso   1.000  C
  O1       1.0000 0.09923  0.45599  0.19243  Biso   1.000  O
  O2       1.0000 0.26031  0.46510  0.25612  Biso   1.000  O
  O3       1.0000 0.01465  0.67915  0.30960  Biso   1.000  O
  O4       1.0000 0.17405  0.64528  0.36495  Biso   1.000  O
  O5       1.0000 0.94381  0.91217  0.06528  Biso   1.000  O
  O6       1.0000 0.89605  0.85693  0.16024  Biso   1.000  O
  O7       1.0000 0.11794  0.80895  0.00752  Biso   1.000  O
  O8       1.0000 0.16755  0.91780  0.12343  Biso   1.000  O
  N1       1.0000 0.22348  0.15310  0.29592  Biso   1.000  N
  C9       1.0000 0.30500  0.15060  0.28330  Biso   1.000  C
  H5       1.0000 0.31120  0.20990  0.24670  Biso   1.000  H
  C10      1.0000 0.38020  0.06400  0.32210  Biso   1.000  C
  H6       1.0000 0.43560  0.06560  0.31140  Biso   1.000  H
  C11      1.0000 0.37350  0.97470  0.37700  Biso   1.000  C
  C12      1.0000 0.28910  0.97670  0.38850  Biso   1.000  C
  H7       1.0000 0.28030  0.91740  0.42380  Biso   1.000  H
  C13      1.0000 0.21680  0.06670  0.34770  Biso   1.000  C
  H8       1.0000 0.16050  0.06640  0.35710  Biso   1.000  H
  N2       1.0000 0.70864  0.53090  0.49390  Biso   1.000  N
  C14      1.0000 0.66490  0.57070  0.54078  Biso   1.000  C
  H9       1.0000 0.69510  0.55380  0.59580  Biso   1.000  H
  C15      1.0000 0.57670  0.63580  0.51080  Biso   1.000  C
  H10      1.0000 0.54840  0.66160  0.54540  Biso   1.000  H
  C16      1.0000 0.53000  0.66290  0.42910  Biso   1.000  C
  C17      1.0000 0.57460  0.61990  0.38170  Biso   1.000  C
  H11      1.0000 0.54510  0.63400  0.32630  Biso   1.000  H
  C18      1.0000 0.66290  0.55580  0.41510  Biso   1.000  C
  H12      1.0000 0.69200  0.52870  0.38130  Biso   1.000  H
  C19      1.0000 0.45630  0.88010  0.42130  Biso   1.000  C
  H13      1.0000 0.51410  0.90970  0.41500  Biso   1.000  H
  H14      1.0000 0.47040  0.88310  0.47830  Biso   1.000  H
  C20      1.0000 0.43630  0.74260  0.39360  Biso   1.000  C
  H15      1.0000 0.41020  0.73970  0.33520  Biso   1.000  H
  H16      1.0000 0.38820  0.70530  0.41030  Biso   1.000  H
  Zn3      1.0000 0.88850  0.77736  0.26345  Biso   1.000  Zn
  Zn4      1.0000 0.15583  0.55025  0.45334  Biso   1.000  Zn
  C21      1.0000 0.82533  0.16500  0.29810  Biso   1.000  C
  H17      1.0000 0.76150  0.20640  0.28370  Biso   1.000  H
  C22      1.0000 0.89111  0.24020  0.26443  Biso   1.000  C
  H18      1.0000 0.86920  0.33180  0.25350  Biso   1.000  H
  C23      1.0000 0.97654  0.23100  0.34879  Biso   1.000  C
  H19      1.0000 0.01210  0.14930  0.35080  Biso   1.000  H
  C24      1.0000 0.90148  0.20230  0.38511  Biso   1.000  C
  H20      1.0000 0.92000  0.12720  0.42220  Biso   1.000  H
  C25      1.0000 0.81880  0.01850  0.28142  Biso   1.000  C
  C26      1.0000 0.90263  0.18460  0.19255  Biso   1.000  C
  C27      1.0000 0.04941  0.34070  0.37586  Biso   1.000  C
  C28      1.0000 0.86955  0.32070  0.41868  Biso   1.000  C
  O9       1.0000 0.90077  0.95599  0.30757  Biso   1.000  O
  O10      1.0000 0.73969  0.96510  0.24388  Biso   1.000  O
  O11      1.0000 0.98535  0.17915  0.19040  Biso   1.000  O
  O12      1.0000 0.82595  0.14528  0.13505  Biso   1.000  O
  O13      1.0000 0.05619  0.41217  0.43472  Biso   1.000  O
  O14      1.0000 0.10395  0.35693  0.33976  Biso   1.000  O
  O15      1.0000 0.88206  0.30895  0.49248  Biso   1.000  O
  O16      1.0000 0.83245  0.41780  0.37657  Biso   1.000  O
  N3       1.0000 0.77652  0.65310  0.20408  Biso   1.000  N
  C29      1.0000 0.69500  0.65060  0.21670  Biso   1.000  C
  H21      1.0000 0.68880  0.70990  0.25330  Biso   1.000  H
  C30      1.0000 0.61980  0.56400  0.17790  Biso   1.000  C
  H22      1.0000 0.56440  0.56560  0.18860  Biso   1.000  H
  C31      1.0000 0.62650  0.47470  0.12300  Biso   1.000  C
  C32      1.0000 0.71090  0.47670  0.11150  Biso   1.000  C
  H23      1.0000 0.71970  0.41740  0.07620  Biso   1.000  H
  C33      1.0000 0.78320  0.56670  0.15230  Biso   1.000  C
  H24      1.0000 0.83950  0.56640  0.14290  Biso   1.000  H
  N4       1.0000 0.29136  0.03090  0.00610  Biso   1.000  N
  C34      1.0000 0.33510  0.07070  0.95922  Biso   1.000  C
  H25      1.0000 0.30490  0.05380  0.90420  Biso   1.000  H
  C35      1.0000 0.42330  0.13580  0.98920  Biso   1.000  C
  H26      1.0000 0.45160  0.16160  0.95460  Biso   1.000  H
  C36      1.0000 0.47000  0.16290  0.07090  Biso   1.000  C
  C37      1.0000 0.42540  0.11990  0.11830  Biso   1.000  C
  H27      1.0000 0.45490  0.13400  0.17370  Biso   1.000  H
  C38      1.0000 0.33710  0.05580  0.08490  Biso   1.000  C
  H28      1.0000 0.30800  0.02870  0.11870  Biso   1.000  H
  C39      1.0000 0.54370  0.38010  0.07870  Biso   1.000  C
  H29      1.0000 0.48590  0.40970  0.08500  Biso   1.000  H
  H30      1.0000 0.52960  0.38310  0.02170  Biso   1.000  H
  C40      1.0000 0.56370  0.24260  0.10640  Biso   1.000  C
  H31      1.0000 0.58980  0.23970  0.16480  Biso   1.000  H
  H32      1.0000 0.61180  0.20530  0.08970  Biso   1.000  H
  Zn5      1.0000 0.88850  0.72264  0.76345  Biso   1.000  Zn
  Zn6      1.0000 0.15583  0.94975  0.95334  Biso   1.000  Zn
  C41      1.0000 0.82533  0.33500  0.79810  Biso   1.000  C
  H33      1.0000 0.76150  0.29360  0.78370  Biso   1.000  H
  C42      1.0000 0.89111  0.25980  0.76443  Biso   1.000  C
  H34      1.0000 0.86920  0.16820  0.75350  Biso   1.000  H
  C43      1.0000 0.97654  0.26900  0.84879  Biso   1.000  C
  H35      1.0000 0.01210  0.35070  0.85080  Biso   1.000  H
  C44      1.0000 0.90148  0.29770  0.88511  Biso   1.000  C
  H36      1.0000 0.92000  0.37280  0.92220  Biso   1.000  H
  C45      1.0000 0.81880  0.48150  0.78142  Biso   1.000  C
  C46      1.0000 0.90263  0.31540  0.69255  Biso   1.000  C
  C47      1.0000 0.04941  0.15930  0.87586  Biso   1.000  C
  C48      1.0000 0.86955  0.17930  0.91868  Biso   1.000  C
  O17      1.0000 0.90077  0.54401  0.80757  Biso   1.000  O
  O18      1.0000 0.73969  0.53490  0.74388  Biso   1.000  O
  O19      1.0000 0.98535  0.32085  0.69040  Biso   1.000  O
  O20      1.0000 0.82595  0.35472  0.63505  Biso   1.000  O
  O21      1.0000 0.05619  0.08783  0.93472  Biso   1.000  O
  O22      1.0000 0.10395  0.14307  0.83976  Biso   1.000  O
  O23      1.0000 0.88206  0.19105  0.99248  Biso   1.000  O
  O24      1.0000 0.83245  0.08220  0.87657  Biso   1.000  O
  N5       1.0000 0.77652  0.84690  0.70408  Biso   1.000  N
  C49      1.0000 0.69500  0.84940  0.71670  Biso   1.000  C
  H37      1.0000 0.68880  0.79010  0.75330  Biso   1.000  H
  C50      1.0000 0.61980  0.93600  0.67790  Biso   1.000  C
  H38      1.0000 0.56440  0.93440  0.68860  Biso   1.000  H
  C51      1.0000 0.62650  0.02530  0.62300  Biso   1.000  C
  C52      1.0000 0.71090  0.02330  0.61150  Biso   1.000  C
  H39      1.0000 0.71970  0.08260  0.57620  Biso   1.000  H
  C53      1.0000 0.78320  0.93330  0.65230  Biso   1.000  C
  H40      1.0000 0.83950  0.93360  0.64290  Biso   1.000  H
  N6       1.0000 0.29136  0.46910  0.50610  Biso   1.000  N
  C54      1.0000 0.33510  0.42930  0.45922  Biso   1.000  C
  H41      1.0000 0.30490  0.44620  0.40420  Biso   1.000  H
  C55      1.0000 0.42330  0.36420  0.48920  Biso   1.000  C
  H42      1.0000 0.45160  0.33840  0.45460  Biso   1.000  H
  C56      1.0000 0.47000  0.33710  0.57090  Biso   1.000  C
  C57      1.0000 0.42540  0.38010  0.61830  Biso   1.000  C
  H43      1.0000 0.45490  0.36600  0.67370  Biso   1.000  H
  C58      1.0000 0.33710  0.44420  0.58490  Biso   1.000  C
  H44      1.0000 0.30800  0.47130  0.61870  Biso   1.000  H
  C59      1.0000 0.54370  0.11990  0.57870  Biso   1.000  C
  H45      1.0000 0.48590  0.09030  0.58500  Biso   1.000  H
  H46      1.0000 0.52960  0.11690  0.52170  Biso   1.000  H
  C60      1.0000 0.56370  0.25740  0.60640  Biso   1.000  C
  H47      1.0000 0.58980  0.26030  0.66480  Biso   1.000  H
  H48      1.0000 0.61180  0.29470  0.58970  Biso   1.000  H
  Zn7      1.0000 0.11150  0.22264  0.73655  Biso   1.000  Zn
  Zn8      1.0000 0.84417  0.44975  0.54666  Biso   1.000  Zn
  C61      1.0000 0.17467  0.83500  0.70190  Biso   1.000  C
  H49      1.0000 0.23850  0.79360  0.71630  Biso   1.000  H
  C62      1.0000 0.10889  0.75980  0.73557  Biso   1.000  C
  H50      1.0000 0.13080  0.66820  0.74650  Biso   1.000  H
  C63      1.0000 0.02346  0.76900  0.65121  Biso   1.000  C
  H51      1.0000 0.98790  0.85070  0.64920  Biso   1.000  H
  C64      1.0000 0.09852  0.79770  0.61489  Biso   1.000  C
  H52      1.0000 0.08000  0.87280  0.57780  Biso   1.000  H
  C65      1.0000 0.18120  0.98150  0.71858  Biso   1.000  C
  C66      1.0000 0.09737  0.81540  0.80745  Biso   1.000  C
  C67      1.0000 0.95059  0.65930  0.62414  Biso   1.000  C
  C68      1.0000 0.13045  0.67930  0.58132  Biso   1.000  C
  O25      1.0000 0.09923  0.04401  0.69243  Biso   1.000  O
  O26      1.0000 0.26031  0.03490  0.75612  Biso   1.000  O
  O27      1.0000 0.01465  0.82085  0.80960  Biso   1.000  O
  O28      1.0000 0.17405  0.85472  0.86495  Biso   1.000  O
  O29      1.0000 0.94381  0.58783  0.56528  Biso   1.000  O
  O30      1.0000 0.89605  0.64307  0.66024  Biso   1.000  O
  O31      1.0000 0.11794  0.69105  0.50752  Biso   1.000  O
  O32      1.0000 0.16755  0.58220  0.62343  Biso   1.000  O
  N7       1.0000 0.22348  0.34690  0.79592  Biso   1.000  N
  C69      1.0000 0.30500  0.34940  0.78330  Biso   1.000  C
  H53      1.0000 0.31120  0.29010  0.74670  Biso   1.000  H
  C70      1.0000 0.38020  0.43600  0.82210  Biso   1.000  C
  H54      1.0000 0.43560  0.43440  0.81140  Biso   1.000  H
  C71      1.0000 0.37350  0.52530  0.87700  Biso   1.000  C
  C72      1.0000 0.28910  0.52330  0.88850  Biso   1.000  C
  H55      1.0000 0.28030  0.58260  0.92380  Biso   1.000  H
  C73      1.0000 0.21680  0.43330  0.84770  Biso   1.000  C
  H56      1.0000 0.16050  0.43360  0.85710  Biso   1.000  H
  N8       1.0000 0.70864  0.96910  0.99390  Biso   1.000  N
  C74      1.0000 0.66490  0.92930  0.04078  Biso   1.000  C
  H57      1.0000 0.69510  0.94620  0.09580  Biso   1.000  H
  C75      1.0000 0.57670  0.86420  0.01080  Biso   1.000  C
  H58      1.0000 0.54840  0.83840  0.04540  Biso   1.000  H
  C76      1.0000 0.53000  0.83710  0.92910  Biso   1.000  C
  C77      1.0000 0.57460  0.88010  0.88170  Biso   1.000  C
  H59      1.0000 0.54510  0.86600  0.82630  Biso   1.000  H
  C78      1.0000 0.66290  0.94420  0.91510  Biso   1.000  C
  H60      1.0000 0.69200  0.97130  0.88130  Biso   1.000  H
  C79      1.0000 0.45630  0.61990  0.92130  Biso   1.000  C
  H61      1.0000 0.51410  0.59030  0.91500  Biso   1.000  H
  H62      1.0000 0.47040  0.61690  0.97830  Biso   1.000  H
  C80      1.0000 0.43630  0.75740  0.89360  Biso   1.000  C
  H63      1.0000 0.41020  0.76030  0.83520  Biso   1.000  H
  H64      1.0000 0.38820  0.79470  0.91030  Biso   1.000  H
