data_image0
_cell_length_a       16.269
_cell_length_b       20.73
_cell_length_c       14.9828
_cell_angle_alpha    90
_cell_angle_beta     90
_cell_angle_gamma    90

_symmetry_space_group_name_H-M    "P 1"
_symmetry_int_tables_number       1

loop_
  _symmetry_equiv_pos_as_xyz
  'x, y, z'

loop_
  _atom_site_label
  _atom_site_occupancy
  _atom_site_fract_x
  _atom_site_fract_y
  _atom_site_fract_z
  _atom_site_thermal_displace_type
  _atom_site_B_iso_or_equiv
  _atom_site_type_symbol
  C1       1.0000 0.21676  0.43159  0.85965  Biso   1.000  C
  C2       1.0000 0.01301  0.25237  0.82923  Biso   1.000  C
  C3       1.0000 0.00873  0.43887  0.61480  Biso   1.000  C
  Cu1      1.0000 0.10619  0.56630  0.53314  Biso   1.000  Cu
  C4       1.0000 0.11238  0.43109  0.73708  Biso   1.000  C
  H1       1.0000 0.13320  0.47160  0.71770  Biso   1.000  H
  N1       1.0000 0.33118  0.50331  0.95802  Biso   1.000  N
  O1       1.0000 0.02698  0.49602  0.60255  Biso   1.000  O
  O2       1.0000 0.95931  0.40514  0.56823  Biso   1.000  O
  N2       1.0000 0.94247  0.14097  0.90019  Biso   1.000  N
  C5       1.0000 0.11790  0.34013  0.83717  Biso   1.000  C
  H2       1.0000 0.14360  0.31760  0.88490  Biso   1.000  H
  C6       1.0000 0.04588  0.40358  0.69346  Biso   1.000  C
  C7       1.0000 0.26342  0.47995  0.81973  Biso   1.000  C
  H3       1.0000 0.25790  0.48860  0.75780  Biso   1.000  H
  C8       1.0000 0.89653  0.18997  0.87230  Biso   1.000  C
  H4       1.0000 0.83850  0.18650  0.87730  Biso   1.000  H
  C9       1.0000 0.28958  0.45400  0.99439  Biso   1.000  C
  H5       1.0000 0.30030  0.44330  0.05490  Biso   1.000  H
  C10      1.0000 0.23233  0.41806  0.94887  Biso   1.000  C
  H6       1.0000 0.20360  0.38420  0.97820  Biso   1.000  H
  C11      1.0000 0.06093  0.20081  0.85807  Biso   1.000  C
  H7       1.0000 0.11910  0.20310  0.85420  Biso   1.000  H
  C12      1.0000 0.14918  0.39956  0.80973  Biso   1.000  C
  C13      1.0000 0.31767  0.51508  0.87108  Biso   1.000  C
  H8       1.0000 0.34700  0.54940  0.84360  Biso   1.000  H
  C14      1.0000 0.92910  0.24571  0.83650  Biso   1.000  C
  H9       1.0000 0.89380  0.27930  0.81700  Biso   1.000  H
  C15      1.0000 0.02392  0.14682  0.89202  Biso   1.000  C
  H10      1.0000 0.05770  0.11190  0.91060  Biso   1.000  H
  C16      1.0000 0.04894  0.31327  0.79505  Biso   1.000  C
  C17      1.0000 0.01383  0.34546  0.72235  Biso   1.000  C
  H11      1.0000 0.96770  0.32730  0.69270  Biso   1.000  H
  C18      1.0000 0.28324  0.06841  0.85965  Biso   1.000  C
  C19      1.0000 0.48699  0.24763  0.82923  Biso   1.000  C
  C20      1.0000 0.49127  0.06113  0.61480  Biso   1.000  C
  Cu2      1.0000 0.39381  0.93370  0.53314  Biso   1.000  Cu
  C21      1.0000 0.38762  0.06891  0.73708  Biso   1.000  C
  H12      1.0000 0.36680  0.02840  0.71770  Biso   1.000  H
  N3       1.0000 0.16882  0.99669  0.95802  Biso   1.000  N
  O3       1.0000 0.47302  0.00398  0.60255  Biso   1.000  O
  O4       1.0000 0.54069  0.09486  0.56823  Biso   1.000  O
  N4       1.0000 0.55753  0.35903  0.90019  Biso   1.000  N
  C22      1.0000 0.38210  0.15987  0.83717  Biso   1.000  C
  H13      1.0000 0.35640  0.18240  0.88490  Biso   1.000  H
  C23      1.0000 0.45412  0.09642  0.69346  Biso   1.000  C
  C24      1.0000 0.23658  0.02005  0.81973  Biso   1.000  C
  H14      1.0000 0.24210  0.01140  0.75780  Biso   1.000  H
  C25      1.0000 0.60347  0.31003  0.87230  Biso   1.000  C
  H15      1.0000 0.66150  0.31350  0.87730  Biso   1.000  H
  C26      1.0000 0.21042  0.04600  0.99439  Biso   1.000  C
  H16      1.0000 0.19970  0.05670  0.05490  Biso   1.000  H
  C27      1.0000 0.26767  0.08194  0.94887  Biso   1.000  C
  H17      1.0000 0.29640  0.11580  0.97820  Biso   1.000  H
  C28      1.0000 0.43907  0.29919  0.85807  Biso   1.000  C
  H18      1.0000 0.38090  0.29690  0.85420  Biso   1.000  H
  C29      1.0000 0.35082  0.10044  0.80973  Biso   1.000  C
  C30      1.0000 0.18233  0.98492  0.87108  Biso   1.000  C
  H19      1.0000 0.15300  0.95060  0.84360  Biso   1.000  H
  C31      1.0000 0.57090  0.25429  0.83650  Biso   1.000  C
  H20      1.0000 0.60620  0.22070  0.81700  Biso   1.000  H
  C32      1.0000 0.47608  0.35318  0.89202  Biso   1.000  C
  H21      1.0000 0.44230  0.38810  0.91060  Biso   1.000  H
  C33      1.0000 0.45106  0.18673  0.79505  Biso   1.000  C
  C34      1.0000 0.48617  0.15454  0.72235  Biso   1.000  C
  H22      1.0000 0.53230  0.17270  0.69270  Biso   1.000  H
  C35      1.0000 0.78324  0.93159  0.64035  Biso   1.000  C
  C36      1.0000 0.98699  0.75237  0.67077  Biso   1.000  C
  C37      1.0000 0.99127  0.93887  0.88520  Biso   1.000  C
  Cu3      1.0000 0.89381  0.06630  0.96686  Biso   1.000  Cu
  C38      1.0000 0.88762  0.93109  0.76292  Biso   1.000  C
  H23      1.0000 0.86680  0.97160  0.78230  Biso   1.000  H
  N5       1.0000 0.66882  0.00331  0.54198  Biso   1.000  N
  O5       1.0000 0.97302  0.99602  0.89745  Biso   1.000  O
  O6       1.0000 0.04069  0.90514  0.93177  Biso   1.000  O
  N6       1.0000 0.05753  0.64097  0.59981  Biso   1.000  N
  C39      1.0000 0.88210  0.84013  0.66283  Biso   1.000  C
  H24      1.0000 0.85640  0.81760  0.61510  Biso   1.000  H
  C40      1.0000 0.95412  0.90358  0.80654  Biso   1.000  C
  C41      1.0000 0.73658  0.97995  0.68027  Biso   1.000  C
  H25      1.0000 0.74210  0.98860  0.74220  Biso   1.000  H
  C42      1.0000 0.10347  0.68997  0.62770  Biso   1.000  C
  H26      1.0000 0.16150  0.68650  0.62270  Biso   1.000  H
  C43      1.0000 0.71042  0.95400  0.50561  Biso   1.000  C
  H27      1.0000 0.69970  0.94330  0.44510  Biso   1.000  H
  C44      1.0000 0.76767  0.91806  0.55113  Biso   1.000  C
  H28      1.0000 0.79640  0.88420  0.52180  Biso   1.000  H
  C45      1.0000 0.93907  0.70081  0.64193  Biso   1.000  C
  H29      1.0000 0.88090  0.70310  0.64580  Biso   1.000  H
  C46      1.0000 0.85082  0.89956  0.69027  Biso   1.000  C
  C47      1.0000 0.68233  0.01508  0.62892  Biso   1.000  C
  H30      1.0000 0.65300  0.04940  0.65640  Biso   1.000  H
  C48      1.0000 0.07090  0.74571  0.66350  Biso   1.000  C
  H31      1.0000 0.10620  0.77930  0.68300  Biso   1.000  H
  C49      1.0000 0.97608  0.64682  0.60798  Biso   1.000  C
  H32      1.0000 0.94230  0.61190  0.58940  Biso   1.000  H
  C50      1.0000 0.95106  0.81327  0.70495  Biso   1.000  C
  C51      1.0000 0.98617  0.84546  0.77765  Biso   1.000  C
  H33      1.0000 0.03230  0.82730  0.80730  Biso   1.000  H
  C52      1.0000 0.71676  0.56841  0.64035  Biso   1.000  C
  C53      1.0000 0.51301  0.74763  0.67077  Biso   1.000  C
  C54      1.0000 0.50873  0.56113  0.88520  Biso   1.000  C
  Cu4      1.0000 0.60619  0.43370  0.96686  Biso   1.000  Cu
  C55      1.0000 0.61238  0.56891  0.76292  Biso   1.000  C
  H34      1.0000 0.63320  0.52840  0.78230  Biso   1.000  H
  N7       1.0000 0.83118  0.49669  0.54198  Biso   1.000  N
  O7       1.0000 0.52698  0.50398  0.89745  Biso   1.000  O
  O8       1.0000 0.45931  0.59486  0.93177  Biso   1.000  O
  N8       1.0000 0.44247  0.85903  0.59981  Biso   1.000  N
  C56      1.0000 0.61790  0.65987  0.66283  Biso   1.000  C
  H35      1.0000 0.64360  0.68240  0.61510  Biso   1.000  H
  C57      1.0000 0.54588  0.59642  0.80654  Biso   1.000  C
  C58      1.0000 0.76342  0.52005  0.68027  Biso   1.000  C
  H36      1.0000 0.75790  0.51140  0.74220  Biso   1.000  H
  C59      1.0000 0.39653  0.81003  0.62770  Biso   1.000  C
  H37      1.0000 0.33850  0.81350  0.62270  Biso   1.000  H
  C60      1.0000 0.78958  0.54600  0.50561  Biso   1.000  C
  H38      1.0000 0.80030  0.55670  0.44510  Biso   1.000  H
  C61      1.0000 0.73233  0.58194  0.55113  Biso   1.000  C
  H39      1.0000 0.70360  0.61580  0.52180  Biso   1.000  H
  C62      1.0000 0.56093  0.79919  0.64193  Biso   1.000  C
  H40      1.0000 0.61910  0.79690  0.64580  Biso   1.000  H
  C63      1.0000 0.64918  0.60044  0.69027  Biso   1.000  C
  C64      1.0000 0.81767  0.48492  0.62892  Biso   1.000  C
  H41      1.0000 0.84700  0.45060  0.65640  Biso   1.000  H
  C65      1.0000 0.42910  0.75429  0.66350  Biso   1.000  C
  H42      1.0000 0.39380  0.72070  0.68300  Biso   1.000  H
  C66      1.0000 0.52392  0.85318  0.60798  Biso   1.000  C
  H43      1.0000 0.55770  0.88810  0.58940  Biso   1.000  H
  C67      1.0000 0.54894  0.68673  0.70495  Biso   1.000  C
  C68      1.0000 0.51383  0.65454  0.77765  Biso   1.000  C
  H44      1.0000 0.46770  0.67270  0.80730  Biso   1.000  H
  C69      1.0000 0.78324  0.56841  0.14035  Biso   1.000  C
  C70      1.0000 0.98699  0.74763  0.17077  Biso   1.000  C
  C71      1.0000 0.99127  0.56113  0.38520  Biso   1.000  C
  Cu5      1.0000 0.89381  0.43370  0.46686  Biso   1.000  Cu
  C72      1.0000 0.88762  0.56891  0.26292  Biso   1.000  C
  H45      1.0000 0.86680  0.52840  0.28230  Biso   1.000  H
  N9       1.0000 0.66882  0.49669  0.04198  Biso   1.000  N
  O9       1.0000 0.97302  0.50398  0.39745  Biso   1.000  O
  O10      1.0000 0.04069  0.59486  0.43177  Biso   1.000  O
  N10      1.0000 0.05753  0.85903  0.09981  Biso   1.000  N
  C73      1.0000 0.88210  0.65987  0.16283  Biso   1.000  C
  H46      1.0000 0.85640  0.68240  0.11510  Biso   1.000  H
  C74      1.0000 0.95412  0.59642  0.30654  Biso   1.000  C
  C75      1.0000 0.73658  0.52005  0.18027  Biso   1.000  C
  H47      1.0000 0.74210  0.51140  0.24220  Biso   1.000  H
  C76      1.0000 0.10347  0.81003  0.12770  Biso   1.000  C
  H48      1.0000 0.16150  0.81350  0.12270  Biso   1.000  H
  C77      1.0000 0.71042  0.54600  0.00561  Biso   1.000  C
  H49      1.0000 0.69970  0.55670  0.94510  Biso   1.000  H
  C78      1.0000 0.76767  0.58194  0.05113  Biso   1.000  C
  H50      1.0000 0.79640  0.61580  0.02180  Biso   1.000  H
  C79      1.0000 0.93907  0.79919  0.14193  Biso   1.000  C
  H51      1.0000 0.88090  0.79690  0.14580  Biso   1.000  H
  C80      1.0000 0.85082  0.60044  0.19027  Biso   1.000  C
  C81      1.0000 0.68233  0.48492  0.12892  Biso   1.000  C
  H52      1.0000 0.65300  0.45060  0.15640  Biso   1.000  H
  C82      1.0000 0.07090  0.75429  0.16350  Biso   1.000  C
  H53      1.0000 0.10620  0.72070  0.18300  Biso   1.000  H
  C83      1.0000 0.97608  0.85318  0.10798  Biso   1.000  C
  H54      1.0000 0.94230  0.88810  0.08940  Biso   1.000  H
  C84      1.0000 0.95106  0.68673  0.20495  Biso   1.000  C
  C85      1.0000 0.98617  0.65454  0.27765  Biso   1.000  C
  H55      1.0000 0.03230  0.67270  0.30730  Biso   1.000  H
  C86      1.0000 0.71676  0.93159  0.14035  Biso   1.000  C
  C87      1.0000 0.51301  0.75237  0.17077  Biso   1.000  C
  C88      1.0000 0.50873  0.93887  0.38520  Biso   1.000  C
  Cu6      1.0000 0.60619  0.06630  0.46686  Biso   1.000  Cu
  C89      1.0000 0.61238  0.93109  0.26292  Biso   1.000  C
  H56      1.0000 0.63320  0.97160  0.28230  Biso   1.000  H
  N11      1.0000 0.83118  0.00331  0.04198  Biso   1.000  N
  O11      1.0000 0.52698  0.99602  0.39745  Biso   1.000  O
  O12      1.0000 0.45931  0.90514  0.43177  Biso   1.000  O
  N12      1.0000 0.44247  0.64097  0.09981  Biso   1.000  N
  C90      1.0000 0.61790  0.84013  0.16283  Biso   1.000  C
  H57      1.0000 0.64360  0.81760  0.11510  Biso   1.000  H
  C91      1.0000 0.54588  0.90358  0.30654  Biso   1.000  C
  C92      1.0000 0.76342  0.97995  0.18027  Biso   1.000  C
  H58      1.0000 0.75790  0.98860  0.24220  Biso   1.000  H
  C93      1.0000 0.39653  0.68997  0.12770  Biso   1.000  C
  H59      1.0000 0.33850  0.68650  0.12270  Biso   1.000  H
  C94      1.0000 0.78958  0.95400  0.00561  Biso   1.000  C
  H60      1.0000 0.80030  0.94330  0.94510  Biso   1.000  H
  C95      1.0000 0.73233  0.91806  0.05113  Biso   1.000  C
  H61      1.0000 0.70360  0.88420  0.02180  Biso   1.000  H
  C96      1.0000 0.56093  0.70081  0.14193  Biso   1.000  C
  H62      1.0000 0.61910  0.70310  0.14580  Biso   1.000  H
  C97      1.0000 0.64918  0.89956  0.19027  Biso   1.000  C
  C98      1.0000 0.81767  0.01508  0.12892  Biso   1.000  C
  H63      1.0000 0.84700  0.04940  0.15640  Biso   1.000  H
  C99      1.0000 0.42910  0.74571  0.16350  Biso   1.000  C
  H64      1.0000 0.39380  0.77930  0.18300  Biso   1.000  H
  C100     1.0000 0.52392  0.64682  0.10798  Biso   1.000  C
  H65      1.0000 0.55770  0.61190  0.08940  Biso   1.000  H
  C101     1.0000 0.54894  0.81327  0.20495  Biso   1.000  C
  C102     1.0000 0.51383  0.84546  0.27765  Biso   1.000  C
  H66      1.0000 0.46770  0.82730  0.30730  Biso   1.000  H
  C103     1.0000 0.21676  0.06841  0.35965  Biso   1.000  C
  C104     1.0000 0.01301  0.24763  0.32923  Biso   1.000  C
  C105     1.0000 0.00873  0.06113  0.11480  Biso   1.000  C
  Cu7      1.0000 0.10619  0.93370  0.03314  Biso   1.000  Cu
  C106     1.0000 0.11238  0.06891  0.23708  Biso   1.000  C
  H67      1.0000 0.13320  0.02840  0.21770  Biso   1.000  H
  N13      1.0000 0.33118  0.99669  0.45802  Biso   1.000  N
  O13      1.0000 0.02698  0.00398  0.10255  Biso   1.000  O
  O14      1.0000 0.95931  0.09486  0.06823  Biso   1.000  O
  N14      1.0000 0.94247  0.35903  0.40019  Biso   1.000  N
  C107     1.0000 0.11790  0.15987  0.33717  Biso   1.000  C
  H68      1.0000 0.14360  0.18240  0.38490  Biso   1.000  H
  C108     1.0000 0.04588  0.09642  0.19346  Biso   1.000  C
  C109     1.0000 0.26342  0.02005  0.31973  Biso   1.000  C
  H69      1.0000 0.25790  0.01140  0.25780  Biso   1.000  H
  C110     1.0000 0.89653  0.31003  0.37230  Biso   1.000  C
  H70      1.0000 0.83850  0.31350  0.37730  Biso   1.000  H
  C111     1.0000 0.28958  0.04600  0.49439  Biso   1.000  C
  H71      1.0000 0.30030  0.05670  0.55490  Biso   1.000  H
  C112     1.0000 0.23233  0.08194  0.44887  Biso   1.000  C
  H72      1.0000 0.20360  0.11580  0.47820  Biso   1.000  H
  C113     1.0000 0.06093  0.29919  0.35807  Biso   1.000  C
  H73      1.0000 0.11910  0.29690  0.35420  Biso   1.000  H
  C114     1.0000 0.14918  0.10044  0.30973  Biso   1.000  C
  C115     1.0000 0.31767  0.98492  0.37108  Biso   1.000  C
  H74      1.0000 0.34700  0.95060  0.34360  Biso   1.000  H
  C116     1.0000 0.92910  0.25429  0.33650  Biso   1.000  C
  H75      1.0000 0.89380  0.22070  0.31700  Biso   1.000  H
  C117     1.0000 0.02392  0.35318  0.39202  Biso   1.000  C
  H76      1.0000 0.05770  0.38810  0.41060  Biso   1.000  H
  C118     1.0000 0.04894  0.18673  0.29505  Biso   1.000  C
  C119     1.0000 0.01383  0.15454  0.22235  Biso   1.000  C
  H77      1.0000 0.96770  0.17270  0.19270  Biso   1.000  H
  C120     1.0000 0.28324  0.43159  0.35965  Biso   1.000  C
  C121     1.0000 0.48699  0.25237  0.32923  Biso   1.000  C
  C122     1.0000 0.49127  0.43887  0.11480  Biso   1.000  C
  Cu8      1.0000 0.39381  0.56630  0.03314  Biso   1.000  Cu
  C123     1.0000 0.38762  0.43109  0.23708  Biso   1.000  C
  H78      1.0000 0.36680  0.47160  0.21770  Biso   1.000  H
  N15      1.0000 0.16882  0.50331  0.45802  Biso   1.000  N
  O15      1.0000 0.47302  0.49602  0.10255  Biso   1.000  O
  O16      1.0000 0.54069  0.40514  0.06823  Biso   1.000  O
  N16      1.0000 0.55753  0.14097  0.40019  Biso   1.000  N
  C124     1.0000 0.38210  0.34013  0.33717  Biso   1.000  C
  H79      1.0000 0.35640  0.31760  0.38490  Biso   1.000  H
  C125     1.0000 0.45412  0.40358  0.19346  Biso   1.000  C
  C126     1.0000 0.23658  0.47995  0.31973  Biso   1.000  C
  H80      1.0000 0.24210  0.48860  0.25780  Biso   1.000  H
  C127     1.0000 0.60347  0.18997  0.37230  Biso   1.000  C
  H81      1.0000 0.66150  0.18650  0.37730  Biso   1.000  H
  C128     1.0000 0.21042  0.45400  0.49439  Biso   1.000  C
  H82      1.0000 0.19970  0.44330  0.55490  Biso   1.000  H
  C129     1.0000 0.26767  0.41806  0.44887  Biso   1.000  C
  H83      1.0000 0.29640  0.38420  0.47820  Biso   1.000  H
  C130     1.0000 0.43907  0.20081  0.35807  Biso   1.000  C
  H84      1.0000 0.38090  0.20310  0.35420  Biso   1.000  H
  C131     1.0000 0.35082  0.39956  0.30973  Biso   1.000  C
  C132     1.0000 0.18233  0.51508  0.37108  Biso   1.000  C
  H85      1.0000 0.15300  0.54940  0.34360  Biso   1.000  H
  C133     1.0000 0.57090  0.24571  0.33650  Biso   1.000  C
  H86      1.0000 0.60620  0.27930  0.31700  Biso   1.000  H
  C134     1.0000 0.47608  0.14682  0.39202  Biso   1.000  C
  H87      1.0000 0.44230  0.11190  0.41060  Biso   1.000  H
  C135     1.0000 0.45106  0.31327  0.29505  Biso   1.000  C
  C136     1.0000 0.48617  0.34546  0.22235  Biso   1.000  C
  H88      1.0000 0.53230  0.32730  0.19270  Biso   1.000  H
