data_EQIWAD_clean
_audit_creation_date              2014-07-02
_audit_creation_method            'Materials Studio'
_symmetry_space_group_name_H-M    'P1'
_symmetry_Int_Tables_number       1
_symmetry_cell_setting            triclinic
loop_
_symmetry_equiv_pos_as_xyz
  x,y,z
_cell_length_a                    4.7595
_cell_length_b                    9.9250
_cell_length_c                    22.6090
_cell_angle_alpha                 90.0000
_cell_angle_beta                  91.8100
_cell_angle_gamma                 90.0000
loop_
_atom_site_label
_atom_site_type_symbol
_atom_site_fract_x
_atom_site_fract_y
_atom_site_fract_z
_atom_site_U_iso_or_equiv
_atom_site_adp_type
_atom_site_occupancy
Cd1    Cd    0.00000   0.00000   0.50000   0.01267  Uiso   1.00
Cd2    Cd    0.00000   0.50000   0.00000   0.01267  Uiso   1.00
As1    As    0.53337   0.86009   0.59476   0.01267  Uiso   1.00
As2    As    0.46663   0.36009   0.90524   0.01267  Uiso   1.00
As3    As    0.46663   0.13991   0.40524   0.01267  Uiso   1.00
As4    As    0.53337   0.63991   0.09476   0.01267  Uiso   1.00
H1     H     0.88780   0.03110   0.86450   0.01267  Uiso   1.00
H2     H     0.16140   0.74830   0.57660   0.01267  Uiso   1.00
H3     H     0.71500   0.64380   0.90010   0.01267  Uiso   1.00
H4     H     0.92670   0.73340   0.67830   0.01267  Uiso   1.00
H5     H     0.07990   0.76510   0.77490   0.01267  Uiso   1.00
H6     H     0.55560   0.08130   0.78780   0.01267  Uiso   1.00
H7     H     0.40070   0.04770   0.69190   0.01267  Uiso   1.00
H8     H     0.28880   0.84770   0.85450   0.01267  Uiso   1.00
H9     H     0.22450   0.92570   0.91260   0.01267  Uiso   1.00
H10    H     0.11220   0.53110   0.63550   0.01267  Uiso   1.00
H11    H     0.83860   0.24830   0.92340   0.01267  Uiso   1.00
H12    H     0.28500   0.14380   0.59990   0.01267  Uiso   1.00
H13    H     0.07330   0.23340   0.82170   0.01267  Uiso   1.00
H14    H     0.92010   0.26510   0.72510   0.01267  Uiso   1.00
H15    H     0.44440   0.58130   0.71220   0.01267  Uiso   1.00
H16    H     0.59930   0.54770   0.80810   0.01267  Uiso   1.00
H17    H     0.71120   0.34770   0.64550   0.01267  Uiso   1.00
H18    H     0.77550   0.42570   0.58740   0.01267  Uiso   1.00
H19    H     0.11220   0.96890   0.13550   0.01267  Uiso   1.00
H20    H     0.83860   0.25170   0.42340   0.01267  Uiso   1.00
H21    H     0.28500   0.35620   0.09990   0.01267  Uiso   1.00
H22    H     0.07330   0.26660   0.32170   0.01267  Uiso   1.00
H23    H     0.92010   0.23490   0.22510   0.01267  Uiso   1.00
H24    H     0.44440   0.91870   0.21220   0.01267  Uiso   1.00
H25    H     0.59930   0.95230   0.30810   0.01267  Uiso   1.00
H26    H     0.71120   0.15230   0.14550   0.01267  Uiso   1.00
H27    H     0.77550   0.07430   0.08740   0.01267  Uiso   1.00
H28    H     0.88780   0.46890   0.36450   0.01267  Uiso   1.00
H29    H     0.16140   0.75170   0.07660   0.01267  Uiso   1.00
H30    H     0.71500   0.85620   0.40010   0.01267  Uiso   1.00
H31    H     0.92670   0.76660   0.17830   0.01267  Uiso   1.00
H32    H     0.07990   0.73490   0.27490   0.01267  Uiso   1.00
H33    H     0.55560   0.41870   0.28780   0.01267  Uiso   1.00
H34    H     0.40070   0.45230   0.19190   0.01267  Uiso   1.00
H35    H     0.28880   0.65230   0.35450   0.01267  Uiso   1.00
H36    H     0.22450   0.57430   0.41260   0.01267  Uiso   1.00
C1     C     0.64980   0.88820   0.67469   0.01267  Uiso   1.00
C2     C     0.85340   0.80360   0.70028   0.01267  Uiso   1.00
C3     C     0.94700   0.82350   0.75811   0.01267  Uiso   1.00
C4     C     0.84530   0.93010   0.79198   0.01267  Uiso   1.00
C5     C     0.63310   0.01230   0.76583   0.01267  Uiso   1.00
C6     C     0.53920   0.99180   0.70837   0.01267  Uiso   1.00
C7     C     0.13970   0.87340   0.88052   0.01267  Uiso   1.00
C8     C     0.01540   0.74630   0.90630   0.01267  Uiso   1.00
C9     C     0.35020   0.38820   0.82531   0.01267  Uiso   1.00
C10    C     0.14660   0.30360   0.79972   0.01267  Uiso   1.00
C11    C     0.05300   0.32350   0.74189   0.01267  Uiso   1.00
C12    C     0.15470   0.43010   0.70802   0.01267  Uiso   1.00
C13    C     0.36690   0.51230   0.73417   0.01267  Uiso   1.00
C14    C     0.46080   0.49180   0.79163   0.01267  Uiso   1.00
C15    C     0.86030   0.37340   0.61948   0.01267  Uiso   1.00
C16    C     0.98460   0.24630   0.59370   0.01267  Uiso   1.00
C17    C     0.35020   0.11180   0.32531   0.01267  Uiso   1.00
C18    C     0.14660   0.19640   0.29972   0.01267  Uiso   1.00
C19    C     0.05300   0.17650   0.24189   0.01267  Uiso   1.00
C20    C     0.15470   0.06990   0.20802   0.01267  Uiso   1.00
C21    C     0.36690   0.98770   0.23417   0.01267  Uiso   1.00
C22    C     0.46080   0.00820   0.29163   0.01267  Uiso   1.00
C23    C     0.86030   0.12660   0.11948   0.01267  Uiso   1.00
C24    C     0.98460   0.25370   0.09370   0.01267  Uiso   1.00
C25    C     0.64980   0.61180   0.17469   0.01267  Uiso   1.00
C26    C     0.85340   0.69640   0.20028   0.01267  Uiso   1.00
C27    C     0.94700   0.67650   0.25811   0.01267  Uiso   1.00
C28    C     0.84530   0.56990   0.29198   0.01267  Uiso   1.00
C29    C     0.63310   0.48770   0.26583   0.01267  Uiso   1.00
C30    C     0.53920   0.50820   0.20837   0.01267  Uiso   1.00
C31    C     0.13970   0.62660   0.38052   0.01267  Uiso   1.00
C32    C     0.01540   0.75370   0.40630   0.01267  Uiso   1.00
N1     N     0.94460   0.95850   0.84787   0.01267  Uiso   1.00
N2     N     0.05540   0.45850   0.65213   0.01267  Uiso   1.00
N3     N     0.05540   0.04150   0.15213   0.01267  Uiso   1.00
N4     N     0.94460   0.54150   0.34787   0.01267  Uiso   1.00
O1     O     0.80670   0.82260   0.55324   0.01267  Uiso   1.00
O2     O     0.31170   0.72140   0.59090   0.01267  Uiso   1.00
O3     O     0.35200   0.99150   0.56782   0.01267  Uiso   1.00
O4     O     0.76280   0.71650   0.88644   0.01267  Uiso   1.00
O5     O     0.15150   0.67910   0.94235   0.01267  Uiso   1.00
O6     O     0.19330   0.32260   0.94676   0.01267  Uiso   1.00
O7     O     0.68830   0.22140   0.90910   0.01267  Uiso   1.00
O8     O     0.64800   0.49150   0.93218   0.01267  Uiso   1.00
O9     O     0.23720   0.21650   0.61356   0.01267  Uiso   1.00
O10    O     0.84850   0.17910   0.55765   0.01267  Uiso   1.00
O11    O     0.19330   0.17740   0.44676   0.01267  Uiso   1.00
O12    O     0.68830   0.27860   0.40910   0.01267  Uiso   1.00
O13    O     0.64800   0.00850   0.43218   0.01267  Uiso   1.00
O14    O     0.23720   0.28350   0.11356   0.01267  Uiso   1.00
O15    O     0.84850   0.32090   0.05765   0.01267  Uiso   1.00
O16    O     0.80670   0.67740   0.05324   0.01267  Uiso   1.00
O17    O     0.31170   0.77860   0.09090   0.01267  Uiso   1.00
O18    O     0.35200   0.50850   0.06782   0.01267  Uiso   1.00
O19    O     0.76280   0.78350   0.38644   0.01267  Uiso   1.00
O20    O     0.15150   0.82090   0.44235   0.01267  Uiso   1.00
