data_EQOCIW_clean
_audit_creation_date              2014-07-02
_audit_creation_method            'Materials Studio'
_symmetry_space_group_name_H-M    'P1'
_symmetry_Int_Tables_number       1
_symmetry_cell_setting            triclinic
loop_
_symmetry_equiv_pos_as_xyz
  x,y,z
_cell_length_a                    8.8830
_cell_length_b                    9.9355
_cell_length_c                    14.5052
_cell_angle_alpha                 82.1326
_cell_angle_beta                  72.1699
_cell_angle_gamma                 63.4466
loop_
_atom_site_label
_atom_site_type_symbol
_atom_site_fract_x
_atom_site_fract_y
_atom_site_fract_z
_atom_site_U_iso_or_equiv
_atom_site_adp_type
_atom_site_occupancy
Co1    Co    0.02500   0.58116   0.87242   0.01267  Uiso   1.00
Co2    Co    0.47858   0.41884   0.12758   0.01267  Uiso   1.00
Co3    Co    0.14742   0.08116   0.62758   0.01267  Uiso   1.00
Co4    Co    0.85616   0.91884   0.37242   0.01267  Uiso   1.00
H1     H     0.73470   0.47280   0.95040   0.01267  Uiso   1.00
H2     H     0.82520   0.71400   0.09860   0.01267  Uiso   1.00
H3     H     0.60330   0.64840   0.20120   0.01267  Uiso   1.00
H4     H     0.20450   0.25700   0.76840   0.01267  Uiso   1.00
H5     H     0.79750   0.61600   0.73200   0.01267  Uiso   1.00
H6     H     0.84160   0.41780   0.63300   0.01267  Uiso   1.00
H7     H     0.15790   0.52720   0.04960   0.01267  Uiso   1.00
H8     H     0.63780   0.28600   0.90140   0.01267  Uiso   1.00
H9     H     0.45290   0.35160   0.79880   0.01267  Uiso   1.00
H10    H     0.22990   0.74300   0.23160   0.01267  Uiso   1.00
H11    H     0.14550   0.38400   0.26800   0.01267  Uiso   1.00
H12    H     0.89240   0.58220   0.36700   0.01267  Uiso   1.00
H13    H     0.93510   0.97280   0.54960   0.01267  Uiso   1.00
H14    H     0.17380   0.21400   0.40140   0.01267  Uiso   1.00
H15    H     0.05450   0.14840   0.29880   0.01267  Uiso   1.00
H16    H     0.22290   0.75700   0.73160   0.01267  Uiso   1.00
H17    H     0.77950   0.11600   0.76800   0.01267  Uiso   1.00
H18    H     0.72460   0.91780   0.86700   0.01267  Uiso   1.00
H19    H     0.45750   0.02720   0.45040   0.01267  Uiso   1.00
H20    H     0.78920   0.78600   0.59860   0.01267  Uiso   1.00
H21    H     0.50170   0.85160   0.70120   0.01267  Uiso   1.00
H22    H     0.71150   0.24300   0.26840   0.01267  Uiso   1.00
H23    H     0.66350   0.88400   0.23200   0.01267  Uiso   1.00
H24    H     0.50940   0.08220   0.13300   0.01267  Uiso   1.00
C1     C     0.73220   0.52200   0.00120   0.01267  Uiso   1.00
C2     C     0.78070   0.65560   0.08100   0.01267  Uiso   1.00
C3     C     0.66090   0.61760   0.13720   0.01267  Uiso   1.00
C4     C     0.10910   0.32300   0.74620   0.01267  Uiso   1.00
C5     C     0.88650   0.51880   0.72740   0.01267  Uiso   1.00
C6     C     0.91120   0.41000   0.67200   0.01267  Uiso   1.00
C7     C     0.25540   0.47800   0.99880   0.01267  Uiso   1.00
C8     C     0.51730   0.34440   0.91900   0.01267  Uiso   1.00
C9     C     0.41570   0.38240   0.86280   0.01267  Uiso   1.00
C10    C     0.17830   0.67700   0.25380   0.01267  Uiso   1.00
C11    C     0.13270   0.48120   0.27260   0.01267  Uiso   1.00
C12    C     0.99320   0.59000   0.32800   0.01267  Uiso   1.00
C13    C     0.98340   0.02200   0.49880   0.01267  Uiso   1.00
C14    C     0.11170   0.15560   0.41900   0.01267  Uiso   1.00
C15    C     0.04810   0.11760   0.36280   0.01267  Uiso   1.00
C16    C     0.10530   0.82300   0.75380   0.01267  Uiso   1.00
C17    C     0.86390   0.01880   0.77260   0.01267  Uiso   1.00
C18    C     0.83320   0.91000   0.82800   0.01267  Uiso   1.00
C19    C     0.50420   0.97800   0.50120   0.01267  Uiso   1.00
C20    C     0.68630   0.84440   0.58100   0.01267  Uiso   1.00
C21    C     0.52850   0.88240   0.63720   0.01267  Uiso   1.00
C22    C     0.68210   0.17700   0.24620   0.01267  Uiso   1.00
C23    C     0.65530   0.98120   0.22740   0.01267  Uiso   1.00
C24    C     0.57120   0.09000   0.17200   0.01267  Uiso   1.00
N1     N     0.82990   0.59540   0.99260   0.01267  Uiso   1.00
N2     N     0.63070   0.52700   0.09040   0.01267  Uiso   1.00
N3     N     0.01080   0.46660   0.77640   0.01267  Uiso   1.00
N4     N     0.05624   0.28540   0.68232   0.01267  Uiso   1.00
N5     N     0.41790   0.40460   0.00740   0.01267  Uiso   1.00
N6     N     0.24810   0.47300   0.90960   0.01267  Uiso   1.00
N7     N     0.25380   0.53340   0.22360   0.01267  Uiso   1.00
N8     N     0.02396   0.71460   0.31768   0.01267  Uiso   1.00
N9     N     0.07250   0.09540   0.50740   0.01267  Uiso   1.00
N10    N     0.97110   0.02700   0.40960   0.01267  Uiso   1.00
N11    N     0.03720   0.96660   0.72360   0.01267  Uiso   1.00
N12    N     0.98856   0.78540   0.81768   0.01267  Uiso   1.00
N13    N     0.67530   0.90460   0.49260   0.01267  Uiso   1.00
N14    N     0.40770   0.97300   0.59040   0.01267  Uiso   1.00
N15    N     0.72740   0.03340   0.27640   0.01267  Uiso   1.00
N16    N     0.59164   0.21460   0.18232   0.01267  Uiso   1.00
