data_image0
_cell_length_a       14.7409
_cell_length_b       15.3429
_cell_length_c       22.1924
_cell_angle_alpha    90
_cell_angle_beta     103.716
_cell_angle_gamma    90

_symmetry_space_group_name_H-M    "P 1"
_symmetry_int_tables_number       1

loop_
  _symmetry_equiv_pos_as_xyz
  'x, y, z'

loop_
  _atom_site_label
  _atom_site_occupancy
  _atom_site_fract_x
  _atom_site_fract_y
  _atom_site_fract_z
  _atom_site_thermal_displace_type
  _atom_site_B_iso_or_equiv
  _atom_site_type_symbol
  C1       1.0000 0.16580  0.67440  0.16440  Biso   1.000  C
  H1       1.0000 0.16630  0.61420  0.15940  Biso   1.000  H
  C2       1.0000 0.16680  0.73010  0.11310  Biso   1.000  C
  O1       1.0000 0.16460  0.87610  0.07600  Biso   1.000  O
  C3       1.0000 0.16540  0.82110  0.11780  Biso   1.000  C
  C4       1.0000 0.16130  0.85220  0.18080  Biso   1.000  C
  H2       1.0000 0.15670  0.91180  0.18710  Biso   1.000  H
  C5       1.0000 0.16400  0.79810  0.22920  Biso   1.000  C
  H3       1.0000 0.16560  0.82050  0.26830  Biso   1.000  H
  C6       1.0000 0.16430  0.70830  0.21990  Biso   1.000  C
  N1       1.0000 0.16350  0.64780  0.26610  Biso   1.000  N
  O2       1.0000 0.02060  0.78870  0.75480  Biso   1.000  O
  C7       1.0000 0.94450  0.79510  0.77320  Biso   1.000  C
  C8       1.0000 0.86150  0.78480  0.73100  Biso   1.000  C
  H4       1.0000 0.86370  0.77280  0.69030  Biso   1.000  H
  C9       1.0000 0.94340  0.81720  0.83510  Biso   1.000  C
  C10      1.0000 0.85250  0.81680  0.84950  Biso   1.000  C
  H5       1.0000 0.84970  0.82100  0.89080  Biso   1.000  H
  C11      1.0000 0.77630  0.79040  0.74320  Biso   1.000  C
  H6       1.0000 0.72300  0.78100  0.71180  Biso   1.000  H
  C12      1.0000 0.76820  0.81060  0.80400  Biso   1.000  C
  N2       1.0000 0.68860  0.81060  0.82710  Biso   1.000  N
  Zn1      1.0000 0.15394  0.59981  0.95404  Biso   1.000  Zn
  O3       1.0000 0.16680  0.60300  0.04850  Biso   1.000  O
  O4       1.0000 0.15920  0.72870  0.00120  Biso   1.000  O
  C13      1.0000 0.16380  0.68700  0.05340  Biso   1.000  C
  Zn2      1.0000 0.14892  0.86595  0.98783  Biso   1.000  Zn
  O5       1.0000 0.10530  0.81850  0.88020  Biso   1.000  O
  C14      1.0000 0.02170  0.82840  0.88730  Biso   1.000  C
  N3       1.0000 0.14500  0.00640  0.98360  Biso   1.000  N
  C15      1.0000 0.21570  0.05300  0.02320  Biso   1.000  C
  H7       1.0000 0.26070  0.02370  0.05270  Biso   1.000  H
  C16      1.0000 0.21900  0.14320  0.01860  Biso   1.000  C
  H8       1.0000 0.26630  0.17430  0.04510  Biso   1.000  H
  C17      1.0000 0.15170  0.18690  0.97450  Biso   1.000  C
  C18      1.0000 0.08100  0.14040  0.93490  Biso   1.000  C
  H9       1.0000 0.03600  0.16960  0.90540  Biso   1.000  H
  C19      1.0000 0.07770  0.05010  0.93950  Biso   1.000  C
  H10      1.0000 0.03040  0.01900  0.91300  Biso   1.000  H
  O6       1.0000 0.01080  0.85610  0.93910  Biso   1.000  O
  N4       1.0000 0.15640  0.46380  0.95740  Biso   1.000  N
  C20      1.0000 0.23970  0.41910  0.97920  Biso   1.000  C
  H11      1.0000 0.29570  0.44970  0.99070  Biso   1.000  H
  C21      1.0000 0.23950  0.32880  0.98390  Biso   1.000  C
  H12      1.0000 0.29520  0.29890  0.99850  Biso   1.000  H
  C22      1.0000 0.15580  0.28310  0.96670  Biso   1.000  C
  C23      1.0000 0.07250  0.32780  0.94490  Biso   1.000  C
  H13      1.0000 0.01660  0.29730  0.93340  Biso   1.000  H
  C24      1.0000 0.07270  0.41820  0.94030  Biso   1.000  C
  H14      1.0000 0.01700  0.44810  0.92570  Biso   1.000  H
  Zn3      1.0000 0.15251  0.80752  0.80565  Biso   1.000  Zn
  C25      1.0000 0.28030  0.74830  0.72860  Biso   1.000  C
  C26      1.0000 0.35830  0.79180  0.84100  Biso   1.000  C
  C27      1.0000 0.36460  0.77130  0.78000  Biso   1.000  C
  C28      1.0000 0.45000  0.77150  0.76220  Biso   1.000  C
  H15      1.0000 0.45290  0.75590  0.72220  Biso   1.000  H
  C29      1.0000 0.53000  0.79580  0.80620  Biso   1.000  C
  C30      1.0000 0.52690  0.81250  0.86790  Biso   1.000  C
  H16      1.0000 0.58160  0.82460  0.89740  Biso   1.000  H
  C31      1.0000 0.44350  0.81110  0.88430  Biso   1.000  C
  H17      1.0000 0.44230  0.82300  0.92520  Biso   1.000  H
  C32      1.0000 0.15280  0.64800  0.53240  Biso   1.000  C
  C33      1.0000 0.15630  0.60530  0.47370  Biso   1.000  C
  C34      1.0000 0.15890  0.65250  0.42180  Biso   1.000  C
  H18      1.0000 0.15880  0.71280  0.42550  Biso   1.000  H
  C35      1.0000 0.16160  0.61850  0.36390  Biso   1.000  C
  C36      1.0000 0.16330  0.52830  0.35970  Biso   1.000  C
  H19      1.0000 0.16580  0.50340  0.32200  Biso   1.000  H
  C37      1.0000 0.16150  0.47230  0.41020  Biso   1.000  C
  H20      1.0000 0.16200  0.41210  0.40520  Biso   1.000  H
  C38      1.0000 0.15860  0.50990  0.47030  Biso   1.000  C
  N5       1.0000 0.16290  0.67410  0.31700  Biso   1.000  N
  N6       1.0000 0.61500  0.79330  0.78670  Biso   1.000  N
  O7       1.0000 0.27980  0.78790  0.86070  Biso   1.000  O
  O8       1.0000 0.19810  0.74550  0.73850  Biso   1.000  O
  O9       1.0000 0.28830  0.73210  0.67550  Biso   1.000  O
  O10      1.0000 0.15150  0.60790  0.58330  Biso   1.000  O
  O11      1.0000 0.14580  0.72910  0.53200  Biso   1.000  O
  O12      1.0000 0.15270  0.45610  0.51260  Biso   1.000  O
  C39      1.0000 0.22740  0.07720  0.80860  Biso   1.000  C
  H21      1.0000 0.28170  0.10630  0.82810  Biso   1.000  H
  C40      1.0000 0.23260  0.99100  0.80540  Biso   1.000  C
  H22      1.0000 0.29080  0.96410  0.81300  Biso   1.000  H
  N7       1.0000 0.15690  0.94360  0.79160  Biso   1.000  N
  C41      1.0000 0.08190  0.98750  0.77430  Biso   1.000  C
  H23      1.0000 0.02700  0.95520  0.76440  Biso   1.000  H
  C42      1.0000 0.06500  0.26630  0.75960  Biso   1.000  C
  H24      1.0000 0.01090  0.23560  0.74160  Biso   1.000  H
  C43      1.0000 0.06600  0.35620  0.75880  Biso   1.000  C
  H25      1.0000 0.01290  0.38590  0.73780  Biso   1.000  H
  C44      1.0000 0.15070  0.22050  0.78920  Biso   1.000  C
  N8       1.0000 0.14430  0.40330  0.78860  Biso   1.000  N
  C45      1.0000 0.22150  0.27220  0.82140  Biso   1.000  C
  H26      1.0000 0.27490  0.24550  0.84500  Biso   1.000  H
  C46      1.0000 0.21720  0.35960  0.82050  Biso   1.000  C
  H27      1.0000 0.26780  0.39080  0.84330  Biso   1.000  H
  C47      1.0000 0.07200  0.07050  0.76870  Biso   1.000  C
  H28      1.0000 0.01370  0.09560  0.75310  Biso   1.000  H
  C48      1.0000 0.15580  0.12380  0.78760  Biso   1.000  C
  C49      1.0000 0.02780  0.59990  0.85180  Biso   1.000  C
  C50      1.0000 0.94320  0.58510  0.79990  Biso   1.000  C
  C51      1.0000 0.85740  0.58750  0.81560  Biso   1.000  C
  H29      1.0000 0.85650  0.59900  0.85660  Biso   1.000  H
  C52      1.0000 0.77220  0.57360  0.77280  Biso   1.000  C
  C53      1.0000 0.77800  0.55030  0.71400  Biso   1.000  C
  H30      1.0000 0.72340  0.53520  0.68530  Biso   1.000  H
  C54      1.0000 0.85860  0.54840  0.69630  Biso   1.000  C
  H31      1.0000 0.85820  0.53620  0.65520  Biso   1.000  H
  C55      1.0000 0.94720  0.56550  0.74070  Biso   1.000  C
  C56      1.0000 0.28820  0.51420  0.69390  Biso   1.000  C
  C57      1.0000 0.36980  0.53790  0.74710  Biso   1.000  C
  C58      1.0000 0.36090  0.55370  0.80700  Biso   1.000  C
  C59      1.0000 0.44720  0.57410  0.85410  Biso   1.000  C
  H32      1.0000 0.44450  0.58800  0.89440  Biso   1.000  H
  C60      1.0000 0.53090  0.57240  0.83810  Biso   1.000  C
  H33      1.0000 0.58590  0.58050  0.86830  Biso   1.000  H
  C61      1.0000 0.53410  0.55890  0.77730  Biso   1.000  C
  C62      1.0000 0.45660  0.53600  0.73330  Biso   1.000  C
  H34      1.0000 0.46190  0.51920  0.69400  Biso   1.000  H
  N9       1.0000 0.62060  0.55960  0.75700  Biso   1.000  N
  N10      1.0000 0.69120  0.57670  0.79700  Biso   1.000  N
  O13      1.0000 0.27880  0.55650  0.82520  Biso   1.000  O
  O14      1.0000 0.20330  0.52320  0.69890  Biso   1.000  O
  O15      1.0000 0.30300  0.48780  0.64520  Biso   1.000  O
  O16      1.0000 0.01910  0.61150  0.90540  Biso   1.000  O
  O17      1.0000 0.10910  0.59610  0.84230  Biso   1.000  O
  O18      1.0000 0.02320  0.55710  0.72040  Biso   1.000  O
  Zn4      1.0000 0.15240  0.53879  0.77490  Biso   1.000  Zn
  Zn5      1.0000 0.15737  0.47769  0.59980  Biso   1.000  Zn
  C63      1.0000 0.23060  0.29420  0.64750  Biso   1.000  C
  H35      1.0000 0.28180  0.32370  0.67130  Biso   1.000  H
  C64      1.0000 0.23310  0.20630  0.64820  Biso   1.000  C
  H36      1.0000 0.28700  0.17860  0.66990  Biso   1.000  H
  C65      1.0000 0.16260  0.15880  0.61960  Biso   1.000  C
  C66      1.0000 0.08630  0.20540  0.58860  Biso   1.000  C
  H37      1.0000 0.03260  0.17600  0.56810  Biso   1.000  H
  C67      1.0000 0.08800  0.29480  0.58730  Biso   1.000  C
  H38      1.0000 0.03490  0.32360  0.56540  Biso   1.000  H
  C68      1.0000 0.23310  0.92090  0.63620  Biso   1.000  C
  H39      1.0000 0.28970  0.89110  0.64500  Biso   1.000  H
  C69      1.0000 0.23830  0.01130  0.63820  Biso   1.000  C
  H40      1.0000 0.29580  0.03770  0.65390  Biso   1.000  H
  C70      1.0000 0.16030  0.06320  0.61770  Biso   1.000  C
  C71      1.0000 0.07940  0.01490  0.60530  Biso   1.000  C
  H41      1.0000 0.02220  0.04360  0.59480  Biso   1.000  H
  C72      1.0000 0.08070  0.92430  0.60810  Biso   1.000  C
  H42      1.0000 0.02330  0.89590  0.59860  Biso   1.000  H
  N11      1.0000 0.16010  0.34210  0.61510  Biso   1.000  N
  N12      1.0000 0.15870  0.87350  0.62350  Biso   1.000  N
  Zn6      1.0000 0.15565  0.74224  0.62598  Biso   1.000  Zn
  C73      1.0000 0.83420  0.17440  0.83560  Biso   1.000  C
  H43      1.0000 0.83370  0.11420  0.84060  Biso   1.000  H
  C74      1.0000 0.83320  0.23010  0.88690  Biso   1.000  C
  O19      1.0000 0.83540  0.37610  0.92400  Biso   1.000  O
  C75      1.0000 0.83460  0.32110  0.88220  Biso   1.000  C
  C76      1.0000 0.83870  0.35220  0.81920  Biso   1.000  C
  H44      1.0000 0.84330  0.41180  0.81290  Biso   1.000  H
  C77      1.0000 0.83600  0.29810  0.77080  Biso   1.000  C
  H45      1.0000 0.83440  0.32050  0.73170  Biso   1.000  H
  C78      1.0000 0.83570  0.20830  0.78010  Biso   1.000  C
  N13      1.0000 0.83650  0.14780  0.73390  Biso   1.000  N
  O20      1.0000 0.97940  0.28870  0.24520  Biso   1.000  O
  C79      1.0000 0.05550  0.29510  0.22680  Biso   1.000  C
  C80      1.0000 0.13850  0.28480  0.26900  Biso   1.000  C
  H46      1.0000 0.13630  0.27280  0.30970  Biso   1.000  H
  C81      1.0000 0.05660  0.31720  0.16490  Biso   1.000  C
  C82      1.0000 0.14750  0.31680  0.15050  Biso   1.000  C
  H47      1.0000 0.15030  0.32100  0.10920  Biso   1.000  H
  C83      1.0000 0.22370  0.29040  0.25680  Biso   1.000  C
  H48      1.0000 0.27700  0.28100  0.28820  Biso   1.000  H
  C84      1.0000 0.23180  0.31060  0.19600  Biso   1.000  C
  N14      1.0000 0.31140  0.31060  0.17290  Biso   1.000  N
  Zn7      1.0000 0.84606  0.09981  0.04596  Biso   1.000  Zn
  O21      1.0000 0.83320  0.10300  0.95150  Biso   1.000  O
  O22      1.0000 0.84080  0.22870  0.99880  Biso   1.000  O
  C85      1.0000 0.83620  0.18700  0.94660  Biso   1.000  C
  Zn8      1.0000 0.85108  0.36595  0.01217  Biso   1.000  Zn
  O23      1.0000 0.89470  0.31850  0.11980  Biso   1.000  O
  C86      1.0000 0.97830  0.32840  0.11270  Biso   1.000  C
  N15      1.0000 0.85500  0.50640  0.01640  Biso   1.000  N
  C87      1.0000 0.78430  0.55300  0.97680  Biso   1.000  C
  H49      1.0000 0.73930  0.52370  0.94730  Biso   1.000  H
  C88      1.0000 0.78100  0.64320  0.98140  Biso   1.000  C
  H50      1.0000 0.73370  0.67430  0.95490  Biso   1.000  H
  C89      1.0000 0.84830  0.68690  0.02550  Biso   1.000  C
  C90      1.0000 0.91900  0.64040  0.06510  Biso   1.000  C
  H51      1.0000 0.96400  0.66960  0.09460  Biso   1.000  H
  C91      1.0000 0.92230  0.55010  0.06050  Biso   1.000  C
  H52      1.0000 0.96960  0.51900  0.08700  Biso   1.000  H
  O24      1.0000 0.98920  0.35610  0.06090  Biso   1.000  O
  N16      1.0000 0.84360  0.96380  0.04260  Biso   1.000  N
  C92      1.0000 0.76030  0.91910  0.02080  Biso   1.000  C
  H53      1.0000 0.70430  0.94970  0.00930  Biso   1.000  H
  C93      1.0000 0.76050  0.82880  0.01610  Biso   1.000  C
  H54      1.0000 0.70480  0.79890  0.00150  Biso   1.000  H
  C94      1.0000 0.84420  0.78310  0.03330  Biso   1.000  C
  C95      1.0000 0.92750  0.82780  0.05510  Biso   1.000  C
  H55      1.0000 0.98340  0.79730  0.06660  Biso   1.000  H
  C96      1.0000 0.92730  0.91820  0.05970  Biso   1.000  C
  H56      1.0000 0.98300  0.94810  0.07430  Biso   1.000  H
  Zn9      1.0000 0.84749  0.30752  0.19435  Biso   1.000  Zn
  C97      1.0000 0.71970  0.24830  0.27140  Biso   1.000  C
  C98      1.0000 0.64170  0.29180  0.15900  Biso   1.000  C
  C99      1.0000 0.63540  0.27130  0.22000  Biso   1.000  C
  C100     1.0000 0.55000  0.27150  0.23780  Biso   1.000  C
  H57      1.0000 0.54710  0.25590  0.27780  Biso   1.000  H
  C101     1.0000 0.47000  0.29580  0.19380  Biso   1.000  C
  C102     1.0000 0.47310  0.31250  0.13210  Biso   1.000  C
  H58      1.0000 0.41840  0.32460  0.10260  Biso   1.000  H
  C103     1.0000 0.55650  0.31110  0.11570  Biso   1.000  C
  H59      1.0000 0.55770  0.32300  0.07480  Biso   1.000  H
  C104     1.0000 0.84720  0.14800  0.46760  Biso   1.000  C
  C105     1.0000 0.84370  0.10530  0.52630  Biso   1.000  C
  C106     1.0000 0.84110  0.15250  0.57820  Biso   1.000  C
  H60      1.0000 0.84120  0.21280  0.57450  Biso   1.000  H
  C107     1.0000 0.83840  0.11850  0.63610  Biso   1.000  C
  C108     1.0000 0.83670  0.02830  0.64030  Biso   1.000  C
  H61      1.0000 0.83420  0.00340  0.67800  Biso   1.000  H
  C109     1.0000 0.83850  0.97230  0.58980  Biso   1.000  C
  H62      1.0000 0.83800  0.91210  0.59480  Biso   1.000  H
  C110     1.0000 0.84140  0.00990  0.52970  Biso   1.000  C
  N17      1.0000 0.83710  0.17410  0.68300  Biso   1.000  N
  N18      1.0000 0.38500  0.29330  0.21330  Biso   1.000  N
  O25      1.0000 0.72020  0.28790  0.13930  Biso   1.000  O
  O26      1.0000 0.80190  0.24550  0.26150  Biso   1.000  O
  O27      1.0000 0.71170  0.23210  0.32450  Biso   1.000  O
  O28      1.0000 0.84850  0.10790  0.41670  Biso   1.000  O
  O29      1.0000 0.85420  0.22910  0.46800  Biso   1.000  O
  O30      1.0000 0.84730  0.95610  0.48740  Biso   1.000  O
  C111     1.0000 0.77260  0.57720  0.19140  Biso   1.000  C
  H63      1.0000 0.71830  0.60630  0.17190  Biso   1.000  H
  C112     1.0000 0.76740  0.49100  0.19460  Biso   1.000  C
  H64      1.0000 0.70920  0.46410  0.18700  Biso   1.000  H
  N19      1.0000 0.84310  0.44360  0.20840  Biso   1.000  N
  C113     1.0000 0.91810  0.48750  0.22570  Biso   1.000  C
  H65      1.0000 0.97300  0.45520  0.23560  Biso   1.000  H
  C114     1.0000 0.93500  0.76630  0.24040  Biso   1.000  C
  H66      1.0000 0.98910  0.73560  0.25840  Biso   1.000  H
  C115     1.0000 0.93400  0.85620  0.24120  Biso   1.000  C
  H67      1.0000 0.98710  0.88590  0.26220  Biso   1.000  H
  C116     1.0000 0.84930  0.72050  0.21080  Biso   1.000  C
  N20      1.0000 0.85570  0.90330  0.21140  Biso   1.000  N
  C117     1.0000 0.77850  0.77220  0.17860  Biso   1.000  C
  H68      1.0000 0.72510  0.74550  0.15500  Biso   1.000  H
  C118     1.0000 0.78280  0.85960  0.17950  Biso   1.000  C
  H69      1.0000 0.73220  0.89080  0.15670  Biso   1.000  H
  C119     1.0000 0.92800  0.57050  0.23130  Biso   1.000  C
  H70      1.0000 0.98630  0.59560  0.24690  Biso   1.000  H
  C120     1.0000 0.84420  0.62380  0.21240  Biso   1.000  C
  C121     1.0000 0.97220  0.09990  0.14820  Biso   1.000  C
  C122     1.0000 0.05680  0.08510  0.20010  Biso   1.000  C
  C123     1.0000 0.14260  0.08750  0.18440  Biso   1.000  C
  H71      1.0000 0.14350  0.09900  0.14340  Biso   1.000  H
  C124     1.0000 0.22780  0.07360  0.22720  Biso   1.000  C
  C125     1.0000 0.22200  0.05030  0.28600  Biso   1.000  C
  H72      1.0000 0.27660  0.03520  0.31470  Biso   1.000  H
  C126     1.0000 0.14140  0.04840  0.30370  Biso   1.000  C
  H73      1.0000 0.14180  0.03620  0.34480  Biso   1.000  H
  C127     1.0000 0.05280  0.06550  0.25930  Biso   1.000  C
  C128     1.0000 0.71180  0.01420  0.30610  Biso   1.000  C
  C129     1.0000 0.63020  0.03790  0.25290  Biso   1.000  C
  C130     1.0000 0.63910  0.05370  0.19300  Biso   1.000  C
  C131     1.0000 0.55280  0.07410  0.14590  Biso   1.000  C
  H74      1.0000 0.55550  0.08800  0.10560  Biso   1.000  H
  C132     1.0000 0.46910  0.07240  0.16190  Biso   1.000  C
  H75      1.0000 0.41410  0.08050  0.13170  Biso   1.000  H
  C133     1.0000 0.46590  0.05890  0.22270  Biso   1.000  C
  C134     1.0000 0.54340  0.03600  0.26670  Biso   1.000  C
  H76      1.0000 0.53810  0.01920  0.30600  Biso   1.000  H
  N21      1.0000 0.37940  0.05960  0.24300  Biso   1.000  N
  N22      1.0000 0.30880  0.07670  0.20300  Biso   1.000  N
  O31      1.0000 0.72120  0.05650  0.17480  Biso   1.000  O
  O32      1.0000 0.79670  0.02320  0.30110  Biso   1.000  O
  O33      1.0000 0.69700  0.98780  0.35480  Biso   1.000  O
  O34      1.0000 0.98090  0.11150  0.09460  Biso   1.000  O
  O35      1.0000 0.89090  0.09610  0.15770  Biso   1.000  O
  O36      1.0000 0.97680  0.05710  0.27960  Biso   1.000  O
  Zn10     1.0000 0.84760  0.03879  0.22510  Biso   1.000  Zn
  Zn11     1.0000 0.84263  0.97769  0.40020  Biso   1.000  Zn
  C135     1.0000 0.76940  0.79420  0.35250  Biso   1.000  C
  H77      1.0000 0.71820  0.82370  0.32870  Biso   1.000  H
  C136     1.0000 0.76690  0.70630  0.35180  Biso   1.000  C
  H78      1.0000 0.71300  0.67860  0.33010  Biso   1.000  H
  C137     1.0000 0.83740  0.65880  0.38040  Biso   1.000  C
  C138     1.0000 0.91370  0.70540  0.41140  Biso   1.000  C
  H79      1.0000 0.96740  0.67600  0.43190  Biso   1.000  H
  C139     1.0000 0.91200  0.79480  0.41270  Biso   1.000  C
  H80      1.0000 0.96510  0.82360  0.43460  Biso   1.000  H
  C140     1.0000 0.76690  0.42090  0.36380  Biso   1.000  C
  H81      1.0000 0.71030  0.39110  0.35500  Biso   1.000  H
  C141     1.0000 0.76170  0.51130  0.36180  Biso   1.000  C
  H82      1.0000 0.70420  0.53770  0.34610  Biso   1.000  H
  C142     1.0000 0.83970  0.56320  0.38230  Biso   1.000  C
  C143     1.0000 0.92060  0.51490  0.39470  Biso   1.000  C
  H83      1.0000 0.97780  0.54360  0.40520  Biso   1.000  H
  C144     1.0000 0.91930  0.42430  0.39190  Biso   1.000  C
  H84      1.0000 0.97670  0.39590  0.40140  Biso   1.000  H
  N23      1.0000 0.83990  0.84210  0.38490  Biso   1.000  N
  N24      1.0000 0.84130  0.37350  0.37650  Biso   1.000  N
  Zn12     1.0000 0.84435  0.24224  0.37402  Biso   1.000  Zn
