data_image0
_cell_length_a       8.603
_cell_length_b       15.476
_cell_length_c       16.504
_cell_angle_alpha    90
_cell_angle_beta     96.877
_cell_angle_gamma    90

_symmetry_space_group_name_H-M    "P 1"
_symmetry_int_tables_number       1

loop_
  _symmetry_equiv_pos_as_xyz
  'x, y, z'

loop_
  _atom_site_label
  _atom_site_occupancy
  _atom_site_fract_x
  _atom_site_fract_y
  _atom_site_fract_z
  _atom_site_thermal_displace_type
  _atom_site_B_iso_or_equiv
  _atom_site_type_symbol
  Sc1      1.0000 0.63355  0.79805  0.16364  Biso   1.000  Sc
  Sc2      1.0000 0.49585  0.89323  0.52210  Biso   1.000  Sc
  Sc3      1.0000 0.02152  0.76914  0.29943  Biso   1.000  Sc
  P1       1.0000 0.22760  0.76200  0.13355  Biso   1.000  P
  P2       1.0000 0.76411  0.78366  0.97600  Biso   1.000  P
  P3       1.0000 0.81649  0.60698  0.19758  Biso   1.000  P
  P4       1.0000 0.66826  0.79002  0.37165  Biso   1.000  P
  O1       1.0000 0.37080  0.99391  0.45826  Biso   1.000  O
  O2       1.0000 0.60350  0.86154  0.42101  Biso   1.000  O
  O3       1.0000 0.81470  0.68918  0.98960  Biso   1.000  O
  O4       1.0000 0.58800  0.79072  0.28426  Biso   1.000  O
  O5       1.0000 0.66050  0.81028  0.04101  Biso   1.000  O
  O6       1.0000 0.90750  0.57373  0.13045  Biso   1.000  O
  O7       1.0000 0.15460  0.68584  0.08558  Biso   1.000  O
  O8       1.0000 0.84620  0.79337  0.37542  Biso   1.000  O
  O9       1.0000 0.86650  0.81877  0.20413  Biso   1.000  O
  O10      1.0000 0.92460  0.64688  0.26745  Biso   1.000  O
  O11      1.0000 0.66840  0.79455  0.89177  Biso   1.000  O
  O12      1.0000 0.40250  0.76500  0.12961  Biso   1.000  O
  O13      1.0000 0.90910  0.84227  0.98163  Biso   1.000  O
  O14      1.0000 0.63540  0.69990  0.40934  Biso   1.000  O
  H1       1.0000 0.54530  0.69870  0.42090  Biso   1.000  H
  O15      1.0000 0.68320  0.66644  0.16491  Biso   1.000  O
  O16      1.0000 0.19300  0.76060  0.22181  Biso   1.000  O
  O17      1.0000 0.16000  0.84756  0.09250  Biso   1.000  O
  H2       1.0000 0.07550  0.83750  0.06560  Biso   1.000  H
  O18      1.0000 0.72980  0.52811  0.23276  Biso   1.000  O
  H3       1.0000 0.79450  0.49560  0.25730  Biso   1.000  H
  Sc4      1.0000 0.86645  0.29805  0.33636  Biso   1.000  Sc
  Sc5      1.0000 0.00415  0.39323  0.97790  Biso   1.000  Sc
  Sc6      1.0000 0.47848  0.26914  0.20057  Biso   1.000  Sc
  P5       1.0000 0.27240  0.26200  0.36645  Biso   1.000  P
  P6       1.0000 0.73589  0.28366  0.52400  Biso   1.000  P
  P7       1.0000 0.68351  0.10698  0.30242  Biso   1.000  P
  P8       1.0000 0.83174  0.29002  0.12835  Biso   1.000  P
  O19      1.0000 0.12920  0.49391  0.04174  Biso   1.000  O
  O20      1.0000 0.89650  0.36154  0.07899  Biso   1.000  O
  O21      1.0000 0.68530  0.18918  0.51040  Biso   1.000  O
  O22      1.0000 0.91200  0.29072  0.21574  Biso   1.000  O
  O23      1.0000 0.83950  0.31028  0.45899  Biso   1.000  O
  O24      1.0000 0.59250  0.07373  0.36955  Biso   1.000  O
  O25      1.0000 0.34540  0.18584  0.41442  Biso   1.000  O
  O26      1.0000 0.65380  0.29337  0.12458  Biso   1.000  O
  O27      1.0000 0.63350  0.31877  0.29587  Biso   1.000  O
  O28      1.0000 0.57540  0.14688  0.23255  Biso   1.000  O
  O29      1.0000 0.83160  0.29455  0.60823  Biso   1.000  O
  O30      1.0000 0.09750  0.26500  0.37039  Biso   1.000  O
  O31      1.0000 0.59090  0.34227  0.51837  Biso   1.000  O
  O32      1.0000 0.86460  0.19990  0.09066  Biso   1.000  O
  H4       1.0000 0.95470  0.19870  0.07910  Biso   1.000  H
  O33      1.0000 0.81680  0.16644  0.33509  Biso   1.000  O
  O34      1.0000 0.30700  0.26060  0.27819  Biso   1.000  O
  O35      1.0000 0.34000  0.34756  0.40750  Biso   1.000  O
  H5       1.0000 0.42450  0.33750  0.43440  Biso   1.000  H
  O36      1.0000 0.77020  0.02811  0.26724  Biso   1.000  O
  H6       1.0000 0.70550  0.99560  0.24270  Biso   1.000  H
  Sc7      1.0000 0.36645  0.20195  0.83636  Biso   1.000  Sc
  Sc8      1.0000 0.50415  0.10677  0.47790  Biso   1.000  Sc
  Sc9      1.0000 0.97848  0.23086  0.70057  Biso   1.000  Sc
  P9       1.0000 0.77240  0.23800  0.86645  Biso   1.000  P
  P10      1.0000 0.23589  0.21634  0.02400  Biso   1.000  P
  P11      1.0000 0.18351  0.39302  0.80242  Biso   1.000  P
  P12      1.0000 0.33174  0.20998  0.62835  Biso   1.000  P
  O37      1.0000 0.62920  0.00609  0.54174  Biso   1.000  O
  O38      1.0000 0.39650  0.13846  0.57899  Biso   1.000  O
  O39      1.0000 0.18530  0.31082  0.01040  Biso   1.000  O
  O40      1.0000 0.41200  0.20928  0.71574  Biso   1.000  O
  O41      1.0000 0.33950  0.18972  0.95899  Biso   1.000  O
  O42      1.0000 0.09250  0.42627  0.86955  Biso   1.000  O
  O43      1.0000 0.84540  0.31416  0.91442  Biso   1.000  O
  O44      1.0000 0.15380  0.20663  0.62458  Biso   1.000  O
  O45      1.0000 0.13350  0.18123  0.79587  Biso   1.000  O
  O46      1.0000 0.07540  0.35312  0.73255  Biso   1.000  O
  O47      1.0000 0.33160  0.20545  0.10823  Biso   1.000  O
  O48      1.0000 0.59750  0.23500  0.87039  Biso   1.000  O
  O49      1.0000 0.09090  0.15773  0.01837  Biso   1.000  O
  O50      1.0000 0.36460  0.30010  0.59066  Biso   1.000  O
  H7       1.0000 0.45470  0.30130  0.57910  Biso   1.000  H
  O51      1.0000 0.31680  0.33356  0.83509  Biso   1.000  O
  O52      1.0000 0.80700  0.23940  0.77819  Biso   1.000  O
  O53      1.0000 0.84000  0.15244  0.90750  Biso   1.000  O
  H8       1.0000 0.92450  0.16250  0.93440  Biso   1.000  H
  O54      1.0000 0.27020  0.47189  0.76724  Biso   1.000  O
  H9       1.0000 0.20550  0.50440  0.74270  Biso   1.000  H
  Sc10     1.0000 0.13355  0.70195  0.66364  Biso   1.000  Sc
  Sc11     1.0000 0.99585  0.60677  0.02210  Biso   1.000  Sc
  Sc12     1.0000 0.52152  0.73086  0.79943  Biso   1.000  Sc
  P13      1.0000 0.72760  0.73800  0.63355  Biso   1.000  P
  P14      1.0000 0.26411  0.71634  0.47600  Biso   1.000  P
  P15      1.0000 0.31649  0.89302  0.69758  Biso   1.000  P
  P16      1.0000 0.16826  0.70998  0.87165  Biso   1.000  P
  O55      1.0000 0.87080  0.50609  0.95826  Biso   1.000  O
  O56      1.0000 0.10350  0.63846  0.92101  Biso   1.000  O
  O57      1.0000 0.31470  0.81082  0.48960  Biso   1.000  O
  O58      1.0000 0.08800  0.70928  0.78426  Biso   1.000  O
  O59      1.0000 0.16050  0.68972  0.54101  Biso   1.000  O
  O60      1.0000 0.40750  0.92627  0.63045  Biso   1.000  O
  O61      1.0000 0.65460  0.81416  0.58558  Biso   1.000  O
  O62      1.0000 0.34620  0.70663  0.87542  Biso   1.000  O
  O63      1.0000 0.36650  0.68123  0.70413  Biso   1.000  O
  O64      1.0000 0.42460  0.85312  0.76745  Biso   1.000  O
  O65      1.0000 0.16840  0.70545  0.39177  Biso   1.000  O
  O66      1.0000 0.90250  0.73500  0.62961  Biso   1.000  O
  O67      1.0000 0.40910  0.65773  0.48163  Biso   1.000  O
  O68      1.0000 0.13540  0.80010  0.90934  Biso   1.000  O
  H10      1.0000 0.04530  0.80130  0.92090  Biso   1.000  H
  O69      1.0000 0.18320  0.83356  0.66491  Biso   1.000  O
  O70      1.0000 0.69300  0.73940  0.72181  Biso   1.000  O
  O71      1.0000 0.66000  0.65244  0.59250  Biso   1.000  O
  H11      1.0000 0.57550  0.66250  0.56560  Biso   1.000  H
  O72      1.0000 0.22980  0.97189  0.73276  Biso   1.000  O
  H12      1.0000 0.29450  0.00440  0.75730  Biso   1.000  H
