data_image0
_cell_length_a       22.623
_cell_length_b       22.623
_cell_length_c       22.623
_cell_angle_alpha    90
_cell_angle_beta     90
_cell_angle_gamma    90

_symmetry_space_group_name_H-M    "P 1"
_symmetry_int_tables_number       1

loop_
  _symmetry_equiv_pos_as_xyz
  'x, y, z'

loop_
  _atom_site_label
  _atom_site_occupancy
  _atom_site_fract_x
  _atom_site_fract_y
  _atom_site_fract_z
  _atom_site_thermal_displace_type
  _atom_site_B_iso_or_equiv
  _atom_site_type_symbol
  O1       1.0000 0.26490  0.11320  0.25490  Biso   1.000  O
  O2       1.0000 0.30590  0.15630  0.17420  Biso   1.000  O
  C1       1.0000 0.30850  0.05360  0.11740  Biso   1.000  C
  H1       1.0000 0.31090  0.08950  0.09750  Biso   1.000  H
  C2       1.0000 0.29560  0.05250  0.17510  Biso   1.000  C
  C3       1.0000 0.28640  0.11120  0.20640  Biso   1.000  C
  O3       1.0000 0.73510  0.88680  0.25490  Biso   1.000  O
  O4       1.0000 0.69410  0.84370  0.17420  Biso   1.000  O
  C4       1.0000 0.69150  0.94640  0.11740  Biso   1.000  C
  H2       1.0000 0.68910  0.91050  0.09750  Biso   1.000  H
  C5       1.0000 0.70440  0.94750  0.17510  Biso   1.000  C
  C6       1.0000 0.71360  0.88880  0.20640  Biso   1.000  C
  O5       1.0000 0.73510  0.11320  0.74510  Biso   1.000  O
  O6       1.0000 0.69410  0.15630  0.82580  Biso   1.000  O
  C7       1.0000 0.69150  0.05360  0.88260  Biso   1.000  C
  H3       1.0000 0.68910  0.08950  0.90250  Biso   1.000  H
  C8       1.0000 0.70440  0.05250  0.82490  Biso   1.000  C
  C9       1.0000 0.71360  0.11120  0.79360  Biso   1.000  C
  O7       1.0000 0.26490  0.88680  0.74510  Biso   1.000  O
  O8       1.0000 0.30590  0.84370  0.82580  Biso   1.000  O
  C10      1.0000 0.30850  0.94640  0.88260  Biso   1.000  C
  H4       1.0000 0.31090  0.91050  0.90250  Biso   1.000  H
  C11      1.0000 0.29560  0.94750  0.82490  Biso   1.000  C
  C12      1.0000 0.28640  0.88880  0.79360  Biso   1.000  C
  O9       1.0000 0.25490  0.26490  0.11320  Biso   1.000  O
  O10      1.0000 0.17420  0.30590  0.15630  Biso   1.000  O
  C13      1.0000 0.11740  0.30850  0.05360  Biso   1.000  C
  H5       1.0000 0.09750  0.31090  0.08950  Biso   1.000  H
  C14      1.0000 0.17510  0.29560  0.05250  Biso   1.000  C
  C15      1.0000 0.20640  0.28640  0.11120  Biso   1.000  C
  O11      1.0000 0.25490  0.73510  0.88680  Biso   1.000  O
  O12      1.0000 0.17420  0.69410  0.84370  Biso   1.000  O
  C16      1.0000 0.11740  0.69150  0.94640  Biso   1.000  C
  H6       1.0000 0.09750  0.68910  0.91050  Biso   1.000  H
  C17      1.0000 0.17510  0.70440  0.94750  Biso   1.000  C
  C18      1.0000 0.20640  0.71360  0.88880  Biso   1.000  C
  O13      1.0000 0.74510  0.73510  0.11320  Biso   1.000  O
  O14      1.0000 0.82580  0.69410  0.15630  Biso   1.000  O
  C19      1.0000 0.88260  0.69150  0.05360  Biso   1.000  C
  H7       1.0000 0.90250  0.68910  0.08950  Biso   1.000  H
  C20      1.0000 0.82490  0.70440  0.05250  Biso   1.000  C
  C21      1.0000 0.79360  0.71360  0.11120  Biso   1.000  C
  O15      1.0000 0.74510  0.26490  0.88680  Biso   1.000  O
  O16      1.0000 0.82580  0.30590  0.84370  Biso   1.000  O
  C22      1.0000 0.88260  0.30850  0.94640  Biso   1.000  C
  H8       1.0000 0.90250  0.31090  0.91050  Biso   1.000  H
  C23      1.0000 0.82490  0.29560  0.94750  Biso   1.000  C
  C24      1.0000 0.79360  0.28640  0.88880  Biso   1.000  C
  O17      1.0000 0.11320  0.25490  0.26490  Biso   1.000  O
  O18      1.0000 0.15630  0.17420  0.30590  Biso   1.000  O
  C25      1.0000 0.05360  0.11740  0.30850  Biso   1.000  C
  H9       1.0000 0.08950  0.09750  0.31090  Biso   1.000  H
  C26      1.0000 0.05250  0.17510  0.29560  Biso   1.000  C
  C27      1.0000 0.11120  0.20640  0.28640  Biso   1.000  C
  O19      1.0000 0.88680  0.25490  0.73510  Biso   1.000  O
  O20      1.0000 0.84370  0.17420  0.69410  Biso   1.000  O
  C28      1.0000 0.94640  0.11740  0.69150  Biso   1.000  C
  H10      1.0000 0.91050  0.09750  0.68910  Biso   1.000  H
  C29      1.0000 0.94750  0.17510  0.70440  Biso   1.000  C
  C30      1.0000 0.88880  0.20640  0.71360  Biso   1.000  C
  O21      1.0000 0.11320  0.74510  0.73510  Biso   1.000  O
  O22      1.0000 0.15630  0.82580  0.69410  Biso   1.000  O
  C31      1.0000 0.05360  0.88260  0.69150  Biso   1.000  C
  H11      1.0000 0.08950  0.90250  0.68910  Biso   1.000  H
  C32      1.0000 0.05250  0.82490  0.70440  Biso   1.000  C
  C33      1.0000 0.11120  0.79360  0.71360  Biso   1.000  C
  O23      1.0000 0.88680  0.74510  0.26490  Biso   1.000  O
  O24      1.0000 0.84370  0.82580  0.30590  Biso   1.000  O
  C34      1.0000 0.94640  0.88260  0.30850  Biso   1.000  C
  H12      1.0000 0.91050  0.90250  0.31090  Biso   1.000  H
  C35      1.0000 0.94750  0.82490  0.29560  Biso   1.000  C
  C36      1.0000 0.88880  0.79360  0.28640  Biso   1.000  C
  O25      1.0000 0.61320  0.76490  0.24510  Biso   1.000  O
  O26      1.0000 0.65630  0.80590  0.32580  Biso   1.000  O
  C37      1.0000 0.55360  0.80850  0.38260  Biso   1.000  C
  H13      1.0000 0.58950  0.81090  0.40250  Biso   1.000  H
  C38      1.0000 0.55250  0.79560  0.32490  Biso   1.000  C
  C39      1.0000 0.61120  0.78640  0.29360  Biso   1.000  C
  O27      1.0000 0.38680  0.23510  0.24510  Biso   1.000  O
  O28      1.0000 0.34370  0.19410  0.32580  Biso   1.000  O
  C40      1.0000 0.44640  0.19150  0.38260  Biso   1.000  C
  H14      1.0000 0.41050  0.18910  0.40250  Biso   1.000  H
  C41      1.0000 0.44750  0.20440  0.32490  Biso   1.000  C
  C42      1.0000 0.38880  0.21360  0.29360  Biso   1.000  C
  O29      1.0000 0.61320  0.23510  0.75490  Biso   1.000  O
  O30      1.0000 0.65630  0.19410  0.67420  Biso   1.000  O
  C43      1.0000 0.55360  0.19150  0.61740  Biso   1.000  C
  H15      1.0000 0.58950  0.18910  0.59750  Biso   1.000  H
  C44      1.0000 0.55250  0.20440  0.67510  Biso   1.000  C
  C45      1.0000 0.61120  0.21360  0.70640  Biso   1.000  C
  O31      1.0000 0.38680  0.76490  0.75490  Biso   1.000  O
  O32      1.0000 0.34370  0.80590  0.67420  Biso   1.000  O
  C46      1.0000 0.44640  0.80850  0.61740  Biso   1.000  C
  H16      1.0000 0.41050  0.81090  0.59750  Biso   1.000  H
  C47      1.0000 0.44750  0.79560  0.67510  Biso   1.000  C
  C48      1.0000 0.38880  0.78640  0.70640  Biso   1.000  C
  O33      1.0000 0.76490  0.75490  0.38680  Biso   1.000  O
  O34      1.0000 0.80590  0.67420  0.34370  Biso   1.000  O
  C49      1.0000 0.80850  0.61740  0.44640  Biso   1.000  C
  H17      1.0000 0.81090  0.59750  0.41050  Biso   1.000  H
  C50      1.0000 0.79560  0.67510  0.44750  Biso   1.000  C
  C51      1.0000 0.78640  0.70640  0.38880  Biso   1.000  C
  O35      1.0000 0.23510  0.75490  0.61320  Biso   1.000  O
  O36      1.0000 0.19410  0.67420  0.65630  Biso   1.000  O
  C52      1.0000 0.19150  0.61740  0.55360  Biso   1.000  C
  H18      1.0000 0.18910  0.59750  0.58950  Biso   1.000  H
  C53      1.0000 0.20440  0.67510  0.55250  Biso   1.000  C
  C54      1.0000 0.21360  0.70640  0.61120  Biso   1.000  C
  O37      1.0000 0.23510  0.24510  0.38680  Biso   1.000  O
  O38      1.0000 0.19410  0.32580  0.34370  Biso   1.000  O
  C55      1.0000 0.19150  0.38260  0.44640  Biso   1.000  C
  H19      1.0000 0.18910  0.40250  0.41050  Biso   1.000  H
  C56      1.0000 0.20440  0.32490  0.44750  Biso   1.000  C
  C57      1.0000 0.21360  0.29360  0.38880  Biso   1.000  C
  O39      1.0000 0.76490  0.24510  0.61320  Biso   1.000  O
  O40      1.0000 0.80590  0.32580  0.65630  Biso   1.000  O
  C58      1.0000 0.80850  0.38260  0.55360  Biso   1.000  C
  H20      1.0000 0.81090  0.40250  0.58950  Biso   1.000  H
  C59      1.0000 0.79560  0.32490  0.55250  Biso   1.000  C
  C60      1.0000 0.78640  0.29360  0.61120  Biso   1.000  C
  O41      1.0000 0.75490  0.61320  0.23510  Biso   1.000  O
  O42      1.0000 0.67420  0.65630  0.19410  Biso   1.000  O
  C61      1.0000 0.61740  0.55360  0.19150  Biso   1.000  C
  H21      1.0000 0.59750  0.58950  0.18910  Biso   1.000  H
  C62      1.0000 0.67510  0.55250  0.20440  Biso   1.000  C
  C63      1.0000 0.70640  0.61120  0.21360  Biso   1.000  C
  O43      1.0000 0.75490  0.38680  0.76490  Biso   1.000  O
  O44      1.0000 0.67420  0.34370  0.80590  Biso   1.000  O
  C64      1.0000 0.61740  0.44640  0.80850  Biso   1.000  C
  H22      1.0000 0.59750  0.41050  0.81090  Biso   1.000  H
  C65      1.0000 0.67510  0.44750  0.79560  Biso   1.000  C
  C66      1.0000 0.70640  0.38880  0.78640  Biso   1.000  C
  O45      1.0000 0.24510  0.61320  0.76490  Biso   1.000  O
  O46      1.0000 0.32580  0.65630  0.80590  Biso   1.000  O
  C67      1.0000 0.38260  0.55360  0.80850  Biso   1.000  C
  H23      1.0000 0.40250  0.58950  0.81090  Biso   1.000  H
  C68      1.0000 0.32490  0.55250  0.79560  Biso   1.000  C
  C69      1.0000 0.29360  0.61120  0.78640  Biso   1.000  C
  O47      1.0000 0.24510  0.38680  0.23510  Biso   1.000  O
  O48      1.0000 0.32580  0.34370  0.19410  Biso   1.000  O
  C70      1.0000 0.38260  0.44640  0.19150  Biso   1.000  C
  H24      1.0000 0.40250  0.41050  0.18910  Biso   1.000  H
  C71      1.0000 0.32490  0.44750  0.20440  Biso   1.000  C
  C72      1.0000 0.29360  0.38880  0.21360  Biso   1.000  C
  O49      1.0000 0.73510  0.88680  0.74510  Biso   1.000  O
  O50      1.0000 0.69410  0.84370  0.82580  Biso   1.000  O
  C73      1.0000 0.69150  0.94640  0.88260  Biso   1.000  C
  H25      1.0000 0.68910  0.91050  0.90250  Biso   1.000  H
  C74      1.0000 0.70440  0.94750  0.82490  Biso   1.000  C
  C75      1.0000 0.71360  0.88880  0.79360  Biso   1.000  C
  O51      1.0000 0.26490  0.11320  0.74510  Biso   1.000  O
  O52      1.0000 0.30590  0.15630  0.82580  Biso   1.000  O
  C76      1.0000 0.30850  0.05360  0.88260  Biso   1.000  C
  H26      1.0000 0.31090  0.08950  0.90250  Biso   1.000  H
  C77      1.0000 0.29560  0.05250  0.82490  Biso   1.000  C
  C78      1.0000 0.28640  0.11120  0.79360  Biso   1.000  C
  O53      1.0000 0.26490  0.88680  0.25490  Biso   1.000  O
  O54      1.0000 0.30590  0.84370  0.17420  Biso   1.000  O
  C79      1.0000 0.30850  0.94640  0.11740  Biso   1.000  C
  H27      1.0000 0.31090  0.91050  0.09750  Biso   1.000  H
  C80      1.0000 0.29560  0.94750  0.17510  Biso   1.000  C
  C81      1.0000 0.28640  0.88880  0.20640  Biso   1.000  C
  O55      1.0000 0.73510  0.11320  0.25490  Biso   1.000  O
  O56      1.0000 0.69410  0.15630  0.17420  Biso   1.000  O
  C82      1.0000 0.69150  0.05360  0.11740  Biso   1.000  C
  H28      1.0000 0.68910  0.08950  0.09750  Biso   1.000  H
  C83      1.0000 0.70440  0.05250  0.17510  Biso   1.000  C
  C84      1.0000 0.71360  0.11120  0.20640  Biso   1.000  C
  O57      1.0000 0.74510  0.73510  0.88680  Biso   1.000  O
  O58      1.0000 0.82580  0.69410  0.84370  Biso   1.000  O
  C85      1.0000 0.88260  0.69150  0.94640  Biso   1.000  C
  H29      1.0000 0.90250  0.68910  0.91050  Biso   1.000  H
  C86      1.0000 0.82490  0.70440  0.94750  Biso   1.000  C
  C87      1.0000 0.79360  0.71360  0.88880  Biso   1.000  C
  O59      1.0000 0.74510  0.26490  0.11320  Biso   1.000  O
  O60      1.0000 0.82580  0.30590  0.15630  Biso   1.000  O
  C88      1.0000 0.88260  0.30850  0.05360  Biso   1.000  C
  H30      1.0000 0.90250  0.31090  0.08950  Biso   1.000  H
  C89      1.0000 0.82490  0.29560  0.05250  Biso   1.000  C
  C90      1.0000 0.79360  0.28640  0.11120  Biso   1.000  C
  O61      1.0000 0.25490  0.26490  0.88680  Biso   1.000  O
  O62      1.0000 0.17420  0.30590  0.84370  Biso   1.000  O
  C91      1.0000 0.11740  0.30850  0.94640  Biso   1.000  C
  H31      1.0000 0.09750  0.31090  0.91050  Biso   1.000  H
  C92      1.0000 0.17510  0.29560  0.94750  Biso   1.000  C
  C93      1.0000 0.20640  0.28640  0.88880  Biso   1.000  C
  O63      1.0000 0.25490  0.73510  0.11320  Biso   1.000  O
  O64      1.0000 0.17420  0.69410  0.15630  Biso   1.000  O
  C94      1.0000 0.11740  0.69150  0.05360  Biso   1.000  C
  H32      1.0000 0.09750  0.68910  0.08950  Biso   1.000  H
  C95      1.0000 0.17510  0.70440  0.05250  Biso   1.000  C
  C96      1.0000 0.20640  0.71360  0.11120  Biso   1.000  C
  O65      1.0000 0.88680  0.74510  0.73510  Biso   1.000  O
  O66      1.0000 0.84370  0.82580  0.69410  Biso   1.000  O
  C97      1.0000 0.94640  0.88260  0.69150  Biso   1.000  C
  H33      1.0000 0.91050  0.90250  0.68910  Biso   1.000  H
  C98      1.0000 0.94750  0.82490  0.70440  Biso   1.000  C
  C99      1.0000 0.88880  0.79360  0.71360  Biso   1.000  C
  O67      1.0000 0.11320  0.74510  0.26490  Biso   1.000  O
  O68      1.0000 0.15630  0.82580  0.30590  Biso   1.000  O
  C100     1.0000 0.05360  0.88260  0.30850  Biso   1.000  C
  H34      1.0000 0.08950  0.90250  0.31090  Biso   1.000  H
  C101     1.0000 0.05250  0.82490  0.29560  Biso   1.000  C
  C102     1.0000 0.11120  0.79360  0.28640  Biso   1.000  C
  O69      1.0000 0.88680  0.25490  0.26490  Biso   1.000  O
  O70      1.0000 0.84370  0.17420  0.30590  Biso   1.000  O
  C103     1.0000 0.94640  0.11740  0.30850  Biso   1.000  C
  H35      1.0000 0.91050  0.09750  0.31090  Biso   1.000  H
  C104     1.0000 0.94750  0.17510  0.29560  Biso   1.000  C
  C105     1.0000 0.88880  0.20640  0.28640  Biso   1.000  C
  O71      1.0000 0.11320  0.25490  0.73510  Biso   1.000  O
  O72      1.0000 0.15630  0.17420  0.69410  Biso   1.000  O
  C106     1.0000 0.05360  0.11740  0.69150  Biso   1.000  C
  H36      1.0000 0.08950  0.09750  0.68910  Biso   1.000  H
  C107     1.0000 0.05250  0.17510  0.70440  Biso   1.000  C
  C108     1.0000 0.11120  0.20640  0.71360  Biso   1.000  C
  O73      1.0000 0.38680  0.23510  0.75490  Biso   1.000  O
  O74      1.0000 0.34370  0.19410  0.67420  Biso   1.000  O
  C109     1.0000 0.44640  0.19150  0.61740  Biso   1.000  C
  H37      1.0000 0.41050  0.18910  0.59750  Biso   1.000  H
  C110     1.0000 0.44750  0.20440  0.67510  Biso   1.000  C
  C111     1.0000 0.38880  0.21360  0.70640  Biso   1.000  C
  O75      1.0000 0.61320  0.76490  0.75490  Biso   1.000  O
  O76      1.0000 0.65630  0.80590  0.67420  Biso   1.000  O
  C112     1.0000 0.55360  0.80850  0.61740  Biso   1.000  C
  H38      1.0000 0.58950  0.81090  0.59750  Biso   1.000  H
  C113     1.0000 0.55250  0.79560  0.67510  Biso   1.000  C
  C114     1.0000 0.61120  0.78640  0.70640  Biso   1.000  C
  O77      1.0000 0.38680  0.76490  0.24510  Biso   1.000  O
  O78      1.0000 0.34370  0.80590  0.32580  Biso   1.000  O
  C115     1.0000 0.44640  0.80850  0.38260  Biso   1.000  C
  H39      1.0000 0.41050  0.81090  0.40250  Biso   1.000  H
  C116     1.0000 0.44750  0.79560  0.32490  Biso   1.000  C
  C117     1.0000 0.38880  0.78640  0.29360  Biso   1.000  C
  O79      1.0000 0.61320  0.23510  0.24510  Biso   1.000  O
  O80      1.0000 0.65630  0.19410  0.32580  Biso   1.000  O
  C118     1.0000 0.55360  0.19150  0.38260  Biso   1.000  C
  H40      1.0000 0.58950  0.18910  0.40250  Biso   1.000  H
  C119     1.0000 0.55250  0.20440  0.32490  Biso   1.000  C
  C120     1.0000 0.61120  0.21360  0.29360  Biso   1.000  C
  O81      1.0000 0.23510  0.24510  0.61320  Biso   1.000  O
  O82      1.0000 0.19410  0.32580  0.65630  Biso   1.000  O
  C121     1.0000 0.19150  0.38260  0.55360  Biso   1.000  C
  H41      1.0000 0.18910  0.40250  0.58950  Biso   1.000  H
  C122     1.0000 0.20440  0.32490  0.55250  Biso   1.000  C
  C123     1.0000 0.21360  0.29360  0.61120  Biso   1.000  C
  O83      1.0000 0.76490  0.24510  0.38680  Biso   1.000  O
  O84      1.0000 0.80590  0.32580  0.34370  Biso   1.000  O
  C124     1.0000 0.80850  0.38260  0.44640  Biso   1.000  C
  H42      1.0000 0.81090  0.40250  0.41050  Biso   1.000  H
  C125     1.0000 0.79560  0.32490  0.44750  Biso   1.000  C
  C126     1.0000 0.78640  0.29360  0.38880  Biso   1.000  C
  O85      1.0000 0.76490  0.75490  0.61320  Biso   1.000  O
  O86      1.0000 0.80590  0.67420  0.65630  Biso   1.000  O
  C127     1.0000 0.80850  0.61740  0.55360  Biso   1.000  C
  H43      1.0000 0.81090  0.59750  0.58950  Biso   1.000  H
  C128     1.0000 0.79560  0.67510  0.55250  Biso   1.000  C
  C129     1.0000 0.78640  0.70640  0.61120  Biso   1.000  C
  O87      1.0000 0.23510  0.75490  0.38680  Biso   1.000  O
  O88      1.0000 0.19410  0.67420  0.34370  Biso   1.000  O
  C130     1.0000 0.19150  0.61740  0.44640  Biso   1.000  C
  H44      1.0000 0.18910  0.59750  0.41050  Biso   1.000  H
  C131     1.0000 0.20440  0.67510  0.44750  Biso   1.000  C
  C132     1.0000 0.21360  0.70640  0.38880  Biso   1.000  C
  O89      1.0000 0.24510  0.38680  0.76490  Biso   1.000  O
  O90      1.0000 0.32580  0.34370  0.80590  Biso   1.000  O
  C133     1.0000 0.38260  0.44640  0.80850  Biso   1.000  C
  H45      1.0000 0.40250  0.41050  0.81090  Biso   1.000  H
  C134     1.0000 0.32490  0.44750  0.79560  Biso   1.000  C
  C135     1.0000 0.29360  0.38880  0.78640  Biso   1.000  C
  O91      1.0000 0.24510  0.61320  0.23510  Biso   1.000  O
  O92      1.0000 0.32580  0.65630  0.19410  Biso   1.000  O
  C136     1.0000 0.38260  0.55360  0.19150  Biso   1.000  C
  H46      1.0000 0.40250  0.58950  0.18910  Biso   1.000  H
  C137     1.0000 0.32490  0.55250  0.20440  Biso   1.000  C
  C138     1.0000 0.29360  0.61120  0.21360  Biso   1.000  C
  O93      1.0000 0.75490  0.38680  0.23510  Biso   1.000  O
  O94      1.0000 0.67420  0.34370  0.19410  Biso   1.000  O
  C139     1.0000 0.61740  0.44640  0.19150  Biso   1.000  C
  H47      1.0000 0.59750  0.41050  0.18910  Biso   1.000  H
  C140     1.0000 0.67510  0.44750  0.20440  Biso   1.000  C
  C141     1.0000 0.70640  0.38880  0.21360  Biso   1.000  C
  O95      1.0000 0.75490  0.61320  0.76490  Biso   1.000  O
  O96      1.0000 0.67420  0.65630  0.80590  Biso   1.000  O
  C142     1.0000 0.61740  0.55360  0.80850  Biso   1.000  C
  H48      1.0000 0.59750  0.58950  0.81090  Biso   1.000  H
  C143     1.0000 0.67510  0.55250  0.79560  Biso   1.000  C
  C144     1.0000 0.70640  0.61120  0.78640  Biso   1.000  C
  In1      1.0000 0.25000  0.18633  0.31367  Biso   1.000  In
  In2      1.0000 0.75000  0.81367  0.31367  Biso   1.000  In
  In3      1.0000 0.75000  0.18633  0.68633  Biso   1.000  In
  In4      1.0000 0.25000  0.81367  0.68633  Biso   1.000  In
  In5      1.0000 0.31367  0.25000  0.18633  Biso   1.000  In
  In6      1.0000 0.31367  0.75000  0.81367  Biso   1.000  In
  In7      1.0000 0.68633  0.75000  0.18633  Biso   1.000  In
  In8      1.0000 0.68633  0.25000  0.81367  Biso   1.000  In
  In9      1.0000 0.18633  0.31367  0.25000  Biso   1.000  In
  In10     1.0000 0.81367  0.31367  0.75000  Biso   1.000  In
  In11     1.0000 0.18633  0.68633  0.75000  Biso   1.000  In
  In12     1.0000 0.81367  0.68633  0.25000  Biso   1.000  In
  In13     1.0000 0.75000  0.81367  0.68633  Biso   1.000  In
  In14     1.0000 0.25000  0.18633  0.68633  Biso   1.000  In
  In15     1.0000 0.25000  0.81367  0.31367  Biso   1.000  In
  In16     1.0000 0.75000  0.18633  0.31367  Biso   1.000  In
  In17     1.0000 0.68633  0.75000  0.81367  Biso   1.000  In
  In18     1.0000 0.68633  0.25000  0.18633  Biso   1.000  In
  In19     1.0000 0.31367  0.25000  0.81367  Biso   1.000  In
  In20     1.0000 0.31367  0.75000  0.18633  Biso   1.000  In
  In21     1.0000 0.81367  0.68633  0.75000  Biso   1.000  In
  In22     1.0000 0.18633  0.68633  0.25000  Biso   1.000  In
  In23     1.0000 0.81367  0.31367  0.25000  Biso   1.000  In
  In24     1.0000 0.18633  0.31367  0.75000  Biso   1.000  In
  O97      1.0000 0.25000  0.25000  0.25000  Biso   1.000  O
  O98      1.0000 0.75000  0.75000  0.25000  Biso   1.000  O
  O99      1.0000 0.75000  0.25000  0.75000  Biso   1.000  O
  O100     1.0000 0.25000  0.75000  0.75000  Biso   1.000  O
  O101     1.0000 0.75000  0.75000  0.75000  Biso   1.000  O
  O102     1.0000 0.25000  0.25000  0.75000  Biso   1.000  O
  O103     1.0000 0.25000  0.75000  0.25000  Biso   1.000  O
  O104     1.0000 0.75000  0.25000  0.25000  Biso   1.000  O
  C145     1.0000 0.31870  0.00000  0.08670  Biso   1.000  C
  C146     1.0000 0.28650  0.00000  0.20550  Biso   1.000  C
  H49      1.0000 0.27460  0.00000  0.24480  Biso   1.000  H
  C147     1.0000 0.33070  0.00000  0.02560  Biso   1.000  C
  C148     1.0000 0.68130  0.00000  0.08670  Biso   1.000  C
  C149     1.0000 0.71350  0.00000  0.20550  Biso   1.000  C
  H50      1.0000 0.72540  0.00000  0.24480  Biso   1.000  H
  C150     1.0000 0.66930  0.00000  0.02560  Biso   1.000  C
  C151     1.0000 0.68130  0.00000  0.91330  Biso   1.000  C
  C152     1.0000 0.71350  0.00000  0.79450  Biso   1.000  C
  H51      1.0000 0.72540  0.00000  0.75520  Biso   1.000  H
  C153     1.0000 0.66930  0.00000  0.97440  Biso   1.000  C
  C154     1.0000 0.31870  0.00000  0.91330  Biso   1.000  C
  C155     1.0000 0.28650  0.00000  0.79450  Biso   1.000  C
  H52      1.0000 0.27460  0.00000  0.75520  Biso   1.000  H
  C156     1.0000 0.33070  0.00000  0.97440  Biso   1.000  C
  C157     1.0000 0.08670  0.31870  0.00000  Biso   1.000  C
  C158     1.0000 0.20550  0.28650  0.00000  Biso   1.000  C
  H53      1.0000 0.24480  0.27460  0.00000  Biso   1.000  H
  C159     1.0000 0.02560  0.33070  0.00000  Biso   1.000  C
  C160     1.0000 0.08670  0.68130  0.00000  Biso   1.000  C
  C161     1.0000 0.20550  0.71350  0.00000  Biso   1.000  C
  H54      1.0000 0.24480  0.72540  0.00000  Biso   1.000  H
  C162     1.0000 0.02560  0.66930  0.00000  Biso   1.000  C
  C163     1.0000 0.91330  0.68130  0.00000  Biso   1.000  C
  C164     1.0000 0.79450  0.71350  0.00000  Biso   1.000  C
  H55      1.0000 0.75520  0.72540  0.00000  Biso   1.000  H
  C165     1.0000 0.97440  0.66930  0.00000  Biso   1.000  C
  C166     1.0000 0.91330  0.31870  0.00000  Biso   1.000  C
  C167     1.0000 0.79450  0.28650  0.00000  Biso   1.000  C
  H56      1.0000 0.75520  0.27460  0.00000  Biso   1.000  H
  C168     1.0000 0.97440  0.33070  0.00000  Biso   1.000  C
  C169     1.0000 0.00000  0.08670  0.31870  Biso   1.000  C
  C170     1.0000 0.00000  0.20550  0.28650  Biso   1.000  C
  H57      1.0000 0.00000  0.24480  0.27460  Biso   1.000  H
  C171     1.0000 0.00000  0.02560  0.33070  Biso   1.000  C
  C172     1.0000 0.00000  0.08670  0.68130  Biso   1.000  C
  C173     1.0000 0.00000  0.20550  0.71350  Biso   1.000  C
  H58      1.0000 0.00000  0.24480  0.72540  Biso   1.000  H
  C174     1.0000 0.00000  0.02560  0.66930  Biso   1.000  C
  C175     1.0000 0.00000  0.91330  0.68130  Biso   1.000  C
  C176     1.0000 0.00000  0.79450  0.71350  Biso   1.000  C
  H59      1.0000 0.00000  0.75520  0.72540  Biso   1.000  H
  C177     1.0000 0.00000  0.97440  0.66930  Biso   1.000  C
  C178     1.0000 0.00000  0.91330  0.31870  Biso   1.000  C
  C179     1.0000 0.00000  0.79450  0.28650  Biso   1.000  C
  H60      1.0000 0.00000  0.75520  0.27460  Biso   1.000  H
  C180     1.0000 0.00000  0.97440  0.33070  Biso   1.000  C
  C181     1.0000 0.50000  0.81870  0.41330  Biso   1.000  C
  C182     1.0000 0.50000  0.78650  0.29450  Biso   1.000  C
  H61      1.0000 0.50000  0.77460  0.25520  Biso   1.000  H
  C183     1.0000 0.50000  0.83070  0.47440  Biso   1.000  C
  C184     1.0000 0.50000  0.18130  0.41330  Biso   1.000  C
  C185     1.0000 0.50000  0.21350  0.29450  Biso   1.000  C
  H62      1.0000 0.50000  0.22540  0.25520  Biso   1.000  H
  C186     1.0000 0.50000  0.16930  0.47440  Biso   1.000  C
  C187     1.0000 0.50000  0.18130  0.58670  Biso   1.000  C
  C188     1.0000 0.50000  0.21350  0.70550  Biso   1.000  C
  H63      1.0000 0.50000  0.22540  0.74480  Biso   1.000  H
  C189     1.0000 0.50000  0.16930  0.52560  Biso   1.000  C
  C190     1.0000 0.50000  0.81870  0.58670  Biso   1.000  C
  C191     1.0000 0.50000  0.78650  0.70550  Biso   1.000  C
  H64      1.0000 0.50000  0.77460  0.74480  Biso   1.000  H
  C192     1.0000 0.50000  0.83070  0.52560  Biso   1.000  C
  C193     1.0000 0.81870  0.58670  0.50000  Biso   1.000  C
  C194     1.0000 0.78650  0.70550  0.50000  Biso   1.000  C
  H65      1.0000 0.77460  0.74480  0.50000  Biso   1.000  H
  C195     1.0000 0.83070  0.52560  0.50000  Biso   1.000  C
  C196     1.0000 0.18130  0.58670  0.50000  Biso   1.000  C
  C197     1.0000 0.21350  0.70550  0.50000  Biso   1.000  C
  H66      1.0000 0.22540  0.74480  0.50000  Biso   1.000  H
  C198     1.0000 0.16930  0.52560  0.50000  Biso   1.000  C
  C199     1.0000 0.18130  0.41330  0.50000  Biso   1.000  C
  C200     1.0000 0.21350  0.29450  0.50000  Biso   1.000  C
  H67      1.0000 0.22540  0.25520  0.50000  Biso   1.000  H
  C201     1.0000 0.16930  0.47440  0.50000  Biso   1.000  C
  C202     1.0000 0.81870  0.41330  0.50000  Biso   1.000  C
  C203     1.0000 0.78650  0.29450  0.50000  Biso   1.000  C
  H68      1.0000 0.77460  0.25520  0.50000  Biso   1.000  H
  C204     1.0000 0.83070  0.47440  0.50000  Biso   1.000  C
  C205     1.0000 0.58670  0.50000  0.18130  Biso   1.000  C
  C206     1.0000 0.70550  0.50000  0.21350  Biso   1.000  C
  H69      1.0000 0.74480  0.50000  0.22540  Biso   1.000  H
  C207     1.0000 0.52560  0.50000  0.16930  Biso   1.000  C
  C208     1.0000 0.58670  0.50000  0.81870  Biso   1.000  C
  C209     1.0000 0.70550  0.50000  0.78650  Biso   1.000  C
  H70      1.0000 0.74480  0.50000  0.77460  Biso   1.000  H
  C210     1.0000 0.52560  0.50000  0.83070  Biso   1.000  C
  C211     1.0000 0.41330  0.50000  0.81870  Biso   1.000  C
  C212     1.0000 0.29450  0.50000  0.78650  Biso   1.000  C
  H71      1.0000 0.25520  0.50000  0.77460  Biso   1.000  H
  C213     1.0000 0.47440  0.50000  0.83070  Biso   1.000  C
  C214     1.0000 0.41330  0.50000  0.18130  Biso   1.000  C
  C215     1.0000 0.29450  0.50000  0.21350  Biso   1.000  C
  H72      1.0000 0.25520  0.50000  0.22540  Biso   1.000  H
  C216     1.0000 0.47440  0.50000  0.16930  Biso   1.000  C
