data_image0
_cell_length_a       22.1811
_cell_length_b       22.1811
_cell_length_c       41.961
_cell_angle_alpha    90
_cell_angle_beta     90
_cell_angle_gamma    120

_symmetry_space_group_name_H-M    "P 1"
_symmetry_int_tables_number       1

loop_
  _symmetry_equiv_pos_as_xyz
  'x, y, z'

loop_
  _atom_site_label
  _atom_site_occupancy
  _atom_site_fract_x
  _atom_site_fract_y
  _atom_site_fract_z
  _atom_site_thermal_displace_type
  _atom_site_B_iso_or_equiv
  _atom_site_type_symbol
  In1      1.0000 0.62278  0.22798  0.99961  Biso   1.000  In
  O1       1.0000 0.54259  0.21172  0.03441  Biso   1.000  O
  O2       1.0000 0.33134  0.78899  0.03479  Biso   1.000  O
  O3       1.0000 0.22841  0.68918  0.03771  Biso   1.000  O
  O4       1.0000 0.53760  0.30843  0.03591  Biso   1.000  O
  O5       1.0000 0.40406  0.32523  0.12930  Biso   1.000  O
  O6       1.0000 0.30061  0.23277  0.13570  Biso   1.000  O
  O7       1.0000 0.07523  0.67379  0.12863  Biso   1.000  O
  O8       1.0000 0.08682  0.76943  0.14886  Biso   1.000  O
  C1       1.0000 0.27310  0.75360  0.04497  Biso   1.000  C
  C2       1.0000 0.19880  0.85390  0.10944  Biso   1.000  C
  H1       1.0000 0.18450  0.87630  0.12370  Biso   1.000  H
  C3       1.0000 0.25520  0.89240  0.08853  Biso   1.000  C
  C4       1.0000 0.16470  0.78050  0.10811  Biso   1.000  C
  C5       1.0000 0.18840  0.74660  0.08718  Biso   1.000  C
  H2       1.0000 0.16580  0.69830  0.08640  Biso   1.000  H
  C6       1.0000 0.24660  0.78680  0.06747  Biso   1.000  C
  C7       1.0000 0.27980  0.85870  0.06879  Biso   1.000  C
  H3       1.0000 0.31910  0.88500  0.05630  Biso   1.000  H
  C8       1.0000 0.45845  0.21080  0.06620  Biso   1.000  C
  C9       1.0000 0.51950  0.24537  0.04411  Biso   1.000  C
  C10      1.0000 0.42010  0.14010  0.06689  Biso   1.000  C
  H4       1.0000 0.43270  0.11480  0.05350  Biso   1.000  H
  C11      1.0000 0.29370  0.96950  0.08915  Biso   1.000  C
  C12      1.0000 0.32240  0.02970  0.08855  Biso   1.000  C
  C13      1.0000 0.36220  0.10390  0.08695  Biso   1.000  C
  C14      1.0000 0.43720  0.25060  0.08364  Biso   1.000  C
  H5       1.0000 0.46030  0.29870  0.08150  Biso   1.000  H
  C15      1.0000 0.38020  0.21650  0.10462  Biso   1.000  C
  C16      1.0000 0.34050  0.14360  0.10513  Biso   1.000  C
  H6       1.0000 0.30010  0.12140  0.11730  Biso   1.000  H
  C17      1.0000 0.36459  0.26120  0.12675  Biso   1.000  C
  C18      1.0000 0.10640  0.74060  0.12999  Biso   1.000  C
  In2      1.0000 0.28944  0.56131  0.33295  Biso   1.000  In
  O9       1.0000 0.20926  0.54505  0.36774  Biso   1.000  O
  O10      1.0000 0.99801  0.12232  0.36812  Biso   1.000  O
  O11      1.0000 0.89508  0.02251  0.37104  Biso   1.000  O
  O12      1.0000 0.20427  0.64176  0.36924  Biso   1.000  O
  O13      1.0000 0.07073  0.65856  0.46263  Biso   1.000  O
  O14      1.0000 0.96728  0.56610  0.46903  Biso   1.000  O
  O15      1.0000 0.74190  0.00712  0.46196  Biso   1.000  O
  O16      1.0000 0.75349  0.10276  0.48219  Biso   1.000  O
  C19      1.0000 0.93977  0.08693  0.37830  Biso   1.000  C
  C20      1.0000 0.86547  0.18723  0.44277  Biso   1.000  C
  H7       1.0000 0.85117  0.20963  0.45703  Biso   1.000  H
  C21      1.0000 0.92187  0.22573  0.42186  Biso   1.000  C
  C22      1.0000 0.83137  0.11383  0.44144  Biso   1.000  C
  C23      1.0000 0.85507  0.07993  0.42051  Biso   1.000  C
  H8       1.0000 0.83247  0.03163  0.41973  Biso   1.000  H
  C24      1.0000 0.91327  0.12013  0.40080  Biso   1.000  C
  C25      1.0000 0.94647  0.19203  0.40212  Biso   1.000  C
  H9       1.0000 0.98577  0.21833  0.38963  Biso   1.000  H
  C26      1.0000 0.12512  0.54413  0.39953  Biso   1.000  C
  C27      1.0000 0.18617  0.57870  0.37744  Biso   1.000  C
  C28      1.0000 0.08677  0.47343  0.40022  Biso   1.000  C
  H10      1.0000 0.09937  0.44813  0.38683  Biso   1.000  H
  C29      1.0000 0.96037  0.30283  0.42248  Biso   1.000  C
  C30      1.0000 0.98907  0.36303  0.42188  Biso   1.000  C
  C31      1.0000 0.02887  0.43723  0.42028  Biso   1.000  C
  C32      1.0000 0.10387  0.58393  0.41697  Biso   1.000  C
  H11      1.0000 0.12697  0.63203  0.41483  Biso   1.000  H
  C33      1.0000 0.04687  0.54983  0.43795  Biso   1.000  C
  C34      1.0000 0.00717  0.47693  0.43846  Biso   1.000  C
  H12      1.0000 0.96677  0.45473  0.45063  Biso   1.000  H
  C35      1.0000 0.03126  0.59453  0.46008  Biso   1.000  C
  C36      1.0000 0.77307  0.07393  0.46332  Biso   1.000  C
  In3      1.0000 0.95611  0.89465  0.66628  Biso   1.000  In
  O17      1.0000 0.87592  0.87839  0.70108  Biso   1.000  O
  O18      1.0000 0.66467  0.45566  0.70146  Biso   1.000  O
  O19      1.0000 0.56174  0.35585  0.70438  Biso   1.000  O
  O20      1.0000 0.87093  0.97510  0.70258  Biso   1.000  O
  O21      1.0000 0.73739  0.99190  0.79597  Biso   1.000  O
  O22      1.0000 0.63394  0.89944  0.80237  Biso   1.000  O
  O23      1.0000 0.40856  0.34046  0.79530  Biso   1.000  O
  O24      1.0000 0.42015  0.43610  0.81553  Biso   1.000  O
  C37      1.0000 0.60643  0.42027  0.71164  Biso   1.000  C
  C38      1.0000 0.53213  0.52057  0.77611  Biso   1.000  C
  H13      1.0000 0.51783  0.54297  0.79037  Biso   1.000  H
  C39      1.0000 0.58853  0.55907  0.75520  Biso   1.000  C
  C40      1.0000 0.49803  0.44717  0.77478  Biso   1.000  C
  C41      1.0000 0.52173  0.41327  0.75385  Biso   1.000  C
  H14      1.0000 0.49913  0.36497  0.75307  Biso   1.000  H
  C42      1.0000 0.57993  0.45347  0.73414  Biso   1.000  C
  C43      1.0000 0.61313  0.52537  0.73546  Biso   1.000  C
  H15      1.0000 0.65243  0.55167  0.72297  Biso   1.000  H
  C44      1.0000 0.79178  0.87747  0.73287  Biso   1.000  C
  C45      1.0000 0.85283  0.91204  0.71078  Biso   1.000  C
  C46      1.0000 0.75343  0.80677  0.73356  Biso   1.000  C
  H16      1.0000 0.76603  0.78147  0.72017  Biso   1.000  H
  C47      1.0000 0.62703  0.63617  0.75582  Biso   1.000  C
  C48      1.0000 0.65573  0.69637  0.75522  Biso   1.000  C
  C49      1.0000 0.69553  0.77057  0.75362  Biso   1.000  C
  C50      1.0000 0.77053  0.91727  0.75031  Biso   1.000  C
  H17      1.0000 0.79363  0.96537  0.74817  Biso   1.000  H
  C51      1.0000 0.71353  0.88317  0.77129  Biso   1.000  C
  C52      1.0000 0.67383  0.81027  0.77180  Biso   1.000  C
  H18      1.0000 0.63343  0.78807  0.78397  Biso   1.000  H
  C53      1.0000 0.69792  0.92787  0.79342  Biso   1.000  C
  C54      1.0000 0.43973  0.40727  0.79666  Biso   1.000  C
  In4      1.0000 0.77202  0.39480  0.99961  Biso   1.000  In
  O25      1.0000 0.78828  0.33087  0.03441  Biso   1.000  O
  O26      1.0000 0.21101  0.54235  0.03479  Biso   1.000  O
  O27      1.0000 0.31082  0.53923  0.03771  Biso   1.000  O
  O28      1.0000 0.69157  0.22917  0.03591  Biso   1.000  O
  O29      1.0000 0.67477  0.07883  0.12930  Biso   1.000  O
  O30      1.0000 0.76723  0.06784  0.13570  Biso   1.000  O
  O31      1.0000 0.32621  0.40144  0.12863  Biso   1.000  O
  O32      1.0000 0.23057  0.31739  0.14886  Biso   1.000  O
  C55      1.0000 0.24640  0.51950  0.04497  Biso   1.000  C
  C56      1.0000 0.14610  0.34490  0.10944  Biso   1.000  C
  H19      1.0000 0.12370  0.30820  0.12370  Biso   1.000  H
  C57      1.0000 0.10760  0.36280  0.08853  Biso   1.000  C
  C58      1.0000 0.21950  0.38420  0.10811  Biso   1.000  C
  C59      1.0000 0.25340  0.44180  0.08718  Biso   1.000  C
  H20      1.0000 0.30170  0.46750  0.08640  Biso   1.000  H
  C60      1.0000 0.21320  0.45980  0.06747  Biso   1.000  C
  C61      1.0000 0.14130  0.42110  0.06879  Biso   1.000  C
  H21      1.0000 0.11500  0.43410  0.05630  Biso   1.000  H
  C62      1.0000 0.78920  0.24765  0.06620  Biso   1.000  C
  C63      1.0000 0.75463  0.27413  0.04411  Biso   1.000  C
  C64      1.0000 0.85990  0.28000  0.06689  Biso   1.000  C
  H22      1.0000 0.88520  0.31790  0.05350  Biso   1.000  H
  C65      1.0000 0.03050  0.32420  0.08915  Biso   1.000  C
  C66      1.0000 0.97030  0.29270  0.08855  Biso   1.000  C
  C67      1.0000 0.89610  0.25830  0.08695  Biso   1.000  C
  C68      1.0000 0.74940  0.18660  0.08364  Biso   1.000  C
  H23      1.0000 0.70130  0.16160  0.08150  Biso   1.000  H
  C69      1.0000 0.78350  0.16370  0.10462  Biso   1.000  C
  C70      1.0000 0.85640  0.19690  0.10513  Biso   1.000  C
  H24      1.0000 0.87860  0.17870  0.11730  Biso   1.000  H
  C71      1.0000 0.73880  0.10339  0.12675  Biso   1.000  C
  C72      1.0000 0.25940  0.36580  0.12999  Biso   1.000  C
  In5      1.0000 0.43869  0.72813  0.33295  Biso   1.000  In
  O33      1.0000 0.45495  0.66420  0.36774  Biso   1.000  O
  O34      1.0000 0.87768  0.87568  0.36812  Biso   1.000  O
  O35      1.0000 0.97749  0.87256  0.37104  Biso   1.000  O
  O36      1.0000 0.35824  0.56250  0.36924  Biso   1.000  O
  O37      1.0000 0.34144  0.41216  0.46263  Biso   1.000  O
  O38      1.0000 0.43390  0.40117  0.46903  Biso   1.000  O
  O39      1.0000 0.99288  0.73477  0.46196  Biso   1.000  O
  O40      1.0000 0.89724  0.65072  0.48219  Biso   1.000  O
  C73      1.0000 0.91307  0.85283  0.37830  Biso   1.000  C
  C74      1.0000 0.81277  0.67823  0.44277  Biso   1.000  C
  H25      1.0000 0.79037  0.64153  0.45703  Biso   1.000  H
  C75      1.0000 0.77427  0.69613  0.42186  Biso   1.000  C
  C76      1.0000 0.88617  0.71753  0.44144  Biso   1.000  C
  C77      1.0000 0.92007  0.77513  0.42051  Biso   1.000  C
  H26      1.0000 0.96837  0.80083  0.41973  Biso   1.000  H
  C78      1.0000 0.87987  0.79313  0.40080  Biso   1.000  C
  C79      1.0000 0.80797  0.75443  0.40212  Biso   1.000  C
  H27      1.0000 0.78167  0.76743  0.38963  Biso   1.000  H
  C80      1.0000 0.45587  0.58098  0.39953  Biso   1.000  C
  C81      1.0000 0.42130  0.60746  0.37744  Biso   1.000  C
  C82      1.0000 0.52657  0.61333  0.40022  Biso   1.000  C
  H28      1.0000 0.55187  0.65123  0.38683  Biso   1.000  H
  C83      1.0000 0.69717  0.65753  0.42248  Biso   1.000  C
  C84      1.0000 0.63697  0.62603  0.42188  Biso   1.000  C
  C85      1.0000 0.56277  0.59163  0.42028  Biso   1.000  C
  C86      1.0000 0.41607  0.51993  0.41697  Biso   1.000  C
  H29      1.0000 0.36797  0.49493  0.41483  Biso   1.000  H
  C87      1.0000 0.45017  0.49703  0.43795  Biso   1.000  C
  C88      1.0000 0.52307  0.53023  0.43846  Biso   1.000  C
  H30      1.0000 0.54527  0.51203  0.45063  Biso   1.000  H
  C89      1.0000 0.40547  0.43672  0.46008  Biso   1.000  C
  C90      1.0000 0.92607  0.69913  0.46332  Biso   1.000  C
  In6      1.0000 0.10535  0.06146  0.66628  Biso   1.000  In
  O41      1.0000 0.12161  0.99754  0.70108  Biso   1.000  O
  O42      1.0000 0.54434  0.20902  0.70146  Biso   1.000  O
  O43      1.0000 0.64415  0.20590  0.70438  Biso   1.000  O
  O44      1.0000 0.02490  0.89584  0.70258  Biso   1.000  O
  O45      1.0000 0.00810  0.74550  0.79597  Biso   1.000  O
  O46      1.0000 0.10056  0.73451  0.80237  Biso   1.000  O
  O47      1.0000 0.65954  0.06811  0.79530  Biso   1.000  O
  O48      1.0000 0.56390  0.98406  0.81553  Biso   1.000  O
  C91      1.0000 0.57973  0.18617  0.71164  Biso   1.000  C
  C92      1.0000 0.47943  0.01157  0.77611  Biso   1.000  C
  H31      1.0000 0.45703  0.97487  0.79037  Biso   1.000  H
  C93      1.0000 0.44093  0.02947  0.75520  Biso   1.000  C
  C94      1.0000 0.55283  0.05087  0.77478  Biso   1.000  C
  C95      1.0000 0.58673  0.10847  0.75385  Biso   1.000  C
  H32      1.0000 0.63503  0.13417  0.75307  Biso   1.000  H
  C96      1.0000 0.54653  0.12647  0.73414  Biso   1.000  C
  C97      1.0000 0.47463  0.08777  0.73546  Biso   1.000  C
  H33      1.0000 0.44833  0.10077  0.72297  Biso   1.000  H
  C98      1.0000 0.12253  0.91432  0.73287  Biso   1.000  C
  C99      1.0000 0.08796  0.94080  0.71078  Biso   1.000  C
  C100     1.0000 0.19323  0.94667  0.73356  Biso   1.000  C
  H34      1.0000 0.21853  0.98457  0.72017  Biso   1.000  H
  C101     1.0000 0.36383  0.99087  0.75582  Biso   1.000  C
  C102     1.0000 0.30363  0.95937  0.75522  Biso   1.000  C
  C103     1.0000 0.22943  0.92497  0.75362  Biso   1.000  C
  C104     1.0000 0.08273  0.85327  0.75031  Biso   1.000  C
  H35      1.0000 0.03463  0.82827  0.74817  Biso   1.000  H
  C105     1.0000 0.11683  0.83037  0.77129  Biso   1.000  C
  C106     1.0000 0.18973  0.86357  0.77180  Biso   1.000  C
  H36      1.0000 0.21193  0.84537  0.78397  Biso   1.000  H
  C107     1.0000 0.07213  0.77006  0.79342  Biso   1.000  C
  C108     1.0000 0.59273  0.03247  0.79666  Biso   1.000  C
  In7      1.0000 0.60520  0.37722  0.99961  Biso   1.000  In
  O49      1.0000 0.66913  0.45741  0.03441  Biso   1.000  O
  O50      1.0000 0.45765  0.66866  0.03479  Biso   1.000  O
  O51      1.0000 0.46077  0.77159  0.03771  Biso   1.000  O
  O52      1.0000 0.77083  0.46240  0.03591  Biso   1.000  O
  O53      1.0000 0.92117  0.59594  0.12930  Biso   1.000  O
  O54      1.0000 0.93216  0.69939  0.13570  Biso   1.000  O
  O55      1.0000 0.59856  0.92477  0.12863  Biso   1.000  O
  O56      1.0000 0.68261  0.91318  0.14886  Biso   1.000  O
  C109     1.0000 0.48050  0.72690  0.04497  Biso   1.000  C
  C110     1.0000 0.65510  0.80120  0.10944  Biso   1.000  C
  H37      1.0000 0.69180  0.81550  0.12370  Biso   1.000  H
  C111     1.0000 0.63720  0.74480  0.08853  Biso   1.000  C
  C112     1.0000 0.61580  0.83530  0.10811  Biso   1.000  C
  C113     1.0000 0.55820  0.81160  0.08718  Biso   1.000  C
  H38      1.0000 0.53250  0.83420  0.08640  Biso   1.000  H
  C114     1.0000 0.54020  0.75340  0.06747  Biso   1.000  C
  C115     1.0000 0.57890  0.72020  0.06879  Biso   1.000  C
  H39      1.0000 0.56590  0.68090  0.05630  Biso   1.000  H
  C116     1.0000 0.75235  0.54155  0.06620  Biso   1.000  C
  C117     1.0000 0.72587  0.48050  0.04411  Biso   1.000  C
  C118     1.0000 0.72000  0.57990  0.06689  Biso   1.000  C
  H40      1.0000 0.68210  0.56730  0.05350  Biso   1.000  H
  C119     1.0000 0.67580  0.70630  0.08915  Biso   1.000  C
  C120     1.0000 0.70730  0.67760  0.08855  Biso   1.000  C
  C121     1.0000 0.74170  0.63780  0.08695  Biso   1.000  C
  C122     1.0000 0.81340  0.56280  0.08364  Biso   1.000  C
  H41      1.0000 0.83840  0.53970  0.08150  Biso   1.000  H
  C123     1.0000 0.83630  0.61980  0.10462  Biso   1.000  C
  C124     1.0000 0.80310  0.65950  0.10513  Biso   1.000  C
  H42      1.0000 0.82130  0.69990  0.11730  Biso   1.000  H
  C125     1.0000 0.89661  0.63541  0.12675  Biso   1.000  C
  C126     1.0000 0.63420  0.89360  0.12999  Biso   1.000  C
  In8      1.0000 0.27187  0.71056  0.33295  Biso   1.000  In
  O57      1.0000 0.33580  0.79074  0.36774  Biso   1.000  O
  O58      1.0000 0.12432  0.00199  0.36812  Biso   1.000  O
  O59      1.0000 0.12744  0.10492  0.37104  Biso   1.000  O
  O60      1.0000 0.43750  0.79573  0.36924  Biso   1.000  O
  O61      1.0000 0.58784  0.92927  0.46263  Biso   1.000  O
  O62      1.0000 0.59883  0.03272  0.46903  Biso   1.000  O
  O63      1.0000 0.26523  0.25810  0.46196  Biso   1.000  O
  O64      1.0000 0.34928  0.24651  0.48219  Biso   1.000  O
  C127     1.0000 0.14717  0.06023  0.37830  Biso   1.000  C
  C128     1.0000 0.32177  0.13453  0.44277  Biso   1.000  C
  H43      1.0000 0.35847  0.14883  0.45703  Biso   1.000  H
  C129     1.0000 0.30387  0.07813  0.42186  Biso   1.000  C
  C130     1.0000 0.28247  0.16863  0.44144  Biso   1.000  C
  C131     1.0000 0.22487  0.14493  0.42051  Biso   1.000  C
  H44      1.0000 0.19917  0.16753  0.41973  Biso   1.000  H
  C132     1.0000 0.20687  0.08673  0.40080  Biso   1.000  C
  C133     1.0000 0.24557  0.05353  0.40212  Biso   1.000  C
  H45      1.0000 0.23257  0.01423  0.38963  Biso   1.000  H
  C134     1.0000 0.41902  0.87488  0.39953  Biso   1.000  C
  C135     1.0000 0.39254  0.81383  0.37744  Biso   1.000  C
  C136     1.0000 0.38667  0.91323  0.40022  Biso   1.000  C
  H46      1.0000 0.34877  0.90063  0.38683  Biso   1.000  H
  C137     1.0000 0.34247  0.03963  0.42248  Biso   1.000  C
  C138     1.0000 0.37397  0.01093  0.42188  Biso   1.000  C
  C139     1.0000 0.40837  0.97113  0.42028  Biso   1.000  C
  C140     1.0000 0.48007  0.89613  0.41697  Biso   1.000  C
  H47      1.0000 0.50507  0.87303  0.41483  Biso   1.000  H
  C141     1.0000 0.50297  0.95313  0.43795  Biso   1.000  C
  C142     1.0000 0.46977  0.99283  0.43846  Biso   1.000  C
  H48      1.0000 0.48797  0.03323  0.45063  Biso   1.000  H
  C143     1.0000 0.56328  0.96874  0.46008  Biso   1.000  C
  C144     1.0000 0.30087  0.22693  0.46332  Biso   1.000  C
  In9      1.0000 0.93854  0.04389  0.66628  Biso   1.000  In
  O65      1.0000 0.00246  0.12408  0.70108  Biso   1.000  O
  O66      1.0000 0.79098  0.33533  0.70146  Biso   1.000  O
  O67      1.0000 0.79410  0.43826  0.70438  Biso   1.000  O
  O68      1.0000 0.10416  0.12907  0.70258  Biso   1.000  O
  O69      1.0000 0.25450  0.26261  0.79597  Biso   1.000  O
  O70      1.0000 0.26549  0.36606  0.80237  Biso   1.000  O
  O71      1.0000 0.93189  0.59144  0.79530  Biso   1.000  O
  O72      1.0000 0.01594  0.57985  0.81553  Biso   1.000  O
  C145     1.0000 0.81383  0.39357  0.71164  Biso   1.000  C
  C146     1.0000 0.98843  0.46787  0.77611  Biso   1.000  C
  H49      1.0000 0.02513  0.48217  0.79037  Biso   1.000  H
  C147     1.0000 0.97053  0.41147  0.75520  Biso   1.000  C
  C148     1.0000 0.94913  0.50197  0.77478  Biso   1.000  C
  C149     1.0000 0.89153  0.47827  0.75385  Biso   1.000  C
  H50      1.0000 0.86583  0.50087  0.75307  Biso   1.000  H
  C150     1.0000 0.87353  0.42007  0.73414  Biso   1.000  C
  C151     1.0000 0.91223  0.38687  0.73546  Biso   1.000  C
  H51      1.0000 0.89923  0.34757  0.72297  Biso   1.000  H
  C152     1.0000 0.08568  0.20822  0.73287  Biso   1.000  C
  C153     1.0000 0.05920  0.14717  0.71078  Biso   1.000  C
  C154     1.0000 0.05333  0.24657  0.73356  Biso   1.000  C
  H52      1.0000 0.01543  0.23397  0.72017  Biso   1.000  H
  C155     1.0000 0.00913  0.37297  0.75582  Biso   1.000  C
  C156     1.0000 0.04063  0.34427  0.75522  Biso   1.000  C
  C157     1.0000 0.07503  0.30447  0.75362  Biso   1.000  C
  C158     1.0000 0.14673  0.22947  0.75031  Biso   1.000  C
  H53      1.0000 0.17173  0.20637  0.74817  Biso   1.000  H
  C159     1.0000 0.16963  0.28647  0.77129  Biso   1.000  C
  C160     1.0000 0.13643  0.32617  0.77180  Biso   1.000  C
  H54      1.0000 0.15463  0.36657  0.78397  Biso   1.000  H
  C161     1.0000 0.22994  0.30208  0.79342  Biso   1.000  C
  C162     1.0000 0.96753  0.56027  0.79666  Biso   1.000  C
  In10     1.0000 0.22798  0.62278  0.00039  Biso   1.000  In
  O73      1.0000 0.21172  0.54259  0.96559  Biso   1.000  O
  O74      1.0000 0.78899  0.33134  0.96521  Biso   1.000  O
  O75      1.0000 0.68918  0.22841  0.96229  Biso   1.000  O
  O76      1.0000 0.30843  0.53760  0.96409  Biso   1.000  O
  O77      1.0000 0.32523  0.40406  0.87070  Biso   1.000  O
  O78      1.0000 0.23277  0.30061  0.86430  Biso   1.000  O
  O79      1.0000 0.67379  0.07523  0.87137  Biso   1.000  O
  O80      1.0000 0.76943  0.08682  0.85114  Biso   1.000  O
  C163     1.0000 0.75360  0.27310  0.95503  Biso   1.000  C
  C164     1.0000 0.85390  0.19880  0.89056  Biso   1.000  C
  H55      1.0000 0.87630  0.18450  0.87630  Biso   1.000  H
  C165     1.0000 0.89240  0.25520  0.91147  Biso   1.000  C
  C166     1.0000 0.78050  0.16470  0.89189  Biso   1.000  C
  C167     1.0000 0.74660  0.18840  0.91282  Biso   1.000  C
  H56      1.0000 0.69830  0.16580  0.91360  Biso   1.000  H
  C168     1.0000 0.78680  0.24660  0.93253  Biso   1.000  C
  C169     1.0000 0.85870  0.27980  0.93121  Biso   1.000  C
  H57      1.0000 0.88500  0.31910  0.94370  Biso   1.000  H
  C170     1.0000 0.21080  0.45845  0.93380  Biso   1.000  C
  C171     1.0000 0.24537  0.51950  0.95589  Biso   1.000  C
  C172     1.0000 0.14010  0.42010  0.93311  Biso   1.000  C
  H58      1.0000 0.11480  0.43270  0.94650  Biso   1.000  H
  C173     1.0000 0.96950  0.29370  0.91085  Biso   1.000  C
  C174     1.0000 0.02970  0.32240  0.91145  Biso   1.000  C
  C175     1.0000 0.10390  0.36220  0.91305  Biso   1.000  C
  C176     1.0000 0.25060  0.43720  0.91636  Biso   1.000  C
  H59      1.0000 0.29870  0.46030  0.91850  Biso   1.000  H
  C177     1.0000 0.21650  0.38020  0.89538  Biso   1.000  C
  C178     1.0000 0.14360  0.34050  0.89487  Biso   1.000  C
  H60      1.0000 0.12140  0.30010  0.88270  Biso   1.000  H
  C179     1.0000 0.26120  0.36459  0.87325  Biso   1.000  C
  C180     1.0000 0.74060  0.10640  0.87001  Biso   1.000  C
  In11     1.0000 0.89465  0.95611  0.33372  Biso   1.000  In
  O81      1.0000 0.87839  0.87592  0.29892  Biso   1.000  O
  O82      1.0000 0.45566  0.66467  0.29854  Biso   1.000  O
  O83      1.0000 0.35585  0.56174  0.29562  Biso   1.000  O
  O84      1.0000 0.97510  0.87093  0.29742  Biso   1.000  O
  O85      1.0000 0.99190  0.73739  0.20403  Biso   1.000  O
  O86      1.0000 0.89944  0.63394  0.19763  Biso   1.000  O
  O87      1.0000 0.34046  0.40856  0.20470  Biso   1.000  O
  O88      1.0000 0.43610  0.42015  0.18447  Biso   1.000  O
  C181     1.0000 0.42027  0.60643  0.28836  Biso   1.000  C
  C182     1.0000 0.52057  0.53213  0.22389  Biso   1.000  C
  H61      1.0000 0.54297  0.51783  0.20963  Biso   1.000  H
  C183     1.0000 0.55907  0.58853  0.24480  Biso   1.000  C
  C184     1.0000 0.44717  0.49803  0.22522  Biso   1.000  C
  C185     1.0000 0.41327  0.52173  0.24615  Biso   1.000  C
  H62      1.0000 0.36497  0.49913  0.24693  Biso   1.000  H
  C186     1.0000 0.45347  0.57993  0.26586  Biso   1.000  C
  C187     1.0000 0.52537  0.61313  0.26454  Biso   1.000  C
  H63      1.0000 0.55167  0.65243  0.27703  Biso   1.000  H
  C188     1.0000 0.87747  0.79178  0.26713  Biso   1.000  C
  C189     1.0000 0.91204  0.85283  0.28922  Biso   1.000  C
  C190     1.0000 0.80677  0.75343  0.26644  Biso   1.000  C
  H64      1.0000 0.78147  0.76603  0.27983  Biso   1.000  H
  C191     1.0000 0.63617  0.62703  0.24418  Biso   1.000  C
  C192     1.0000 0.69637  0.65573  0.24478  Biso   1.000  C
  C193     1.0000 0.77057  0.69553  0.24638  Biso   1.000  C
  C194     1.0000 0.91727  0.77053  0.24969  Biso   1.000  C
  H65      1.0000 0.96537  0.79363  0.25183  Biso   1.000  H
  C195     1.0000 0.88317  0.71353  0.22871  Biso   1.000  C
  C196     1.0000 0.81027  0.67383  0.22820  Biso   1.000  C
  H66      1.0000 0.78807  0.63343  0.21603  Biso   1.000  H
  C197     1.0000 0.92787  0.69792  0.20658  Biso   1.000  C
  C198     1.0000 0.40727  0.43973  0.20334  Biso   1.000  C
  In12     1.0000 0.56131  0.28944  0.66705  Biso   1.000  In
  O89      1.0000 0.54505  0.20926  0.63226  Biso   1.000  O
  O90      1.0000 0.12232  0.99801  0.63188  Biso   1.000  O
  O91      1.0000 0.02251  0.89508  0.62896  Biso   1.000  O
  O92      1.0000 0.64176  0.20427  0.63076  Biso   1.000  O
  O93      1.0000 0.65856  0.07073  0.53737  Biso   1.000  O
  O94      1.0000 0.56610  0.96728  0.53097  Biso   1.000  O
  O95      1.0000 0.00712  0.74190  0.53804  Biso   1.000  O
  O96      1.0000 0.10276  0.75349  0.51781  Biso   1.000  O
  C199     1.0000 0.08693  0.93977  0.62170  Biso   1.000  C
  C200     1.0000 0.18723  0.86547  0.55723  Biso   1.000  C
  H67      1.0000 0.20963  0.85117  0.54297  Biso   1.000  H
  C201     1.0000 0.22573  0.92187  0.57814  Biso   1.000  C
  C202     1.0000 0.11383  0.83137  0.55856  Biso   1.000  C
  C203     1.0000 0.07993  0.85507  0.57949  Biso   1.000  C
  H68      1.0000 0.03163  0.83247  0.58027  Biso   1.000  H
  C204     1.0000 0.12013  0.91327  0.59920  Biso   1.000  C
  C205     1.0000 0.19203  0.94647  0.59788  Biso   1.000  C
  H69      1.0000 0.21833  0.98577  0.61037  Biso   1.000  H
  C206     1.0000 0.54413  0.12512  0.60047  Biso   1.000  C
  C207     1.0000 0.57870  0.18617  0.62256  Biso   1.000  C
  C208     1.0000 0.47343  0.08677  0.59978  Biso   1.000  C
  H70      1.0000 0.44813  0.09937  0.61317  Biso   1.000  H
  C209     1.0000 0.30283  0.96037  0.57752  Biso   1.000  C
  C210     1.0000 0.36303  0.98907  0.57812  Biso   1.000  C
  C211     1.0000 0.43723  0.02887  0.57972  Biso   1.000  C
  C212     1.0000 0.58393  0.10387  0.58303  Biso   1.000  C
  H71      1.0000 0.63203  0.12697  0.58517  Biso   1.000  H
  C213     1.0000 0.54983  0.04687  0.56205  Biso   1.000  C
  C214     1.0000 0.47693  0.00717  0.56154  Biso   1.000  C
  H72      1.0000 0.45473  0.96677  0.54937  Biso   1.000  H
  C215     1.0000 0.59453  0.03126  0.53992  Biso   1.000  C
  C216     1.0000 0.07393  0.77307  0.53668  Biso   1.000  C
  In13     1.0000 0.39480  0.77202  0.00039  Biso   1.000  In
  O97      1.0000 0.33087  0.78828  0.96559  Biso   1.000  O
  O98      1.0000 0.54235  0.21101  0.96521  Biso   1.000  O
  O99      1.0000 0.53923  0.31082  0.96229  Biso   1.000  O
  O100     1.0000 0.22917  0.69157  0.96409  Biso   1.000  O
  O101     1.0000 0.07883  0.67477  0.87070  Biso   1.000  O
  O102     1.0000 0.06784  0.76723  0.86430  Biso   1.000  O
  O103     1.0000 0.40144  0.32621  0.87137  Biso   1.000  O
  O104     1.0000 0.31739  0.23057  0.85114  Biso   1.000  O
  C217     1.0000 0.51950  0.24640  0.95503  Biso   1.000  C
  C218     1.0000 0.34490  0.14610  0.89056  Biso   1.000  C
  H73      1.0000 0.30820  0.12370  0.87630  Biso   1.000  H
  C219     1.0000 0.36280  0.10760  0.91147  Biso   1.000  C
  C220     1.0000 0.38420  0.21950  0.89189  Biso   1.000  C
  C221     1.0000 0.44180  0.25340  0.91282  Biso   1.000  C
  H74      1.0000 0.46750  0.30170  0.91360  Biso   1.000  H
  C222     1.0000 0.45980  0.21320  0.93253  Biso   1.000  C
  C223     1.0000 0.42110  0.14130  0.93121  Biso   1.000  C
  H75      1.0000 0.43410  0.11500  0.94370  Biso   1.000  H
  C224     1.0000 0.24765  0.78920  0.93380  Biso   1.000  C
  C225     1.0000 0.27413  0.75463  0.95589  Biso   1.000  C
  C226     1.0000 0.28000  0.85990  0.93311  Biso   1.000  C
  H76      1.0000 0.31790  0.88520  0.94650  Biso   1.000  H
  C227     1.0000 0.32420  0.03050  0.91085  Biso   1.000  C
  C228     1.0000 0.29270  0.97030  0.91145  Biso   1.000  C
  C229     1.0000 0.25830  0.89610  0.91305  Biso   1.000  C
  C230     1.0000 0.18660  0.74940  0.91636  Biso   1.000  C
  H77      1.0000 0.16160  0.70130  0.91850  Biso   1.000  H
  C231     1.0000 0.16370  0.78350  0.89538  Biso   1.000  C
  C232     1.0000 0.19690  0.85640  0.89487  Biso   1.000  C
  H78      1.0000 0.17870  0.87860  0.88270  Biso   1.000  H
  C233     1.0000 0.10339  0.73880  0.87325  Biso   1.000  C
  C234     1.0000 0.36580  0.25940  0.87001  Biso   1.000  C
  In14     1.0000 0.06146  0.10535  0.33372  Biso   1.000  In
  O105     1.0000 0.99754  0.12161  0.29892  Biso   1.000  O
  O106     1.0000 0.20902  0.54434  0.29854  Biso   1.000  O
  O107     1.0000 0.20590  0.64415  0.29562  Biso   1.000  O
  O108     1.0000 0.89584  0.02490  0.29742  Biso   1.000  O
  O109     1.0000 0.74550  0.00810  0.20403  Biso   1.000  O
  O110     1.0000 0.73451  0.10056  0.19763  Biso   1.000  O
  O111     1.0000 0.06811  0.65954  0.20470  Biso   1.000  O
  O112     1.0000 0.98406  0.56390  0.18447  Biso   1.000  O
  C235     1.0000 0.18617  0.57973  0.28836  Biso   1.000  C
  C236     1.0000 0.01157  0.47943  0.22389  Biso   1.000  C
  H79      1.0000 0.97487  0.45703  0.20963  Biso   1.000  H
  C237     1.0000 0.02947  0.44093  0.24480  Biso   1.000  C
  C238     1.0000 0.05087  0.55283  0.22522  Biso   1.000  C
  C239     1.0000 0.10847  0.58673  0.24615  Biso   1.000  C
  H80      1.0000 0.13417  0.63503  0.24693  Biso   1.000  H
  C240     1.0000 0.12647  0.54653  0.26586  Biso   1.000  C
  C241     1.0000 0.08777  0.47463  0.26454  Biso   1.000  C
  H81      1.0000 0.10077  0.44833  0.27703  Biso   1.000  H
  C242     1.0000 0.91432  0.12253  0.26713  Biso   1.000  C
  C243     1.0000 0.94080  0.08796  0.28922  Biso   1.000  C
  C244     1.0000 0.94667  0.19323  0.26644  Biso   1.000  C
  H82      1.0000 0.98457  0.21853  0.27983  Biso   1.000  H
  C245     1.0000 0.99087  0.36383  0.24418  Biso   1.000  C
  C246     1.0000 0.95937  0.30363  0.24478  Biso   1.000  C
  C247     1.0000 0.92497  0.22943  0.24638  Biso   1.000  C
  C248     1.0000 0.85327  0.08273  0.24969  Biso   1.000  C
  H83      1.0000 0.82827  0.03463  0.25183  Biso   1.000  H
  C249     1.0000 0.83037  0.11683  0.22871  Biso   1.000  C
  C250     1.0000 0.86357  0.18973  0.22820  Biso   1.000  C
  H84      1.0000 0.84537  0.21193  0.21603  Biso   1.000  H
  C251     1.0000 0.77006  0.07213  0.20658  Biso   1.000  C
  C252     1.0000 0.03247  0.59273  0.20334  Biso   1.000  C
  In15     1.0000 0.72813  0.43869  0.66705  Biso   1.000  In
  O113     1.0000 0.66420  0.45495  0.63226  Biso   1.000  O
  O114     1.0000 0.87568  0.87768  0.63188  Biso   1.000  O
  O115     1.0000 0.87256  0.97749  0.62896  Biso   1.000  O
  O116     1.0000 0.56250  0.35824  0.63076  Biso   1.000  O
  O117     1.0000 0.41216  0.34144  0.53737  Biso   1.000  O
  O118     1.0000 0.40117  0.43390  0.53097  Biso   1.000  O
  O119     1.0000 0.73477  0.99288  0.53804  Biso   1.000  O
  O120     1.0000 0.65072  0.89724  0.51781  Biso   1.000  O
  C253     1.0000 0.85283  0.91307  0.62170  Biso   1.000  C
  C254     1.0000 0.67823  0.81277  0.55723  Biso   1.000  C
  H85      1.0000 0.64153  0.79037  0.54297  Biso   1.000  H
  C255     1.0000 0.69613  0.77427  0.57814  Biso   1.000  C
  C256     1.0000 0.71753  0.88617  0.55856  Biso   1.000  C
  C257     1.0000 0.77513  0.92007  0.57949  Biso   1.000  C
  H86      1.0000 0.80083  0.96837  0.58027  Biso   1.000  H
  C258     1.0000 0.79313  0.87987  0.59920  Biso   1.000  C
  C259     1.0000 0.75443  0.80797  0.59788  Biso   1.000  C
  H87      1.0000 0.76743  0.78167  0.61037  Biso   1.000  H
  C260     1.0000 0.58098  0.45587  0.60047  Biso   1.000  C
  C261     1.0000 0.60746  0.42130  0.62256  Biso   1.000  C
  C262     1.0000 0.61333  0.52657  0.59978  Biso   1.000  C
  H88      1.0000 0.65123  0.55187  0.61317  Biso   1.000  H
  C263     1.0000 0.65753  0.69717  0.57752  Biso   1.000  C
  C264     1.0000 0.62603  0.63697  0.57812  Biso   1.000  C
  C265     1.0000 0.59163  0.56277  0.57972  Biso   1.000  C
  C266     1.0000 0.51993  0.41607  0.58303  Biso   1.000  C
  H89      1.0000 0.49493  0.36797  0.58517  Biso   1.000  H
  C267     1.0000 0.49703  0.45017  0.56205  Biso   1.000  C
  C268     1.0000 0.53023  0.52307  0.56154  Biso   1.000  C
  H90      1.0000 0.51203  0.54527  0.54937  Biso   1.000  H
  C269     1.0000 0.43672  0.40547  0.53992  Biso   1.000  C
  C270     1.0000 0.69913  0.92607  0.53668  Biso   1.000  C
  In16     1.0000 0.37722  0.60520  0.00039  Biso   1.000  In
  O121     1.0000 0.45741  0.66913  0.96559  Biso   1.000  O
  O122     1.0000 0.66866  0.45765  0.96521  Biso   1.000  O
  O123     1.0000 0.77159  0.46077  0.96229  Biso   1.000  O
  O124     1.0000 0.46240  0.77083  0.96409  Biso   1.000  O
  O125     1.0000 0.59594  0.92117  0.87070  Biso   1.000  O
  O126     1.0000 0.69939  0.93216  0.86430  Biso   1.000  O
  O127     1.0000 0.92477  0.59856  0.87137  Biso   1.000  O
  O128     1.0000 0.91318  0.68261  0.85114  Biso   1.000  O
  C271     1.0000 0.72690  0.48050  0.95503  Biso   1.000  C
  C272     1.0000 0.80120  0.65510  0.89056  Biso   1.000  C
  H91      1.0000 0.81550  0.69180  0.87630  Biso   1.000  H
  C273     1.0000 0.74480  0.63720  0.91147  Biso   1.000  C
  C274     1.0000 0.83530  0.61580  0.89189  Biso   1.000  C
  C275     1.0000 0.81160  0.55820  0.91282  Biso   1.000  C
  H92      1.0000 0.83420  0.53250  0.91360  Biso   1.000  H
  C276     1.0000 0.75340  0.54020  0.93253  Biso   1.000  C
  C277     1.0000 0.72020  0.57890  0.93121  Biso   1.000  C
  H93      1.0000 0.68090  0.56590  0.94370  Biso   1.000  H
  C278     1.0000 0.54155  0.75235  0.93380  Biso   1.000  C
  C279     1.0000 0.48050  0.72587  0.95589  Biso   1.000  C
  C280     1.0000 0.57990  0.72000  0.93311  Biso   1.000  C
  H94      1.0000 0.56730  0.68210  0.94650  Biso   1.000  H
  C281     1.0000 0.70630  0.67580  0.91085  Biso   1.000  C
  C282     1.0000 0.67760  0.70730  0.91145  Biso   1.000  C
  C283     1.0000 0.63780  0.74170  0.91305  Biso   1.000  C
  C284     1.0000 0.56280  0.81340  0.91636  Biso   1.000  C
  H95      1.0000 0.53970  0.83840  0.91850  Biso   1.000  H
  C285     1.0000 0.61980  0.83630  0.89538  Biso   1.000  C
  C286     1.0000 0.65950  0.80310  0.89487  Biso   1.000  C
  H96      1.0000 0.69990  0.82130  0.88270  Biso   1.000  H
  C287     1.0000 0.63541  0.89661  0.87325  Biso   1.000  C
  C288     1.0000 0.89360  0.63420  0.87001  Biso   1.000  C
  In17     1.0000 0.04389  0.93854  0.33372  Biso   1.000  In
  O129     1.0000 0.12408  0.00246  0.29892  Biso   1.000  O
  O130     1.0000 0.33533  0.79098  0.29854  Biso   1.000  O
  O131     1.0000 0.43826  0.79410  0.29562  Biso   1.000  O
  O132     1.0000 0.12907  0.10416  0.29742  Biso   1.000  O
  O133     1.0000 0.26261  0.25450  0.20403  Biso   1.000  O
  O134     1.0000 0.36606  0.26549  0.19763  Biso   1.000  O
  O135     1.0000 0.59144  0.93189  0.20470  Biso   1.000  O
  O136     1.0000 0.57985  0.01594  0.18447  Biso   1.000  O
  C289     1.0000 0.39357  0.81383  0.28836  Biso   1.000  C
  C290     1.0000 0.46787  0.98843  0.22389  Biso   1.000  C
  H97      1.0000 0.48217  0.02513  0.20963  Biso   1.000  H
  C291     1.0000 0.41147  0.97053  0.24480  Biso   1.000  C
  C292     1.0000 0.50197  0.94913  0.22522  Biso   1.000  C
  C293     1.0000 0.47827  0.89153  0.24615  Biso   1.000  C
  H98      1.0000 0.50087  0.86583  0.24693  Biso   1.000  H
  C294     1.0000 0.42007  0.87353  0.26586  Biso   1.000  C
  C295     1.0000 0.38687  0.91223  0.26454  Biso   1.000  C
  H99      1.0000 0.34757  0.89923  0.27703  Biso   1.000  H
  C296     1.0000 0.20822  0.08568  0.26713  Biso   1.000  C
  C297     1.0000 0.14717  0.05920  0.28922  Biso   1.000  C
  C298     1.0000 0.24657  0.05333  0.26644  Biso   1.000  C
  H100     1.0000 0.23397  0.01543  0.27983  Biso   1.000  H
  C299     1.0000 0.37297  0.00913  0.24418  Biso   1.000  C
  C300     1.0000 0.34427  0.04063  0.24478  Biso   1.000  C
  C301     1.0000 0.30447  0.07503  0.24638  Biso   1.000  C
  C302     1.0000 0.22947  0.14673  0.24969  Biso   1.000  C
  H101     1.0000 0.20637  0.17173  0.25183  Biso   1.000  H
  C303     1.0000 0.28647  0.16963  0.22871  Biso   1.000  C
  C304     1.0000 0.32617  0.13643  0.22820  Biso   1.000  C
  H102     1.0000 0.36657  0.15463  0.21603  Biso   1.000  H
  C305     1.0000 0.30208  0.22994  0.20658  Biso   1.000  C
  C306     1.0000 0.56027  0.96753  0.20334  Biso   1.000  C
  In18     1.0000 0.71056  0.27187  0.66705  Biso   1.000  In
  O137     1.0000 0.79074  0.33580  0.63226  Biso   1.000  O
  O138     1.0000 0.00199  0.12432  0.63188  Biso   1.000  O
  O139     1.0000 0.10492  0.12744  0.62896  Biso   1.000  O
  O140     1.0000 0.79573  0.43750  0.63076  Biso   1.000  O
  O141     1.0000 0.92927  0.58784  0.53737  Biso   1.000  O
  O142     1.0000 0.03272  0.59883  0.53097  Biso   1.000  O
  O143     1.0000 0.25810  0.26523  0.53804  Biso   1.000  O
  O144     1.0000 0.24651  0.34928  0.51781  Biso   1.000  O
  C307     1.0000 0.06023  0.14717  0.62170  Biso   1.000  C
  C308     1.0000 0.13453  0.32177  0.55723  Biso   1.000  C
  H103     1.0000 0.14883  0.35847  0.54297  Biso   1.000  H
  C309     1.0000 0.07813  0.30387  0.57814  Biso   1.000  C
  C310     1.0000 0.16863  0.28247  0.55856  Biso   1.000  C
  C311     1.0000 0.14493  0.22487  0.57949  Biso   1.000  C
  H104     1.0000 0.16753  0.19917  0.58027  Biso   1.000  H
  C312     1.0000 0.08673  0.20687  0.59920  Biso   1.000  C
  C313     1.0000 0.05353  0.24557  0.59788  Biso   1.000  C
  H105     1.0000 0.01423  0.23257  0.61037  Biso   1.000  H
  C314     1.0000 0.87488  0.41902  0.60047  Biso   1.000  C
  C315     1.0000 0.81383  0.39254  0.62256  Biso   1.000  C
  C316     1.0000 0.91323  0.38667  0.59978  Biso   1.000  C
  H106     1.0000 0.90063  0.34877  0.61317  Biso   1.000  H
  C317     1.0000 0.03963  0.34247  0.57752  Biso   1.000  C
  C318     1.0000 0.01093  0.37397  0.57812  Biso   1.000  C
  C319     1.0000 0.97113  0.40837  0.57972  Biso   1.000  C
  C320     1.0000 0.89613  0.48007  0.58303  Biso   1.000  C
  H107     1.0000 0.87303  0.50507  0.58517  Biso   1.000  H
  C321     1.0000 0.95313  0.50297  0.56205  Biso   1.000  C
  C322     1.0000 0.99283  0.46977  0.56154  Biso   1.000  C
  H108     1.0000 0.03323  0.48797  0.54937  Biso   1.000  H
  C323     1.0000 0.96874  0.56328  0.53992  Biso   1.000  C
  C324     1.0000 0.22693  0.30087  0.53668  Biso   1.000  C
  In19     1.0000 0.33333  0.33183  0.16667  Biso   1.000  In
  In20     1.0000 0.00000  0.66516  0.50000  Biso   1.000  In
  In21     1.0000 0.66817  0.00150  0.16667  Biso   1.000  In
  In22     1.0000 0.33484  0.33484  0.50000  Biso   1.000  In
  In23     1.0000 0.99850  0.66667  0.16667  Biso   1.000  In
  In24     1.0000 0.66516  0.00000  0.50000  Biso   1.000  In
  In25     1.0000 0.33183  0.33333  0.83333  Biso   1.000  In
  In26     1.0000 0.00150  0.66817  0.83333  Biso   1.000  In
  In27     1.0000 0.66667  0.99850  0.83333  Biso   1.000  In
  O145     1.0000 0.66667  0.33333  0.00009  Biso   1.000  O
  O146     1.0000 0.33333  0.66667  0.33342  Biso   1.000  O
  O147     1.0000 0.00000  0.00000  0.66676  Biso   1.000  O
  O148     1.0000 0.33333  0.66667  0.99991  Biso   1.000  O
  O149     1.0000 0.00000  0.00000  0.33324  Biso   1.000  O
  O150     1.0000 0.66667  0.33333  0.66658  Biso   1.000  O
