data_image0
_cell_length_a       11.45
_cell_length_b       11.467
_cell_length_c       20.944
_cell_angle_alpha    90
_cell_angle_beta     90
_cell_angle_gamma    90

_symmetry_space_group_name_H-M    "P 1"
_symmetry_int_tables_number       1

loop_
  _symmetry_equiv_pos_as_xyz
  'x, y, z'

loop_
  _atom_site_label
  _atom_site_occupancy
  _atom_site_fract_x
  _atom_site_fract_y
  _atom_site_fract_z
  _atom_site_thermal_displace_type
  _atom_site_B_iso_or_equiv
  _atom_site_type_symbol
  C1       1.0000 0.03930  0.74740  0.70010  Biso   1.000  C
  C2       1.0000 0.03830  0.62750  0.69720  Biso   1.000  C
  C3       1.0000 0.74850  0.95490  0.70270  Biso   1.000  C
  C4       1.0000 0.62830  0.95550  0.70050  Biso   1.000  C
  H1       1.0000 0.06880  0.78810  0.66550  Biso   1.000  H
  H2       1.0000 0.06420  0.58930  0.66030  Biso   1.000  H
  H3       1.0000 0.79000  0.91920  0.66900  Biso   1.000  H
  H4       1.0000 0.59030  0.92280  0.66530  Biso   1.000  H
  C5       1.0000 0.96070  0.25260  0.70010  Biso   1.000  C
  C6       1.0000 0.96170  0.37250  0.69720  Biso   1.000  C
  C7       1.0000 0.25150  0.04510  0.70270  Biso   1.000  C
  C8       1.0000 0.37170  0.04450  0.70050  Biso   1.000  C
  H5       1.0000 0.93120  0.21190  0.66550  Biso   1.000  H
  H6       1.0000 0.93580  0.41070  0.66030  Biso   1.000  H
  H7       1.0000 0.21000  0.08080  0.66900  Biso   1.000  H
  H8       1.0000 0.40970  0.07720  0.66530  Biso   1.000  H
  C9       1.0000 0.96070  0.74740  0.79990  Biso   1.000  C
  C10      1.0000 0.96170  0.62750  0.80280  Biso   1.000  C
  C11      1.0000 0.25150  0.95490  0.79730  Biso   1.000  C
  C12      1.0000 0.37170  0.95550  0.79950  Biso   1.000  C
  H9       1.0000 0.93120  0.78810  0.83450  Biso   1.000  H
  H10      1.0000 0.93580  0.58930  0.83970  Biso   1.000  H
  H11      1.0000 0.21000  0.91920  0.83100  Biso   1.000  H
  H12      1.0000 0.40970  0.92280  0.83470  Biso   1.000  H
  C13      1.0000 0.03930  0.25260  0.79990  Biso   1.000  C
  C14      1.0000 0.03830  0.37250  0.80280  Biso   1.000  C
  C15      1.0000 0.74850  0.04510  0.79730  Biso   1.000  C
  C16      1.0000 0.62830  0.04450  0.79950  Biso   1.000  C
  H13      1.0000 0.06880  0.21190  0.83450  Biso   1.000  H
  H14      1.0000 0.06420  0.41070  0.83970  Biso   1.000  H
  H15      1.0000 0.79000  0.08080  0.83100  Biso   1.000  H
  H16      1.0000 0.59030  0.07720  0.83470  Biso   1.000  H
  C17      1.0000 0.96070  0.25260  0.29990  Biso   1.000  C
  C18      1.0000 0.96170  0.37250  0.30280  Biso   1.000  C
  C19      1.0000 0.25150  0.04510  0.29730  Biso   1.000  C
  C20      1.0000 0.37170  0.04450  0.29950  Biso   1.000  C
  H17      1.0000 0.93120  0.21190  0.33450  Biso   1.000  H
  H18      1.0000 0.93580  0.41070  0.33970  Biso   1.000  H
  H19      1.0000 0.21000  0.08080  0.33100  Biso   1.000  H
  H20      1.0000 0.40970  0.07720  0.33470  Biso   1.000  H
  C21      1.0000 0.03930  0.74740  0.29990  Biso   1.000  C
  C22      1.0000 0.03830  0.62750  0.30280  Biso   1.000  C
  C23      1.0000 0.74850  0.95490  0.29730  Biso   1.000  C
  C24      1.0000 0.62830  0.95550  0.29950  Biso   1.000  C
  H21      1.0000 0.06880  0.78810  0.33450  Biso   1.000  H
  H22      1.0000 0.06420  0.58930  0.33970  Biso   1.000  H
  H23      1.0000 0.79000  0.91920  0.33100  Biso   1.000  H
  H24      1.0000 0.59030  0.92280  0.33470  Biso   1.000  H
  C25      1.0000 0.03930  0.25260  0.20010  Biso   1.000  C
  C26      1.0000 0.03830  0.37250  0.19720  Biso   1.000  C
  C27      1.0000 0.74850  0.04510  0.20270  Biso   1.000  C
  C28      1.0000 0.62830  0.04450  0.20050  Biso   1.000  C
  H25      1.0000 0.06880  0.21190  0.16550  Biso   1.000  H
  H26      1.0000 0.06420  0.41070  0.16030  Biso   1.000  H
  H27      1.0000 0.79000  0.08080  0.16900  Biso   1.000  H
  H28      1.0000 0.59030  0.07720  0.16530  Biso   1.000  H
  C29      1.0000 0.96070  0.74740  0.20010  Biso   1.000  C
  C30      1.0000 0.96170  0.62750  0.19720  Biso   1.000  C
  C31      1.0000 0.25150  0.95490  0.20270  Biso   1.000  C
  C32      1.0000 0.37170  0.95550  0.20050  Biso   1.000  C
  H29      1.0000 0.93120  0.78810  0.16550  Biso   1.000  H
  H30      1.0000 0.93580  0.58930  0.16030  Biso   1.000  H
  H31      1.0000 0.21000  0.91920  0.16900  Biso   1.000  H
  H32      1.0000 0.40970  0.92280  0.16530  Biso   1.000  H
  Au1      1.0000 0.00000  0.00000  0.50000  Biso   1.000  Au
  Au2      1.0000 0.00000  0.00000  0.00000  Biso   1.000  Au
  Br1      1.0000 0.06060  0.79633  0.50000  Biso   1.000  Br
  Br2      1.0000 0.93940  0.20367  0.50000  Biso   1.000  Br
  Br3      1.0000 0.93940  0.79633  0.00000  Biso   1.000  Br
  Br4      1.0000 0.06060  0.20367  0.00000  Biso   1.000  Br
  Co1      1.0000 0.00000  0.00000  0.75000  Biso   1.000  Co
  Co2      1.0000 0.00000  0.00000  0.25000  Biso   1.000  Co
  N1       1.0000 0.00000  0.00000  0.64930  Biso   1.000  N
  C33      1.0000 0.00000  0.00000  0.59450  Biso   1.000  C
  N2       1.0000 0.00000  0.00000  0.85070  Biso   1.000  N
  C34      1.0000 0.00000  0.00000  0.90550  Biso   1.000  C
  N3       1.0000 0.00000  0.00000  0.35070  Biso   1.000  N
  C35      1.0000 0.00000  0.00000  0.40550  Biso   1.000  C
  N4       1.0000 0.00000  0.00000  0.14930  Biso   1.000  N
  C36      1.0000 0.00000  0.00000  0.09450  Biso   1.000  C
  N5       1.0000 0.00000  0.81140  0.75000  Biso   1.000  N
  C37      1.0000 0.00000  0.56450  0.75000  Biso   1.000  C
  N6       1.0000 0.00000  0.18860  0.75000  Biso   1.000  N
  C38      1.0000 0.00000  0.43550  0.75000  Biso   1.000  C
  N7       1.0000 0.00000  0.18860  0.25000  Biso   1.000  N
  C39      1.0000 0.00000  0.43550  0.25000  Biso   1.000  C
  N8       1.0000 0.00000  0.81140  0.25000  Biso   1.000  N
  C40      1.0000 0.00000  0.56450  0.25000  Biso   1.000  C
  N9       1.0000 0.81010  0.00000  0.75000  Biso   1.000  N
  C41      1.0000 0.56440  0.00000  0.75000  Biso   1.000  C
  N10      1.0000 0.18990  0.00000  0.75000  Biso   1.000  N
  C42      1.0000 0.43560  0.00000  0.75000  Biso   1.000  C
  N11      1.0000 0.18990  0.00000  0.25000  Biso   1.000  N
  C43      1.0000 0.43560  0.00000  0.25000  Biso   1.000  C
  N12      1.0000 0.81010  0.00000  0.25000  Biso   1.000  N
  C44      1.0000 0.56440  0.00000  0.25000  Biso   1.000  C
