data_image0
_cell_length_a       23.024
_cell_length_b       23.024
_cell_length_c       18.6484
_cell_angle_alpha    90
_cell_angle_beta     90
_cell_angle_gamma    90

_symmetry_space_group_name_H-M    "P 1"
_symmetry_int_tables_number       1

loop_
  _symmetry_equiv_pos_as_xyz
  'x, y, z'

loop_
  _atom_site_label
  _atom_site_occupancy
  _atom_site_fract_x
  _atom_site_fract_y
  _atom_site_fract_z
  _atom_site_thermal_displace_type
  _atom_site_B_iso_or_equiv
  _atom_site_type_symbol
  O1       1.0000 0.44250  0.15730  0.06890  Biso   1.000  O
  C1       1.0000 0.40480  0.13930  0.11300  Biso   1.000  C
  O2       1.0000 0.39420  0.08770  0.12940  Biso   1.000  O
  C2       1.0000 0.37290  0.18390  0.15580  Biso   1.000  C
  C3       1.0000 0.37160  0.24180  0.13490  Biso   1.000  C
  C4       1.0000 0.34090  0.16568  0.21480  Biso   1.000  C
  H1       1.0000 0.39350  0.25430  0.09460  Biso   1.000  H
  C5       1.0000 0.33840  0.28158  0.17320  Biso   1.000  C
  C6       1.0000 0.30760  0.20540  0.25310  Biso   1.000  C
  H2       1.0000 0.34170  0.12610  0.22910  Biso   1.000  H
  C7       1.0000 0.30630  0.26340  0.23220  Biso   1.000  C
  N1       1.0000 0.34140  0.34110  0.14470  Biso   1.000  N
  N2       1.0000 0.27590  0.17980  0.31460  Biso   1.000  N
  O3       1.0000 0.38750  0.36040  0.12330  Biso   1.000  O
  O4       1.0000 0.29410  0.36760  0.14500  Biso   1.000  O
  O5       1.0000 0.30080  0.14450  0.35240  Biso   1.000  O
  O6       1.0000 0.22510  0.19670  0.32300  Biso   1.000  O
  O7       1.0000 0.33900  0.34950  0.08020  Biso   1.000  O
  O8       1.0000 0.34680  0.38020  0.19060  Biso   1.000  O
  O9       1.0000 0.27150  0.20830  0.36990  Biso   1.000  O
  O10      1.0000 0.25540  0.13080  0.30720  Biso   1.000  O
  O11      1.0000 0.55750  0.84270  0.06890  Biso   1.000  O
  C8       1.0000 0.59520  0.86070  0.11300  Biso   1.000  C
  O12      1.0000 0.60580  0.91230  0.12940  Biso   1.000  O
  C9       1.0000 0.62710  0.81610  0.15580  Biso   1.000  C
  C10      1.0000 0.62840  0.75820  0.13490  Biso   1.000  C
  C11      1.0000 0.65910  0.83432  0.21480  Biso   1.000  C
  H3       1.0000 0.60650  0.74570  0.09460  Biso   1.000  H
  C12      1.0000 0.66160  0.71842  0.17320  Biso   1.000  C
  C13      1.0000 0.69240  0.79460  0.25310  Biso   1.000  C
  H4       1.0000 0.65830  0.87390  0.22910  Biso   1.000  H
  C14      1.0000 0.69370  0.73660  0.23220  Biso   1.000  C
  N3       1.0000 0.65860  0.65890  0.14470  Biso   1.000  N
  N4       1.0000 0.72410  0.82020  0.31460  Biso   1.000  N
  O13      1.0000 0.61250  0.63960  0.12330  Biso   1.000  O
  O14      1.0000 0.70590  0.63240  0.14500  Biso   1.000  O
  O15      1.0000 0.69920  0.85550  0.35240  Biso   1.000  O
  O16      1.0000 0.77490  0.80330  0.32300  Biso   1.000  O
  O17      1.0000 0.66100  0.65050  0.08020  Biso   1.000  O
  O18      1.0000 0.65320  0.61980  0.19060  Biso   1.000  O
  O19      1.0000 0.72850  0.79170  0.36990  Biso   1.000  O
  O20      1.0000 0.74460  0.86920  0.30720  Biso   1.000  O
  O21      1.0000 0.84270  0.44250  0.56890  Biso   1.000  O
  C15      1.0000 0.86070  0.40480  0.61300  Biso   1.000  C
  O22      1.0000 0.91230  0.39420  0.62940  Biso   1.000  O
  C16      1.0000 0.81610  0.37290  0.65580  Biso   1.000  C
  C17      1.0000 0.75820  0.37160  0.63490  Biso   1.000  C
  C18      1.0000 0.83432  0.34090  0.71480  Biso   1.000  C
  H5       1.0000 0.74570  0.39350  0.59460  Biso   1.000  H
  C19      1.0000 0.71842  0.33840  0.67320  Biso   1.000  C
  C20      1.0000 0.79460  0.30760  0.75310  Biso   1.000  C
  H6       1.0000 0.87390  0.34170  0.72910  Biso   1.000  H
  C21      1.0000 0.73660  0.30630  0.73220  Biso   1.000  C
  N5       1.0000 0.65890  0.34140  0.64470  Biso   1.000  N
  N6       1.0000 0.82020  0.27590  0.81460  Biso   1.000  N
  O23      1.0000 0.63960  0.38750  0.62330  Biso   1.000  O
  O24      1.0000 0.63240  0.29410  0.64500  Biso   1.000  O
  O25      1.0000 0.85550  0.30080  0.85240  Biso   1.000  O
  O26      1.0000 0.80330  0.22510  0.82300  Biso   1.000  O
  O27      1.0000 0.65050  0.33900  0.58020  Biso   1.000  O
  O28      1.0000 0.61980  0.34680  0.69060  Biso   1.000  O
  O29      1.0000 0.79170  0.27150  0.86990  Biso   1.000  O
  O30      1.0000 0.86920  0.25540  0.80720  Biso   1.000  O
  O31      1.0000 0.15730  0.55750  0.56890  Biso   1.000  O
  C22      1.0000 0.13930  0.59520  0.61300  Biso   1.000  C
  O32      1.0000 0.08770  0.60580  0.62940  Biso   1.000  O
  C23      1.0000 0.18390  0.62710  0.65580  Biso   1.000  C
  C24      1.0000 0.24180  0.62840  0.63490  Biso   1.000  C
  C25      1.0000 0.16568  0.65910  0.71480  Biso   1.000  C
  H7       1.0000 0.25430  0.60650  0.59460  Biso   1.000  H
  C26      1.0000 0.28158  0.66160  0.67320  Biso   1.000  C
  C27      1.0000 0.20540  0.69240  0.75310  Biso   1.000  C
  H8       1.0000 0.12610  0.65830  0.72910  Biso   1.000  H
  C28      1.0000 0.26340  0.69370  0.73220  Biso   1.000  C
  N7       1.0000 0.34110  0.65860  0.64470  Biso   1.000  N
  N8       1.0000 0.17980  0.72410  0.81460  Biso   1.000  N
  O33      1.0000 0.36040  0.61250  0.62330  Biso   1.000  O
  O34      1.0000 0.36760  0.70590  0.64500  Biso   1.000  O
  O35      1.0000 0.14450  0.69920  0.85240  Biso   1.000  O
  O36      1.0000 0.19670  0.77490  0.82300  Biso   1.000  O
  O37      1.0000 0.34950  0.66100  0.58020  Biso   1.000  O
  O38      1.0000 0.38020  0.65320  0.69060  Biso   1.000  O
  O39      1.0000 0.20830  0.72850  0.86990  Biso   1.000  O
  O40      1.0000 0.13080  0.74460  0.80720  Biso   1.000  O
  O41      1.0000 0.55750  0.15730  0.93110  Biso   1.000  O
  C29      1.0000 0.59520  0.13930  0.88700  Biso   1.000  C
  O42      1.0000 0.60580  0.08770  0.87060  Biso   1.000  O
  C30      1.0000 0.62710  0.18390  0.84420  Biso   1.000  C
  C31      1.0000 0.62840  0.24180  0.86510  Biso   1.000  C
  C32      1.0000 0.65910  0.16568  0.78520  Biso   1.000  C
  H9       1.0000 0.60650  0.25430  0.90540  Biso   1.000  H
  C33      1.0000 0.66160  0.28158  0.82680  Biso   1.000  C
  C34      1.0000 0.69240  0.20540  0.74690  Biso   1.000  C
  H10      1.0000 0.65830  0.12610  0.77090  Biso   1.000  H
  C35      1.0000 0.69370  0.26340  0.76780  Biso   1.000  C
  N9       1.0000 0.65860  0.34110  0.85530  Biso   1.000  N
  N10      1.0000 0.72410  0.17980  0.68540  Biso   1.000  N
  O43      1.0000 0.61250  0.36040  0.87670  Biso   1.000  O
  O44      1.0000 0.70590  0.36760  0.85500  Biso   1.000  O
  O45      1.0000 0.69920  0.14450  0.64760  Biso   1.000  O
  O46      1.0000 0.77490  0.19670  0.67700  Biso   1.000  O
  O47      1.0000 0.66100  0.34950  0.91980  Biso   1.000  O
  O48      1.0000 0.65320  0.38020  0.80940  Biso   1.000  O
  O49      1.0000 0.72850  0.20830  0.63010  Biso   1.000  O
  O50      1.0000 0.74460  0.13080  0.69280  Biso   1.000  O
  O51      1.0000 0.44250  0.84270  0.93110  Biso   1.000  O
  C36      1.0000 0.40480  0.86070  0.88700  Biso   1.000  C
  O52      1.0000 0.39420  0.91230  0.87060  Biso   1.000  O
  C37      1.0000 0.37290  0.81610  0.84420  Biso   1.000  C
  C38      1.0000 0.37160  0.75820  0.86510  Biso   1.000  C
  C39      1.0000 0.34090  0.83432  0.78520  Biso   1.000  C
  H11      1.0000 0.39350  0.74570  0.90540  Biso   1.000  H
  C40      1.0000 0.33840  0.71842  0.82680  Biso   1.000  C
  C41      1.0000 0.30760  0.79460  0.74690  Biso   1.000  C
  H12      1.0000 0.34170  0.87390  0.77090  Biso   1.000  H
  C42      1.0000 0.30630  0.73660  0.76780  Biso   1.000  C
  N11      1.0000 0.34140  0.65890  0.85530  Biso   1.000  N
  N12      1.0000 0.27590  0.82020  0.68540  Biso   1.000  N
  O53      1.0000 0.38750  0.63960  0.87670  Biso   1.000  O
  O54      1.0000 0.29410  0.63240  0.85500  Biso   1.000  O
  O55      1.0000 0.30080  0.85550  0.64760  Biso   1.000  O
  O56      1.0000 0.22510  0.80330  0.67700  Biso   1.000  O
  O57      1.0000 0.33900  0.65050  0.91980  Biso   1.000  O
  O58      1.0000 0.34680  0.61980  0.80940  Biso   1.000  O
  O59      1.0000 0.27150  0.79170  0.63010  Biso   1.000  O
  O60      1.0000 0.25540  0.86920  0.69280  Biso   1.000  O
  O61      1.0000 0.15730  0.44250  0.43110  Biso   1.000  O
  C43      1.0000 0.13930  0.40480  0.38700  Biso   1.000  C
  O62      1.0000 0.08770  0.39420  0.37060  Biso   1.000  O
  C44      1.0000 0.18390  0.37290  0.34420  Biso   1.000  C
  C45      1.0000 0.24180  0.37160  0.36510  Biso   1.000  C
  C46      1.0000 0.16568  0.34090  0.28520  Biso   1.000  C
  H13      1.0000 0.25430  0.39350  0.40540  Biso   1.000  H
  C47      1.0000 0.28158  0.33840  0.32680  Biso   1.000  C
  C48      1.0000 0.20540  0.30760  0.24690  Biso   1.000  C
  H14      1.0000 0.12610  0.34170  0.27090  Biso   1.000  H
  C49      1.0000 0.26340  0.30630  0.26780  Biso   1.000  C
  N13      1.0000 0.34110  0.34140  0.35530  Biso   1.000  N
  N14      1.0000 0.17980  0.27590  0.18540  Biso   1.000  N
  O63      1.0000 0.36040  0.38750  0.37670  Biso   1.000  O
  O64      1.0000 0.36760  0.29410  0.35500  Biso   1.000  O
  O65      1.0000 0.14450  0.30080  0.14760  Biso   1.000  O
  O66      1.0000 0.19670  0.22510  0.17700  Biso   1.000  O
  O67      1.0000 0.34950  0.33900  0.41980  Biso   1.000  O
  O68      1.0000 0.38020  0.34680  0.30940  Biso   1.000  O
  O69      1.0000 0.20830  0.27150  0.13010  Biso   1.000  O
  O70      1.0000 0.13080  0.25540  0.19280  Biso   1.000  O
  O71      1.0000 0.84270  0.55750  0.43110  Biso   1.000  O
  C50      1.0000 0.86070  0.59520  0.38700  Biso   1.000  C
  O72      1.0000 0.91230  0.60580  0.37060  Biso   1.000  O
  C51      1.0000 0.81610  0.62710  0.34420  Biso   1.000  C
  C52      1.0000 0.75820  0.62840  0.36510  Biso   1.000  C
  C53      1.0000 0.83432  0.65910  0.28520  Biso   1.000  C
  H15      1.0000 0.74570  0.60650  0.40540  Biso   1.000  H
  C54      1.0000 0.71842  0.66160  0.32680  Biso   1.000  C
  C55      1.0000 0.79460  0.69240  0.24690  Biso   1.000  C
  H16      1.0000 0.87390  0.65830  0.27090  Biso   1.000  H
  C56      1.0000 0.73660  0.69370  0.26780  Biso   1.000  C
  N15      1.0000 0.65890  0.65860  0.35530  Biso   1.000  N
  N16      1.0000 0.82020  0.72410  0.18540  Biso   1.000  N
  O73      1.0000 0.63960  0.61250  0.37670  Biso   1.000  O
  O74      1.0000 0.63240  0.70590  0.35500  Biso   1.000  O
  O75      1.0000 0.85550  0.69920  0.14760  Biso   1.000  O
  O76      1.0000 0.80330  0.77490  0.17700  Biso   1.000  O
  O77      1.0000 0.65050  0.66100  0.41980  Biso   1.000  O
  O78      1.0000 0.61980  0.65320  0.30940  Biso   1.000  O
  O79      1.0000 0.79170  0.72850  0.13010  Biso   1.000  O
  O80      1.0000 0.86920  0.74460  0.19280  Biso   1.000  O
  O81      1.0000 0.55750  0.84270  0.93110  Biso   1.000  O
  C57      1.0000 0.59520  0.86070  0.88700  Biso   1.000  C
  O82      1.0000 0.60580  0.91230  0.87060  Biso   1.000  O
  C58      1.0000 0.62710  0.81610  0.84420  Biso   1.000  C
  C59      1.0000 0.62840  0.75820  0.86510  Biso   1.000  C
  C60      1.0000 0.65910  0.83432  0.78520  Biso   1.000  C
  H17      1.0000 0.60650  0.74570  0.90540  Biso   1.000  H
  C61      1.0000 0.66160  0.71842  0.82680  Biso   1.000  C
  C62      1.0000 0.69240  0.79460  0.74690  Biso   1.000  C
  H18      1.0000 0.65830  0.87390  0.77090  Biso   1.000  H
  C63      1.0000 0.69370  0.73660  0.76780  Biso   1.000  C
  N17      1.0000 0.65860  0.65890  0.85530  Biso   1.000  N
  N18      1.0000 0.72410  0.82020  0.68540  Biso   1.000  N
  O83      1.0000 0.61250  0.63960  0.87670  Biso   1.000  O
  O84      1.0000 0.70590  0.63240  0.85500  Biso   1.000  O
  O85      1.0000 0.69920  0.85550  0.64760  Biso   1.000  O
  O86      1.0000 0.77490  0.80330  0.67700  Biso   1.000  O
  O87      1.0000 0.66100  0.65050  0.91980  Biso   1.000  O
  O88      1.0000 0.65320  0.61980  0.80940  Biso   1.000  O
  O89      1.0000 0.72850  0.79170  0.63010  Biso   1.000  O
  O90      1.0000 0.74460  0.86920  0.69280  Biso   1.000  O
  O91      1.0000 0.44250  0.15730  0.93110  Biso   1.000  O
  C64      1.0000 0.40480  0.13930  0.88700  Biso   1.000  C
  O92      1.0000 0.39420  0.08770  0.87060  Biso   1.000  O
  C65      1.0000 0.37290  0.18390  0.84420  Biso   1.000  C
  C66      1.0000 0.37160  0.24180  0.86510  Biso   1.000  C
  C67      1.0000 0.34090  0.16568  0.78520  Biso   1.000  C
  H19      1.0000 0.39350  0.25430  0.90540  Biso   1.000  H
  C68      1.0000 0.33840  0.28158  0.82680  Biso   1.000  C
  C69      1.0000 0.30760  0.20540  0.74690  Biso   1.000  C
  H20      1.0000 0.34170  0.12610  0.77090  Biso   1.000  H
  C70      1.0000 0.30630  0.26340  0.76780  Biso   1.000  C
  N19      1.0000 0.34140  0.34110  0.85530  Biso   1.000  N
  N20      1.0000 0.27590  0.17980  0.68540  Biso   1.000  N
  O93      1.0000 0.38750  0.36040  0.87670  Biso   1.000  O
  O94      1.0000 0.29410  0.36760  0.85500  Biso   1.000  O
  O95      1.0000 0.30080  0.14450  0.64760  Biso   1.000  O
  O96      1.0000 0.22510  0.19670  0.67700  Biso   1.000  O
  O97      1.0000 0.33900  0.34950  0.91980  Biso   1.000  O
  O98      1.0000 0.34680  0.38020  0.80940  Biso   1.000  O
  O99      1.0000 0.27150  0.20830  0.63010  Biso   1.000  O
  O100     1.0000 0.25540  0.13080  0.69280  Biso   1.000  O
  O101     1.0000 0.15730  0.55750  0.43110  Biso   1.000  O
  C71      1.0000 0.13930  0.59520  0.38700  Biso   1.000  C
  O102     1.0000 0.08770  0.60580  0.37060  Biso   1.000  O
  C72      1.0000 0.18390  0.62710  0.34420  Biso   1.000  C
  C73      1.0000 0.24180  0.62840  0.36510  Biso   1.000  C
  C74      1.0000 0.16568  0.65910  0.28520  Biso   1.000  C
  H21      1.0000 0.25430  0.60650  0.40540  Biso   1.000  H
  C75      1.0000 0.28158  0.66160  0.32680  Biso   1.000  C
  C76      1.0000 0.20540  0.69240  0.24690  Biso   1.000  C
  H22      1.0000 0.12610  0.65830  0.27090  Biso   1.000  H
  C77      1.0000 0.26340  0.69370  0.26780  Biso   1.000  C
  N21      1.0000 0.34110  0.65860  0.35530  Biso   1.000  N
  N22      1.0000 0.17980  0.72410  0.18540  Biso   1.000  N
  O103     1.0000 0.36040  0.61250  0.37670  Biso   1.000  O
  O104     1.0000 0.36760  0.70590  0.35500  Biso   1.000  O
  O105     1.0000 0.14450  0.69920  0.14760  Biso   1.000  O
  O106     1.0000 0.19670  0.77490  0.17700  Biso   1.000  O
  O107     1.0000 0.34950  0.66100  0.41980  Biso   1.000  O
  O108     1.0000 0.38020  0.65320  0.30940  Biso   1.000  O
  O109     1.0000 0.20830  0.72850  0.13010  Biso   1.000  O
  O110     1.0000 0.13080  0.74460  0.19280  Biso   1.000  O
  O111     1.0000 0.84270  0.44250  0.43110  Biso   1.000  O
  C78      1.0000 0.86070  0.40480  0.38700  Biso   1.000  C
  O112     1.0000 0.91230  0.39420  0.37060  Biso   1.000  O
  C79      1.0000 0.81610  0.37290  0.34420  Biso   1.000  C
  C80      1.0000 0.75820  0.37160  0.36510  Biso   1.000  C
  C81      1.0000 0.83432  0.34090  0.28520  Biso   1.000  C
  H23      1.0000 0.74570  0.39350  0.40540  Biso   1.000  H
  C82      1.0000 0.71842  0.33840  0.32680  Biso   1.000  C
  C83      1.0000 0.79460  0.30760  0.24690  Biso   1.000  C
  H24      1.0000 0.87390  0.34170  0.27090  Biso   1.000  H
  C84      1.0000 0.73660  0.30630  0.26780  Biso   1.000  C
  N23      1.0000 0.65890  0.34140  0.35530  Biso   1.000  N
  N24      1.0000 0.82020  0.27590  0.18540  Biso   1.000  N
  O113     1.0000 0.63960  0.38750  0.37670  Biso   1.000  O
  O114     1.0000 0.63240  0.29410  0.35500  Biso   1.000  O
  O115     1.0000 0.85550  0.30080  0.14760  Biso   1.000  O
  O116     1.0000 0.80330  0.22510  0.17700  Biso   1.000  O
  O117     1.0000 0.65050  0.33900  0.41980  Biso   1.000  O
  O118     1.0000 0.61980  0.34680  0.30940  Biso   1.000  O
  O119     1.0000 0.79170  0.27150  0.13010  Biso   1.000  O
  O120     1.0000 0.86920  0.25540  0.19280  Biso   1.000  O
  O121     1.0000 0.44250  0.84270  0.06890  Biso   1.000  O
  C85      1.0000 0.40480  0.86070  0.11300  Biso   1.000  C
  O122     1.0000 0.39420  0.91230  0.12940  Biso   1.000  O
  C86      1.0000 0.37290  0.81610  0.15580  Biso   1.000  C
  C87      1.0000 0.37160  0.75820  0.13490  Biso   1.000  C
  C88      1.0000 0.34090  0.83432  0.21480  Biso   1.000  C
  H25      1.0000 0.39350  0.74570  0.09460  Biso   1.000  H
  C89      1.0000 0.33840  0.71842  0.17320  Biso   1.000  C
  C90      1.0000 0.30760  0.79460  0.25310  Biso   1.000  C
  H26      1.0000 0.34170  0.87390  0.22910  Biso   1.000  H
  C91      1.0000 0.30630  0.73660  0.23220  Biso   1.000  C
  N25      1.0000 0.34140  0.65890  0.14470  Biso   1.000  N
  N26      1.0000 0.27590  0.82020  0.31460  Biso   1.000  N
  O123     1.0000 0.38750  0.63960  0.12330  Biso   1.000  O
  O124     1.0000 0.29410  0.63240  0.14500  Biso   1.000  O
  O125     1.0000 0.30080  0.85550  0.35240  Biso   1.000  O
  O126     1.0000 0.22510  0.80330  0.32300  Biso   1.000  O
  O127     1.0000 0.33900  0.65050  0.08020  Biso   1.000  O
  O128     1.0000 0.34680  0.61980  0.19060  Biso   1.000  O
  O129     1.0000 0.27150  0.79170  0.36990  Biso   1.000  O
  O130     1.0000 0.25540  0.86920  0.30720  Biso   1.000  O
  O131     1.0000 0.55750  0.15730  0.06890  Biso   1.000  O
  C92      1.0000 0.59520  0.13930  0.11300  Biso   1.000  C
  O132     1.0000 0.60580  0.08770  0.12940  Biso   1.000  O
  C93      1.0000 0.62710  0.18390  0.15580  Biso   1.000  C
  C94      1.0000 0.62840  0.24180  0.13490  Biso   1.000  C
  C95      1.0000 0.65910  0.16568  0.21480  Biso   1.000  C
  H27      1.0000 0.60650  0.25430  0.09460  Biso   1.000  H
  C96      1.0000 0.66160  0.28158  0.17320  Biso   1.000  C
  C97      1.0000 0.69240  0.20540  0.25310  Biso   1.000  C
  H28      1.0000 0.65830  0.12610  0.22910  Biso   1.000  H
  C98      1.0000 0.69370  0.26340  0.23220  Biso   1.000  C
  N27      1.0000 0.65860  0.34110  0.14470  Biso   1.000  N
  N28      1.0000 0.72410  0.17980  0.31460  Biso   1.000  N
  O133     1.0000 0.61250  0.36040  0.12330  Biso   1.000  O
  O134     1.0000 0.70590  0.36760  0.14500  Biso   1.000  O
  O135     1.0000 0.69920  0.14450  0.35240  Biso   1.000  O
  O136     1.0000 0.77490  0.19670  0.32300  Biso   1.000  O
  O137     1.0000 0.66100  0.34950  0.08020  Biso   1.000  O
  O138     1.0000 0.65320  0.38020  0.19060  Biso   1.000  O
  O139     1.0000 0.72850  0.20830  0.36990  Biso   1.000  O
  O140     1.0000 0.74460  0.13080  0.30720  Biso   1.000  O
  O141     1.0000 0.84270  0.55750  0.56890  Biso   1.000  O
  C99      1.0000 0.86070  0.59520  0.61300  Biso   1.000  C
  O142     1.0000 0.91230  0.60580  0.62940  Biso   1.000  O
  C100     1.0000 0.81610  0.62710  0.65580  Biso   1.000  C
  C101     1.0000 0.75820  0.62840  0.63490  Biso   1.000  C
  C102     1.0000 0.83432  0.65910  0.71480  Biso   1.000  C
  H29      1.0000 0.74570  0.60650  0.59460  Biso   1.000  H
  C103     1.0000 0.71842  0.66160  0.67320  Biso   1.000  C
  C104     1.0000 0.79460  0.69240  0.75310  Biso   1.000  C
  H30      1.0000 0.87390  0.65830  0.72910  Biso   1.000  H
  C105     1.0000 0.73660  0.69370  0.73220  Biso   1.000  C
  N29      1.0000 0.65890  0.65860  0.64470  Biso   1.000  N
  N30      1.0000 0.82020  0.72410  0.81460  Biso   1.000  N
  O143     1.0000 0.63960  0.61250  0.62330  Biso   1.000  O
  O144     1.0000 0.63240  0.70590  0.64500  Biso   1.000  O
  O145     1.0000 0.85550  0.69920  0.85240  Biso   1.000  O
  O146     1.0000 0.80330  0.77490  0.82300  Biso   1.000  O
  O147     1.0000 0.65050  0.66100  0.58020  Biso   1.000  O
  O148     1.0000 0.61980  0.65320  0.69060  Biso   1.000  O
  O149     1.0000 0.79170  0.72850  0.86990  Biso   1.000  O
  O150     1.0000 0.86920  0.74460  0.80720  Biso   1.000  O
  O151     1.0000 0.15730  0.44250  0.56890  Biso   1.000  O
  C106     1.0000 0.13930  0.40480  0.61300  Biso   1.000  C
  O152     1.0000 0.08770  0.39420  0.62940  Biso   1.000  O
  C107     1.0000 0.18390  0.37290  0.65580  Biso   1.000  C
  C108     1.0000 0.24180  0.37160  0.63490  Biso   1.000  C
  C109     1.0000 0.16568  0.34090  0.71480  Biso   1.000  C
  H31      1.0000 0.25430  0.39350  0.59460  Biso   1.000  H
  C110     1.0000 0.28158  0.33840  0.67320  Biso   1.000  C
  C111     1.0000 0.20540  0.30760  0.75310  Biso   1.000  C
  H32      1.0000 0.12610  0.34170  0.72910  Biso   1.000  H
  C112     1.0000 0.26340  0.30630  0.73220  Biso   1.000  C
  N31      1.0000 0.34110  0.34140  0.64470  Biso   1.000  N
  N32      1.0000 0.17980  0.27590  0.81460  Biso   1.000  N
  O153     1.0000 0.36040  0.38750  0.62330  Biso   1.000  O
  O154     1.0000 0.36760  0.29410  0.64500  Biso   1.000  O
  O155     1.0000 0.14450  0.30080  0.85240  Biso   1.000  O
  O156     1.0000 0.19670  0.22510  0.82300  Biso   1.000  O
  O157     1.0000 0.34950  0.33900  0.58020  Biso   1.000  O
  O158     1.0000 0.38020  0.34680  0.69060  Biso   1.000  O
  O159     1.0000 0.20830  0.27150  0.86990  Biso   1.000  O
  O160     1.0000 0.13080  0.25540  0.80720  Biso   1.000  O
  Zr1      1.0000 0.50000  0.10670  0.00000  Biso   1.000  Zr
  Zr2      1.0000 0.50000  0.89330  0.00000  Biso   1.000  Zr
  Zr3      1.0000 0.89330  0.50000  0.50000  Biso   1.000  Zr
  Zr4      1.0000 0.10670  0.50000  0.50000  Biso   1.000  Zr
  O161     1.0000 0.50000  0.05200  0.09200  Biso   1.000  O
  O162     1.0000 0.50000  0.94800  0.09200  Biso   1.000  O
  O163     1.0000 0.94800  0.50000  0.59200  Biso   1.000  O
  O164     1.0000 0.05200  0.50000  0.59200  Biso   1.000  O
  O165     1.0000 0.50000  0.05200  0.90800  Biso   1.000  O
  O166     1.0000 0.50000  0.94800  0.90800  Biso   1.000  O
  O167     1.0000 0.05200  0.50000  0.40800  Biso   1.000  O
  O168     1.0000 0.94800  0.50000  0.40800  Biso   1.000  O
  O169     1.0000 0.42250  0.05300  0.00000  Biso   1.000  O
  O170     1.0000 0.57750  0.94700  0.00000  Biso   1.000  O
  O171     1.0000 0.94700  0.42250  0.50000  Biso   1.000  O
  O172     1.0000 0.05300  0.57750  0.50000  Biso   1.000  O
  O173     1.0000 0.57750  0.05300  0.00000  Biso   1.000  O
  O174     1.0000 0.42250  0.94700  0.00000  Biso   1.000  O
  O175     1.0000 0.05300  0.42250  0.50000  Biso   1.000  O
  O176     1.0000 0.94700  0.57750  0.50000  Biso   1.000  O
  Zr5      1.0000 0.42387  0.00000  0.09248  Biso   1.000  Zr
  Zr6      1.0000 0.57613  0.00000  0.09248  Biso   1.000  Zr
  Zr7      1.0000 0.00000  0.42387  0.59248  Biso   1.000  Zr
  Zr8      1.0000 0.00000  0.57613  0.59248  Biso   1.000  Zr
  Zr9      1.0000 0.57613  0.00000  0.90752  Biso   1.000  Zr
  Zr10     1.0000 0.42387  0.00000  0.90752  Biso   1.000  Zr
  Zr11     1.0000 0.00000  0.42387  0.40752  Biso   1.000  Zr
  Zr12     1.0000 0.00000  0.57613  0.40752  Biso   1.000  Zr
