data_image0
_cell_length_a       24.218
_cell_length_b       24.218
_cell_length_c       15.359
_cell_angle_alpha    90
_cell_angle_beta     90
_cell_angle_gamma    90

_symmetry_space_group_name_H-M    "P 1"
_symmetry_int_tables_number       1

loop_
  _symmetry_equiv_pos_as_xyz
  'x, y, z'

loop_
  _atom_site_label
  _atom_site_occupancy
  _atom_site_fract_x
  _atom_site_fract_y
  _atom_site_fract_z
  _atom_site_thermal_displace_type
  _atom_site_B_iso_or_equiv
  _atom_site_type_symbol
  O1       1.0000 0.05458  0.35140  0.58510  Biso   1.000  O
  O2       1.0000 0.10225  0.41728  0.66120  Biso   1.000  O
  C1       1.0000 0.16817  0.23248  0.66630  Biso   1.000  C
  C2       1.0000 0.13176  0.27219  0.63480  Biso   1.000  C
  H1       1.0000 0.10740  0.26340  0.58840  Biso   1.000  H
  C3       1.0000 0.13112  0.32467  0.67140  Biso   1.000  C
  C4       1.0000 0.20312  0.29790  0.77070  Biso   1.000  C
  C5       1.0000 0.20383  0.24539  0.73420  Biso   1.000  C
  C6       1.0000 0.16675  0.33758  0.73930  Biso   1.000  C
  H2       1.0000 0.16630  0.37350  0.76430  Biso   1.000  H
  C7       1.0000 0.17000  0.17511  0.62820  Biso   1.000  C
  H3       1.0000 0.14150  0.15220  0.65550  Biso   1.000  H
  H4       1.0000 0.20640  0.15880  0.63900  Biso   1.000  H
  H5       1.0000 0.16340  0.17700  0.56530  Biso   1.000  H
  C8       1.0000 0.09181  0.36800  0.63780  Biso   1.000  C
  C9       1.0000 0.24290  0.30910  0.84420  Biso   1.000  C
  H6       1.0000 0.23880  0.28060  0.88900  Biso   1.000  H
  H7       1.0000 0.23500  0.34540  0.86950  Biso   1.000  H
  H8       1.0000 0.28080  0.30860  0.82180  Biso   1.000  H
  O3       1.0000 0.94542  0.64860  0.58510  Biso   1.000  O
  O4       1.0000 0.89775  0.58272  0.66120  Biso   1.000  O
  C10      1.0000 0.83183  0.76752  0.66630  Biso   1.000  C
  C11      1.0000 0.86824  0.72781  0.63480  Biso   1.000  C
  H9       1.0000 0.89260  0.73660  0.58840  Biso   1.000  H
  C12      1.0000 0.86888  0.67533  0.67140  Biso   1.000  C
  C13      1.0000 0.79688  0.70210  0.77070  Biso   1.000  C
  C14      1.0000 0.79617  0.75461  0.73420  Biso   1.000  C
  C15      1.0000 0.83325  0.66242  0.73930  Biso   1.000  C
  H10      1.0000 0.83370  0.62650  0.76430  Biso   1.000  H
  C16      1.0000 0.83000  0.82489  0.62820  Biso   1.000  C
  H11      1.0000 0.85850  0.84780  0.65550  Biso   1.000  H
  H12      1.0000 0.79360  0.84120  0.63900  Biso   1.000  H
  H13      1.0000 0.83660  0.82300  0.56530  Biso   1.000  H
  C17      1.0000 0.90819  0.63200  0.63780  Biso   1.000  C
  C18      1.0000 0.75710  0.69090  0.84420  Biso   1.000  C
  H14      1.0000 0.76120  0.71940  0.88900  Biso   1.000  H
  H15      1.0000 0.76500  0.65460  0.86950  Biso   1.000  H
  H16      1.0000 0.71920  0.69140  0.82180  Biso   1.000  H
  O5       1.0000 0.64860  0.05458  0.08510  Biso   1.000  O
  O6       1.0000 0.58272  0.10225  0.16120  Biso   1.000  O
  C19      1.0000 0.76752  0.16817  0.16630  Biso   1.000  C
  C20      1.0000 0.72781  0.13176  0.13480  Biso   1.000  C
  H17      1.0000 0.73660  0.10740  0.08840  Biso   1.000  H
  C21      1.0000 0.67533  0.13112  0.17140  Biso   1.000  C
  C22      1.0000 0.70210  0.20312  0.27070  Biso   1.000  C
  C23      1.0000 0.75461  0.20383  0.23420  Biso   1.000  C
  C24      1.0000 0.66242  0.16675  0.23930  Biso   1.000  C
  H18      1.0000 0.62650  0.16630  0.26430  Biso   1.000  H
  C25      1.0000 0.82489  0.17000  0.12820  Biso   1.000  C
  H19      1.0000 0.84780  0.14150  0.15550  Biso   1.000  H
  H20      1.0000 0.84120  0.20640  0.13900  Biso   1.000  H
  H21      1.0000 0.82300  0.16340  0.06530  Biso   1.000  H
  C26      1.0000 0.63200  0.09181  0.13780  Biso   1.000  C
  C27      1.0000 0.69090  0.24290  0.34420  Biso   1.000  C
  H22      1.0000 0.71940  0.23880  0.38900  Biso   1.000  H
  H23      1.0000 0.65460  0.23500  0.36950  Biso   1.000  H
  H24      1.0000 0.69140  0.28080  0.32180  Biso   1.000  H
  O7       1.0000 0.35140  0.94542  0.08510  Biso   1.000  O
  O8       1.0000 0.41728  0.89775  0.16120  Biso   1.000  O
  C28      1.0000 0.23248  0.83183  0.16630  Biso   1.000  C
  C29      1.0000 0.27219  0.86824  0.13480  Biso   1.000  C
  H25      1.0000 0.26340  0.89260  0.08840  Biso   1.000  H
  C30      1.0000 0.32467  0.86888  0.17140  Biso   1.000  C
  C31      1.0000 0.29790  0.79688  0.27070  Biso   1.000  C
  C32      1.0000 0.24539  0.79617  0.23420  Biso   1.000  C
  C33      1.0000 0.33758  0.83325  0.23930  Biso   1.000  C
  H26      1.0000 0.37350  0.83370  0.26430  Biso   1.000  H
  C34      1.0000 0.17511  0.83000  0.12820  Biso   1.000  C
  H27      1.0000 0.15220  0.85850  0.15550  Biso   1.000  H
  H28      1.0000 0.15880  0.79360  0.13900  Biso   1.000  H
  H29      1.0000 0.17700  0.83660  0.06530  Biso   1.000  H
  C35      1.0000 0.36800  0.90819  0.13780  Biso   1.000  C
  C36      1.0000 0.30910  0.75710  0.34420  Biso   1.000  C
  H30      1.0000 0.28060  0.76120  0.38900  Biso   1.000  H
  H31      1.0000 0.34540  0.76500  0.36950  Biso   1.000  H
  H32      1.0000 0.30860  0.71920  0.32180  Biso   1.000  H
  O9       1.0000 0.94542  0.35140  0.41490  Biso   1.000  O
  O10      1.0000 0.89775  0.41728  0.33880  Biso   1.000  O
  C37      1.0000 0.83183  0.23248  0.33370  Biso   1.000  C
  C38      1.0000 0.86824  0.27219  0.36520  Biso   1.000  C
  H33      1.0000 0.89260  0.26340  0.41160  Biso   1.000  H
  C39      1.0000 0.86888  0.32467  0.32860  Biso   1.000  C
  C40      1.0000 0.79688  0.29790  0.22930  Biso   1.000  C
  C41      1.0000 0.79617  0.24539  0.26580  Biso   1.000  C
  C42      1.0000 0.83325  0.33758  0.26070  Biso   1.000  C
  H34      1.0000 0.83370  0.37350  0.23570  Biso   1.000  H
  C43      1.0000 0.83000  0.17511  0.37180  Biso   1.000  C
  H35      1.0000 0.85850  0.15220  0.34450  Biso   1.000  H
  H36      1.0000 0.79360  0.15880  0.36100  Biso   1.000  H
  H37      1.0000 0.83660  0.17700  0.43470  Biso   1.000  H
  C44      1.0000 0.90819  0.36800  0.36220  Biso   1.000  C
  C45      1.0000 0.75710  0.30910  0.15580  Biso   1.000  C
  H38      1.0000 0.76120  0.28060  0.11100  Biso   1.000  H
  H39      1.0000 0.76500  0.34540  0.13050  Biso   1.000  H
  H40      1.0000 0.71920  0.30860  0.17820  Biso   1.000  H
  O11      1.0000 0.05458  0.64860  0.41490  Biso   1.000  O
  O12      1.0000 0.10225  0.58272  0.33880  Biso   1.000  O
  C46      1.0000 0.16817  0.76752  0.33370  Biso   1.000  C
  C47      1.0000 0.13176  0.72781  0.36520  Biso   1.000  C
  H41      1.0000 0.10740  0.73660  0.41160  Biso   1.000  H
  C48      1.0000 0.13112  0.67533  0.32860  Biso   1.000  C
  C49      1.0000 0.20312  0.70210  0.22930  Biso   1.000  C
  C50      1.0000 0.20383  0.75461  0.26580  Biso   1.000  C
  C51      1.0000 0.16675  0.66242  0.26070  Biso   1.000  C
  H42      1.0000 0.16630  0.62650  0.23570  Biso   1.000  H
  C52      1.0000 0.17000  0.82489  0.37180  Biso   1.000  C
  H43      1.0000 0.14150  0.84780  0.34450  Biso   1.000  H
  H44      1.0000 0.20640  0.84120  0.36100  Biso   1.000  H
  H45      1.0000 0.16340  0.82300  0.43470  Biso   1.000  H
  C53      1.0000 0.09181  0.63200  0.36220  Biso   1.000  C
  C54      1.0000 0.24290  0.69090  0.15580  Biso   1.000  C
  H46      1.0000 0.23880  0.71940  0.11100  Biso   1.000  H
  H47      1.0000 0.23500  0.65460  0.13050  Biso   1.000  H
  H48      1.0000 0.28080  0.69140  0.17820  Biso   1.000  H
  O13      1.0000 0.35140  0.05458  0.91490  Biso   1.000  O
  O14      1.0000 0.41728  0.10225  0.83880  Biso   1.000  O
  C55      1.0000 0.23248  0.16817  0.83370  Biso   1.000  C
  C56      1.0000 0.27219  0.13176  0.86520  Biso   1.000  C
  H49      1.0000 0.26340  0.10740  0.91160  Biso   1.000  H
  C57      1.0000 0.32467  0.13112  0.82860  Biso   1.000  C
  C58      1.0000 0.29790  0.20312  0.72930  Biso   1.000  C
  C59      1.0000 0.24539  0.20383  0.76580  Biso   1.000  C
  C60      1.0000 0.33758  0.16675  0.76070  Biso   1.000  C
  H50      1.0000 0.37350  0.16630  0.73570  Biso   1.000  H
  C61      1.0000 0.17511  0.17000  0.87180  Biso   1.000  C
  H51      1.0000 0.15220  0.14150  0.84450  Biso   1.000  H
  H52      1.0000 0.15880  0.20640  0.86100  Biso   1.000  H
  H53      1.0000 0.17700  0.16340  0.93470  Biso   1.000  H
  C62      1.0000 0.36800  0.09181  0.86220  Biso   1.000  C
  C63      1.0000 0.30910  0.24290  0.65580  Biso   1.000  C
  H54      1.0000 0.28060  0.23880  0.61100  Biso   1.000  H
  H55      1.0000 0.34540  0.23500  0.63050  Biso   1.000  H
  H56      1.0000 0.30860  0.28080  0.67820  Biso   1.000  H
  O15      1.0000 0.64860  0.94542  0.91490  Biso   1.000  O
  O16      1.0000 0.58272  0.89775  0.83880  Biso   1.000  O
  C64      1.0000 0.76752  0.83183  0.83370  Biso   1.000  C
  C65      1.0000 0.72781  0.86824  0.86520  Biso   1.000  C
  H57      1.0000 0.73660  0.89260  0.91160  Biso   1.000  H
  C66      1.0000 0.67533  0.86888  0.82860  Biso   1.000  C
  C67      1.0000 0.70210  0.79688  0.72930  Biso   1.000  C
  C68      1.0000 0.75461  0.79617  0.76580  Biso   1.000  C
  C69      1.0000 0.66242  0.83325  0.76070  Biso   1.000  C
  H58      1.0000 0.62650  0.83370  0.73570  Biso   1.000  H
  C70      1.0000 0.82489  0.83000  0.87180  Biso   1.000  C
  H59      1.0000 0.84780  0.85850  0.84450  Biso   1.000  H
  H60      1.0000 0.84120  0.79360  0.86100  Biso   1.000  H
  H61      1.0000 0.82300  0.83660  0.93470  Biso   1.000  H
  C71      1.0000 0.63200  0.90819  0.86220  Biso   1.000  C
  C72      1.0000 0.69090  0.75710  0.65580  Biso   1.000  C
  H62      1.0000 0.71940  0.76120  0.61100  Biso   1.000  H
  H63      1.0000 0.65460  0.76500  0.63050  Biso   1.000  H
  H64      1.0000 0.69140  0.71920  0.67820  Biso   1.000  H
  O17      1.0000 0.94542  0.64860  0.41490  Biso   1.000  O
  O18      1.0000 0.89775  0.58272  0.33880  Biso   1.000  O
  C73      1.0000 0.83183  0.76752  0.33370  Biso   1.000  C
  C74      1.0000 0.86824  0.72781  0.36520  Biso   1.000  C
  H65      1.0000 0.89260  0.73660  0.41160  Biso   1.000  H
  C75      1.0000 0.86888  0.67533  0.32860  Biso   1.000  C
  C76      1.0000 0.79688  0.70210  0.22930  Biso   1.000  C
  C77      1.0000 0.79617  0.75461  0.26580  Biso   1.000  C
  C78      1.0000 0.83325  0.66242  0.26070  Biso   1.000  C
  H66      1.0000 0.83370  0.62650  0.23570  Biso   1.000  H
  C79      1.0000 0.83000  0.82489  0.37180  Biso   1.000  C
  H67      1.0000 0.85850  0.84780  0.34450  Biso   1.000  H
  H68      1.0000 0.79360  0.84120  0.36100  Biso   1.000  H
  H69      1.0000 0.83660  0.82300  0.43470  Biso   1.000  H
  C80      1.0000 0.90819  0.63200  0.36220  Biso   1.000  C
  C81      1.0000 0.75710  0.69090  0.15580  Biso   1.000  C
  H70      1.0000 0.76120  0.71940  0.11100  Biso   1.000  H
  H71      1.0000 0.76500  0.65460  0.13050  Biso   1.000  H
  H72      1.0000 0.71920  0.69140  0.17820  Biso   1.000  H
  O19      1.0000 0.05458  0.35140  0.41490  Biso   1.000  O
  O20      1.0000 0.10225  0.41728  0.33880  Biso   1.000  O
  C82      1.0000 0.16817  0.23248  0.33370  Biso   1.000  C
  C83      1.0000 0.13176  0.27219  0.36520  Biso   1.000  C
  H73      1.0000 0.10740  0.26340  0.41160  Biso   1.000  H
  C84      1.0000 0.13112  0.32467  0.32860  Biso   1.000  C
  C85      1.0000 0.20312  0.29790  0.22930  Biso   1.000  C
  C86      1.0000 0.20383  0.24539  0.26580  Biso   1.000  C
  C87      1.0000 0.16675  0.33758  0.26070  Biso   1.000  C
  H74      1.0000 0.16630  0.37350  0.23570  Biso   1.000  H
  C88      1.0000 0.17000  0.17511  0.37180  Biso   1.000  C
  H75      1.0000 0.14150  0.15220  0.34450  Biso   1.000  H
  H76      1.0000 0.20640  0.15880  0.36100  Biso   1.000  H
  H77      1.0000 0.16340  0.17700  0.43470  Biso   1.000  H
  C89      1.0000 0.09181  0.36800  0.36220  Biso   1.000  C
  C90      1.0000 0.24290  0.30910  0.15580  Biso   1.000  C
  H78      1.0000 0.23880  0.28060  0.11100  Biso   1.000  H
  H79      1.0000 0.23500  0.34540  0.13050  Biso   1.000  H
  H80      1.0000 0.28080  0.30860  0.17820  Biso   1.000  H
  O21      1.0000 0.35140  0.94542  0.91490  Biso   1.000  O
  O22      1.0000 0.41728  0.89775  0.83880  Biso   1.000  O
  C91      1.0000 0.23248  0.83183  0.83370  Biso   1.000  C
  C92      1.0000 0.27219  0.86824  0.86520  Biso   1.000  C
  H81      1.0000 0.26340  0.89260  0.91160  Biso   1.000  H
  C93      1.0000 0.32467  0.86888  0.82860  Biso   1.000  C
  C94      1.0000 0.29790  0.79688  0.72930  Biso   1.000  C
  C95      1.0000 0.24539  0.79617  0.76580  Biso   1.000  C
  C96      1.0000 0.33758  0.83325  0.76070  Biso   1.000  C
  H82      1.0000 0.37350  0.83370  0.73570  Biso   1.000  H
  C97      1.0000 0.17511  0.83000  0.87180  Biso   1.000  C
  H83      1.0000 0.15220  0.85850  0.84450  Biso   1.000  H
  H84      1.0000 0.15880  0.79360  0.86100  Biso   1.000  H
  H85      1.0000 0.17700  0.83660  0.93470  Biso   1.000  H
  C98      1.0000 0.36800  0.90819  0.86220  Biso   1.000  C
  C99      1.0000 0.30910  0.75710  0.65580  Biso   1.000  C
  H86      1.0000 0.28060  0.76120  0.61100  Biso   1.000  H
  H87      1.0000 0.34540  0.76500  0.63050  Biso   1.000  H
  H88      1.0000 0.30860  0.71920  0.67820  Biso   1.000  H
  O23      1.0000 0.64860  0.05458  0.91490  Biso   1.000  O
  O24      1.0000 0.58272  0.10225  0.83880  Biso   1.000  O
  C100     1.0000 0.76752  0.16817  0.83370  Biso   1.000  C
  C101     1.0000 0.72781  0.13176  0.86520  Biso   1.000  C
  H89      1.0000 0.73660  0.10740  0.91160  Biso   1.000  H
  C102     1.0000 0.67533  0.13112  0.82860  Biso   1.000  C
  C103     1.0000 0.70210  0.20312  0.72930  Biso   1.000  C
  C104     1.0000 0.75461  0.20383  0.76580  Biso   1.000  C
  C105     1.0000 0.66242  0.16675  0.76070  Biso   1.000  C
  H90      1.0000 0.62650  0.16630  0.73570  Biso   1.000  H
  C106     1.0000 0.82489  0.17000  0.87180  Biso   1.000  C
  H91      1.0000 0.84780  0.14150  0.84450  Biso   1.000  H
  H92      1.0000 0.84120  0.20640  0.86100  Biso   1.000  H
  H93      1.0000 0.82300  0.16340  0.93470  Biso   1.000  H
  C107     1.0000 0.63200  0.09181  0.86220  Biso   1.000  C
  C108     1.0000 0.69090  0.24290  0.65580  Biso   1.000  C
  H94      1.0000 0.71940  0.23880  0.61100  Biso   1.000  H
  H95      1.0000 0.65460  0.23500  0.63050  Biso   1.000  H
  H96      1.0000 0.69140  0.28080  0.67820  Biso   1.000  H
  O25      1.0000 0.05458  0.64860  0.58510  Biso   1.000  O
  O26      1.0000 0.10225  0.58272  0.66120  Biso   1.000  O
  C109     1.0000 0.16817  0.76752  0.66630  Biso   1.000  C
  C110     1.0000 0.13176  0.72781  0.63480  Biso   1.000  C
  H97      1.0000 0.10740  0.73660  0.58840  Biso   1.000  H
  C111     1.0000 0.13112  0.67533  0.67140  Biso   1.000  C
  C112     1.0000 0.20312  0.70210  0.77070  Biso   1.000  C
  C113     1.0000 0.20383  0.75461  0.73420  Biso   1.000  C
  C114     1.0000 0.16675  0.66242  0.73930  Biso   1.000  C
  H98      1.0000 0.16630  0.62650  0.76430  Biso   1.000  H
  C115     1.0000 0.17000  0.82489  0.62820  Biso   1.000  C
  H99      1.0000 0.14150  0.84780  0.65550  Biso   1.000  H
  H100     1.0000 0.20640  0.84120  0.63900  Biso   1.000  H
  H101     1.0000 0.16340  0.82300  0.56530  Biso   1.000  H
  C116     1.0000 0.09181  0.63200  0.63780  Biso   1.000  C
  C117     1.0000 0.24290  0.69090  0.84420  Biso   1.000  C
  H102     1.0000 0.23880  0.71940  0.88900  Biso   1.000  H
  H103     1.0000 0.23500  0.65460  0.86950  Biso   1.000  H
  H104     1.0000 0.28080  0.69140  0.82180  Biso   1.000  H
  O27      1.0000 0.94542  0.35140  0.58510  Biso   1.000  O
  O28      1.0000 0.89775  0.41728  0.66120  Biso   1.000  O
  C118     1.0000 0.83183  0.23248  0.66630  Biso   1.000  C
  C119     1.0000 0.86824  0.27219  0.63480  Biso   1.000  C
  H105     1.0000 0.89260  0.26340  0.58840  Biso   1.000  H
  C120     1.0000 0.86888  0.32467  0.67140  Biso   1.000  C
  C121     1.0000 0.79688  0.29790  0.77070  Biso   1.000  C
  C122     1.0000 0.79617  0.24539  0.73420  Biso   1.000  C
  C123     1.0000 0.83325  0.33758  0.73930  Biso   1.000  C
  H106     1.0000 0.83370  0.37350  0.76430  Biso   1.000  H
  C124     1.0000 0.83000  0.17511  0.62820  Biso   1.000  C
  H107     1.0000 0.85850  0.15220  0.65550  Biso   1.000  H
  H108     1.0000 0.79360  0.15880  0.63900  Biso   1.000  H
  H109     1.0000 0.83660  0.17700  0.56530  Biso   1.000  H
  C125     1.0000 0.90819  0.36800  0.63780  Biso   1.000  C
  C126     1.0000 0.75710  0.30910  0.84420  Biso   1.000  C
  H110     1.0000 0.76120  0.28060  0.88900  Biso   1.000  H
  H111     1.0000 0.76500  0.34540  0.86950  Biso   1.000  H
  H112     1.0000 0.71920  0.30860  0.82180  Biso   1.000  H
  O29      1.0000 0.64860  0.94542  0.08510  Biso   1.000  O
  O30      1.0000 0.58272  0.89775  0.16120  Biso   1.000  O
  C127     1.0000 0.76752  0.83183  0.16630  Biso   1.000  C
  C128     1.0000 0.72781  0.86824  0.13480  Biso   1.000  C
  H113     1.0000 0.73660  0.89260  0.08840  Biso   1.000  H
  C129     1.0000 0.67533  0.86888  0.17140  Biso   1.000  C
  C130     1.0000 0.70210  0.79688  0.27070  Biso   1.000  C
  C131     1.0000 0.75461  0.79617  0.23420  Biso   1.000  C
  C132     1.0000 0.66242  0.83325  0.23930  Biso   1.000  C
  H114     1.0000 0.62650  0.83370  0.26430  Biso   1.000  H
  C133     1.0000 0.82489  0.83000  0.12820  Biso   1.000  C
  H115     1.0000 0.84780  0.85850  0.15550  Biso   1.000  H
  H116     1.0000 0.84120  0.79360  0.13900  Biso   1.000  H
  H117     1.0000 0.82300  0.83660  0.06530  Biso   1.000  H
  C134     1.0000 0.63200  0.90819  0.13780  Biso   1.000  C
  C135     1.0000 0.69090  0.75710  0.34420  Biso   1.000  C
  H118     1.0000 0.71940  0.76120  0.38900  Biso   1.000  H
  H119     1.0000 0.65460  0.76500  0.36950  Biso   1.000  H
  H120     1.0000 0.69140  0.71920  0.32180  Biso   1.000  H
  O31      1.0000 0.35140  0.05458  0.08510  Biso   1.000  O
  O32      1.0000 0.41728  0.10225  0.16120  Biso   1.000  O
  C136     1.0000 0.23248  0.16817  0.16630  Biso   1.000  C
  C137     1.0000 0.27219  0.13176  0.13480  Biso   1.000  C
  H121     1.0000 0.26340  0.10740  0.08840  Biso   1.000  H
  C138     1.0000 0.32467  0.13112  0.17140  Biso   1.000  C
  C139     1.0000 0.29790  0.20312  0.27070  Biso   1.000  C
  C140     1.0000 0.24539  0.20383  0.23420  Biso   1.000  C
  C141     1.0000 0.33758  0.16675  0.23930  Biso   1.000  C
  H122     1.0000 0.37350  0.16630  0.26430  Biso   1.000  H
  C142     1.0000 0.17511  0.17000  0.12820  Biso   1.000  C
  H123     1.0000 0.15220  0.14150  0.15550  Biso   1.000  H
  H124     1.0000 0.15880  0.20640  0.13900  Biso   1.000  H
  H125     1.0000 0.17700  0.16340  0.06530  Biso   1.000  H
  C143     1.0000 0.36800  0.09181  0.13780  Biso   1.000  C
  C144     1.0000 0.30910  0.24290  0.34420  Biso   1.000  C
  H126     1.0000 0.28060  0.23880  0.38900  Biso   1.000  H
  H127     1.0000 0.34540  0.23500  0.36950  Biso   1.000  H
  H128     1.0000 0.30860  0.28080  0.32180  Biso   1.000  H
  Zr1      1.0000 0.00000  0.39854  0.50000  Biso   1.000  Zr
  Zr2      1.0000 0.00000  0.60146  0.50000  Biso   1.000  Zr
  Zr3      1.0000 0.60146  0.00000  0.00000  Biso   1.000  Zr
  Zr4      1.0000 0.39854  0.00000  0.00000  Biso   1.000  Zr
  Zr5      1.0000 0.92729  0.50000  0.61488  Biso   1.000  Zr
  Zr6      1.0000 0.07271  0.50000  0.61488  Biso   1.000  Zr
  Zr7      1.0000 0.50000  0.92729  0.11488  Biso   1.000  Zr
  Zr8      1.0000 0.50000  0.07271  0.11488  Biso   1.000  Zr
  Zr9      1.0000 0.07271  0.50000  0.38512  Biso   1.000  Zr
  Zr10     1.0000 0.92729  0.50000  0.38512  Biso   1.000  Zr
  Zr11     1.0000 0.50000  0.92729  0.88512  Biso   1.000  Zr
  Zr12     1.0000 0.50000  0.07271  0.88512  Biso   1.000  Zr
  O33      1.0000 0.00000  0.44984  0.61320  Biso   1.000  O
  O34      1.0000 0.00000  0.55016  0.61320  Biso   1.000  O
  O35      1.0000 0.55016  0.00000  0.11320  Biso   1.000  O
  O36      1.0000 0.44984  0.00000  0.11320  Biso   1.000  O
  O37      1.0000 0.00000  0.44984  0.38680  Biso   1.000  O
  O38      1.0000 0.00000  0.55016  0.38680  Biso   1.000  O
  O39      1.0000 0.44984  0.00000  0.88680  Biso   1.000  O
  O40      1.0000 0.55016  0.00000  0.88680  Biso   1.000  O
  O41      1.0000 0.07310  0.45085  0.50000  Biso   1.000  O
  O42      1.0000 0.92690  0.54915  0.50000  Biso   1.000  O
  O43      1.0000 0.54915  0.07310  0.00000  Biso   1.000  O
  O44      1.0000 0.45085  0.92690  0.00000  Biso   1.000  O
  O45      1.0000 0.92690  0.45085  0.50000  Biso   1.000  O
  O46      1.0000 0.07310  0.54915  0.50000  Biso   1.000  O
  O47      1.0000 0.45085  0.07310  0.00000  Biso   1.000  O
  O48      1.0000 0.54915  0.92690  0.00000  Biso   1.000  O
