data_image0
_cell_length_a       11.4507
_cell_length_b       11.4635
_cell_length_c       21.121
_cell_angle_alpha    90
_cell_angle_beta     90
_cell_angle_gamma    90

_symmetry_space_group_name_H-M    "P 1"
_symmetry_int_tables_number       1

loop_
  _symmetry_equiv_pos_as_xyz
  'x, y, z'

loop_
  _atom_site_label
  _atom_site_occupancy
  _atom_site_fract_x
  _atom_site_fract_y
  _atom_site_fract_z
  _atom_site_thermal_displace_type
  _atom_site_B_iso_or_equiv
  _atom_site_type_symbol
  C1       1.0000 0.04690  0.74750  0.70310  Biso   1.000  C
  C2       1.0000 0.04520  0.62840  0.70080  Biso   1.000  C
  C3       1.0000 0.74700  0.96280  0.70020  Biso   1.000  C
  C4       1.0000 0.62750  0.96150  0.69840  Biso   1.000  C
  H1       1.0000 0.08320  0.78840  0.66980  Biso   1.000  H
  H2       1.0000 0.07850  0.59000  0.66600  Biso   1.000  H
  H3       1.0000 0.78890  0.93670  0.66520  Biso   1.000  H
  H4       1.0000 0.58850  0.93490  0.66220  Biso   1.000  H
  C5       1.0000 0.95310  0.25250  0.70310  Biso   1.000  C
  C6       1.0000 0.95480  0.37160  0.70080  Biso   1.000  C
  C7       1.0000 0.25300  0.03720  0.70020  Biso   1.000  C
  C8       1.0000 0.37250  0.03850  0.69840  Biso   1.000  C
  H5       1.0000 0.91680  0.21160  0.66980  Biso   1.000  H
  H6       1.0000 0.92150  0.41000  0.66600  Biso   1.000  H
  H7       1.0000 0.21110  0.06330  0.66520  Biso   1.000  H
  H8       1.0000 0.41150  0.06510  0.66220  Biso   1.000  H
  C9       1.0000 0.95310  0.74750  0.79690  Biso   1.000  C
  C10      1.0000 0.95480  0.62840  0.79920  Biso   1.000  C
  C11      1.0000 0.25300  0.96280  0.79980  Biso   1.000  C
  C12      1.0000 0.37250  0.96150  0.80160  Biso   1.000  C
  H9       1.0000 0.91680  0.78840  0.83020  Biso   1.000  H
  H10      1.0000 0.92150  0.59000  0.83400  Biso   1.000  H
  H11      1.0000 0.21110  0.93670  0.83480  Biso   1.000  H
  H12      1.0000 0.41150  0.93490  0.83780  Biso   1.000  H
  C13      1.0000 0.04690  0.25250  0.79690  Biso   1.000  C
  C14      1.0000 0.04520  0.37160  0.79920  Biso   1.000  C
  C15      1.0000 0.74700  0.03720  0.79980  Biso   1.000  C
  C16      1.0000 0.62750  0.03850  0.80160  Biso   1.000  C
  H13      1.0000 0.08320  0.21160  0.83020  Biso   1.000  H
  H14      1.0000 0.07850  0.41000  0.83400  Biso   1.000  H
  H15      1.0000 0.78890  0.06330  0.83480  Biso   1.000  H
  H16      1.0000 0.58850  0.06510  0.83780  Biso   1.000  H
  C17      1.0000 0.95310  0.25250  0.29690  Biso   1.000  C
  C18      1.0000 0.95480  0.37160  0.29920  Biso   1.000  C
  C19      1.0000 0.25300  0.03720  0.29980  Biso   1.000  C
  C20      1.0000 0.37250  0.03850  0.30160  Biso   1.000  C
  H17      1.0000 0.91680  0.21160  0.33020  Biso   1.000  H
  H18      1.0000 0.92150  0.41000  0.33400  Biso   1.000  H
  H19      1.0000 0.21110  0.06330  0.33480  Biso   1.000  H
  H20      1.0000 0.41150  0.06510  0.33780  Biso   1.000  H
  C21      1.0000 0.04690  0.74750  0.29690  Biso   1.000  C
  C22      1.0000 0.04520  0.62840  0.29920  Biso   1.000  C
  C23      1.0000 0.74700  0.96280  0.29980  Biso   1.000  C
  C24      1.0000 0.62750  0.96150  0.30160  Biso   1.000  C
  H21      1.0000 0.08320  0.78840  0.33020  Biso   1.000  H
  H22      1.0000 0.07850  0.59000  0.33400  Biso   1.000  H
  H23      1.0000 0.78890  0.93670  0.33480  Biso   1.000  H
  H24      1.0000 0.58850  0.93490  0.33780  Biso   1.000  H
  C25      1.0000 0.04690  0.25250  0.20310  Biso   1.000  C
  C26      1.0000 0.04520  0.37160  0.20080  Biso   1.000  C
  C27      1.0000 0.74700  0.03720  0.20020  Biso   1.000  C
  C28      1.0000 0.62750  0.03850  0.19840  Biso   1.000  C
  H25      1.0000 0.08320  0.21160  0.16980  Biso   1.000  H
  H26      1.0000 0.07850  0.41000  0.16600  Biso   1.000  H
  H27      1.0000 0.78890  0.06330  0.16520  Biso   1.000  H
  H28      1.0000 0.58850  0.06510  0.16220  Biso   1.000  H
  C29      1.0000 0.95310  0.74750  0.20310  Biso   1.000  C
  C30      1.0000 0.95480  0.62840  0.20080  Biso   1.000  C
  C31      1.0000 0.25300  0.96280  0.20020  Biso   1.000  C
  C32      1.0000 0.37250  0.96150  0.19840  Biso   1.000  C
  H29      1.0000 0.91680  0.78840  0.16980  Biso   1.000  H
  H30      1.0000 0.92150  0.59000  0.16600  Biso   1.000  H
  H31      1.0000 0.21110  0.93670  0.16520  Biso   1.000  H
  H32      1.0000 0.41150  0.93490  0.16220  Biso   1.000  H
  Au1      1.0000 0.00000  0.00000  0.50000  Biso   1.000  Au
  Au2      1.0000 0.00000  0.00000  0.00000  Biso   1.000  Au
  Br1      1.0000 0.79699  0.93891  0.50000  Biso   1.000  Br
  Br2      1.0000 0.20301  0.06109  0.50000  Biso   1.000  Br
  Br3      1.0000 0.20301  0.93891  0.00000  Biso   1.000  Br
  Br4      1.0000 0.79699  0.06109  0.00000  Biso   1.000  Br
  Zn1      1.0000 0.00000  0.00000  0.75000  Biso   1.000  Zn
  Zn2      1.0000 0.00000  0.00000  0.25000  Biso   1.000  Zn
  N1       1.0000 0.00000  0.00000  0.64790  Biso   1.000  N
  C33      1.0000 0.00000  0.00000  0.59430  Biso   1.000  C
  N2       1.0000 0.00000  0.00000  0.85210  Biso   1.000  N
  C34      1.0000 0.00000  0.00000  0.90570  Biso   1.000  C
  N3       1.0000 0.00000  0.00000  0.35210  Biso   1.000  N
  C35      1.0000 0.00000  0.00000  0.40570  Biso   1.000  C
  N4       1.0000 0.00000  0.00000  0.14790  Biso   1.000  N
  C36      1.0000 0.00000  0.00000  0.09430  Biso   1.000  C
  N5       1.0000 0.00000  0.81000  0.75000  Biso   1.000  N
  C37      1.0000 0.00000  0.56450  0.75000  Biso   1.000  C
  N6       1.0000 0.00000  0.19000  0.75000  Biso   1.000  N
  C38      1.0000 0.00000  0.43550  0.75000  Biso   1.000  C
  N7       1.0000 0.00000  0.19000  0.25000  Biso   1.000  N
  C39      1.0000 0.00000  0.43550  0.25000  Biso   1.000  C
  N8       1.0000 0.00000  0.81000  0.25000  Biso   1.000  N
  C40      1.0000 0.00000  0.56450  0.25000  Biso   1.000  C
  N9       1.0000 0.80910  0.00000  0.75000  Biso   1.000  N
  C41      1.0000 0.56430  0.00000  0.75000  Biso   1.000  C
  N10      1.0000 0.19090  0.00000  0.75000  Biso   1.000  N
  C42      1.0000 0.43570  0.00000  0.75000  Biso   1.000  C
  N11      1.0000 0.19090  0.00000  0.25000  Biso   1.000  N
  C43      1.0000 0.43570  0.00000  0.25000  Biso   1.000  C
  N12      1.0000 0.80910  0.00000  0.25000  Biso   1.000  N
  C44      1.0000 0.56430  0.00000  0.25000  Biso   1.000  C
  C45      1.0000 0.57100  0.40900  0.21150  Biso   1.000  C
  C46      1.0000 0.64000  0.44400  0.16720  Biso   1.000  C
  C47      1.0000 0.71900  0.33910  0.13830  Biso   1.000  C
  C48      1.0000 0.77500  0.39200  0.08800  Biso   1.000  C
  H33      1.0000 0.61660  0.36480  0.24080  Biso   1.000  H
  H34      1.0000 0.51800  0.35830  0.19060  Biso   1.000  H
  H35      1.0000 0.69230  0.49750  0.18700  Biso   1.000  H
  H36      1.0000 0.59620  0.48400  0.13580  Biso   1.000  H
  H37      1.0000 0.77550  0.30800  0.16690  Biso   1.000  H
  H38      1.0000 0.66950  0.27830  0.12410  Biso   1.000  H
  H39      1.0000 0.82140  0.33700  0.06530  Biso   1.000  H
  H40      1.0000 0.82330  0.45270  0.10340  Biso   1.000  H
  H41      1.0000 0.71720  0.42310  0.06060  Biso   1.000  H
  C49      1.0000 0.42900  0.59100  0.21150  Biso   1.000  C
  C50      1.0000 0.36000  0.55600  0.16720  Biso   1.000  C
  C51      1.0000 0.28100  0.66090  0.13830  Biso   1.000  C
  C52      1.0000 0.22500  0.60800  0.08800  Biso   1.000  C
  H42      1.0000 0.38340  0.63520  0.24080  Biso   1.000  H
  H43      1.0000 0.48200  0.64170  0.19060  Biso   1.000  H
  H44      1.0000 0.30770  0.50250  0.18700  Biso   1.000  H
  H45      1.0000 0.40380  0.51600  0.13580  Biso   1.000  H
  H46      1.0000 0.22450  0.69200  0.16690  Biso   1.000  H
  H47      1.0000 0.33050  0.72170  0.12410  Biso   1.000  H
  H48      1.0000 0.17860  0.66300  0.06530  Biso   1.000  H
  H49      1.0000 0.17670  0.54730  0.10340  Biso   1.000  H
  H50      1.0000 0.28280  0.57690  0.06060  Biso   1.000  H
  C53      1.0000 0.42900  0.40900  0.28850  Biso   1.000  C
  C54      1.0000 0.36000  0.44400  0.33280  Biso   1.000  C
  C55      1.0000 0.28100  0.33910  0.36170  Biso   1.000  C
  C56      1.0000 0.22500  0.39200  0.41200  Biso   1.000  C
  H51      1.0000 0.38340  0.36480  0.25920  Biso   1.000  H
  H52      1.0000 0.48200  0.35830  0.30940  Biso   1.000  H
  H53      1.0000 0.30770  0.49750  0.31300  Biso   1.000  H
  H54      1.0000 0.40380  0.48400  0.36420  Biso   1.000  H
  H55      1.0000 0.22450  0.30800  0.33310  Biso   1.000  H
  H56      1.0000 0.33050  0.27830  0.37590  Biso   1.000  H
  H57      1.0000 0.17860  0.33700  0.43470  Biso   1.000  H
  H58      1.0000 0.17670  0.45270  0.39660  Biso   1.000  H
  H59      1.0000 0.28280  0.42310  0.43940  Biso   1.000  H
  C57      1.0000 0.57100  0.59100  0.28850  Biso   1.000  C
  C58      1.0000 0.64000  0.55600  0.33280  Biso   1.000  C
  C59      1.0000 0.71900  0.66090  0.36170  Biso   1.000  C
  C60      1.0000 0.77500  0.60800  0.41200  Biso   1.000  C
  H60      1.0000 0.61660  0.63520  0.25920  Biso   1.000  H
  H61      1.0000 0.51800  0.64170  0.30940  Biso   1.000  H
  H62      1.0000 0.69230  0.50250  0.31300  Biso   1.000  H
  H63      1.0000 0.59620  0.51600  0.36420  Biso   1.000  H
  H64      1.0000 0.77550  0.69200  0.33310  Biso   1.000  H
  H65      1.0000 0.66950  0.72170  0.37590  Biso   1.000  H
  H66      1.0000 0.82140  0.66300  0.43470  Biso   1.000  H
  H67      1.0000 0.82330  0.54730  0.39660  Biso   1.000  H
  H68      1.0000 0.71720  0.57690  0.43940  Biso   1.000  H
  N13      1.0000 0.50000  0.50000  0.25000  Biso   1.000  N
  C61      1.0000 0.42900  0.59100  0.78850  Biso   1.000  C
  C62      1.0000 0.36000  0.55600  0.83280  Biso   1.000  C
  C63      1.0000 0.28100  0.66090  0.86170  Biso   1.000  C
  C64      1.0000 0.22500  0.60800  0.91200  Biso   1.000  C
  H69      1.0000 0.38340  0.63520  0.75920  Biso   1.000  H
  H70      1.0000 0.48200  0.64170  0.80940  Biso   1.000  H
  H71      1.0000 0.30770  0.50250  0.81300  Biso   1.000  H
  H72      1.0000 0.40380  0.51600  0.86420  Biso   1.000  H
  H73      1.0000 0.22450  0.69200  0.83310  Biso   1.000  H
  H74      1.0000 0.33050  0.72170  0.87590  Biso   1.000  H
  H75      1.0000 0.17860  0.66300  0.93470  Biso   1.000  H
  H76      1.0000 0.17670  0.54730  0.89660  Biso   1.000  H
  H77      1.0000 0.28280  0.57690  0.93940  Biso   1.000  H
  C65      1.0000 0.57100  0.40900  0.78850  Biso   1.000  C
  C66      1.0000 0.64000  0.44400  0.83280  Biso   1.000  C
  C67      1.0000 0.71900  0.33910  0.86170  Biso   1.000  C
  C68      1.0000 0.77500  0.39200  0.91200  Biso   1.000  C
  H78      1.0000 0.61660  0.36480  0.75920  Biso   1.000  H
  H79      1.0000 0.51800  0.35830  0.80940  Biso   1.000  H
  H80      1.0000 0.69230  0.49750  0.81300  Biso   1.000  H
  H81      1.0000 0.59620  0.48400  0.86420  Biso   1.000  H
  H82      1.0000 0.77550  0.30800  0.83310  Biso   1.000  H
  H83      1.0000 0.66950  0.27830  0.87590  Biso   1.000  H
  H84      1.0000 0.82140  0.33700  0.93470  Biso   1.000  H
  H85      1.0000 0.82330  0.45270  0.89660  Biso   1.000  H
  H86      1.0000 0.71720  0.42310  0.93940  Biso   1.000  H
  C69      1.0000 0.57100  0.59100  0.71150  Biso   1.000  C
  C70      1.0000 0.64000  0.55600  0.66720  Biso   1.000  C
  C71      1.0000 0.71900  0.66090  0.63830  Biso   1.000  C
  C72      1.0000 0.77500  0.60800  0.58800  Biso   1.000  C
  H87      1.0000 0.61660  0.63520  0.74080  Biso   1.000  H
  H88      1.0000 0.51800  0.64170  0.69060  Biso   1.000  H
  H89      1.0000 0.69230  0.50250  0.68700  Biso   1.000  H
  H90      1.0000 0.59620  0.51600  0.63580  Biso   1.000  H
  H91      1.0000 0.77550  0.69200  0.66690  Biso   1.000  H
  H92      1.0000 0.66950  0.72170  0.62410  Biso   1.000  H
  H93      1.0000 0.82140  0.66300  0.56530  Biso   1.000  H
  H94      1.0000 0.82330  0.54730  0.60340  Biso   1.000  H
  H95      1.0000 0.71720  0.57690  0.56060  Biso   1.000  H
  C73      1.0000 0.42900  0.40900  0.71150  Biso   1.000  C
  C74      1.0000 0.36000  0.44400  0.66720  Biso   1.000  C
  C75      1.0000 0.28100  0.33910  0.63830  Biso   1.000  C
  C76      1.0000 0.22500  0.39200  0.58800  Biso   1.000  C
  H96      1.0000 0.38340  0.36480  0.74080  Biso   1.000  H
  H97      1.0000 0.48200  0.35830  0.69060  Biso   1.000  H
  H98      1.0000 0.30770  0.49750  0.68700  Biso   1.000  H
  H99      1.0000 0.40380  0.48400  0.63580  Biso   1.000  H
  H100     1.0000 0.22450  0.30800  0.66690  Biso   1.000  H
  H101     1.0000 0.33050  0.27830  0.62410  Biso   1.000  H
  H102     1.0000 0.17860  0.33700  0.56530  Biso   1.000  H
  H103     1.0000 0.17670  0.45270  0.60340  Biso   1.000  H
  H104     1.0000 0.28280  0.42310  0.56060  Biso   1.000  H
  N14      1.0000 0.50000  0.50000  0.75000  Biso   1.000  N
