data_image0
_cell_length_a       18.5653
_cell_length_b       18.5653
_cell_length_c       23.9636
_cell_angle_alpha    90
_cell_angle_beta     90
_cell_angle_gamma    120

_symmetry_space_group_name_H-M    "P 1"
_symmetry_int_tables_number       1

loop_
  _symmetry_equiv_pos_as_xyz
  'x, y, z'

loop_
  _atom_site_label
  _atom_site_occupancy
  _atom_site_fract_x
  _atom_site_fract_y
  _atom_site_fract_z
  _atom_site_thermal_displace_type
  _atom_site_B_iso_or_equiv
  _atom_site_type_symbol
  O1       1.0000 0.48134  0.37099  0.99451  Biso   1.000  O
  O2       1.0000 0.44018  0.41081  0.07120  Biso   1.000  O
  N1       1.0000 0.23890  0.08480  0.20070  Biso   1.000  N
  H1       1.0000 0.46030  0.28180  0.21810  Biso   1.000  H
  C1       1.0000 0.45000  0.35950  0.04287  Biso   1.000  C
  C2       1.0000 0.42250  0.27640  0.06923  Biso   1.000  C
  C3       1.0000 0.38140  0.25560  0.11950  Biso   1.000  C
  H2       1.0000 0.36760  0.29210  0.13650  Biso   1.000  H
  O3       1.0000 0.62901  0.11035  0.99451  Biso   1.000  O
  O4       1.0000 0.58919  0.02937  0.07120  Biso   1.000  O
  N2       1.0000 0.91520  0.15410  0.20070  Biso   1.000  N
  H3       1.0000 0.71820  0.17850  0.21810  Biso   1.000  H
  C4       1.0000 0.64050  0.09050  0.04287  Biso   1.000  C
  C5       1.0000 0.72360  0.14610  0.06923  Biso   1.000  C
  C6       1.0000 0.74440  0.12580  0.11950  Biso   1.000  C
  H4       1.0000 0.70790  0.07550  0.13650  Biso   1.000  H
  O5       1.0000 0.88965  0.51866  0.99451  Biso   1.000  O
  O6       1.0000 0.97063  0.55982  0.07120  Biso   1.000  O
  N3       1.0000 0.84590  0.76110  0.20070  Biso   1.000  N
  H5       1.0000 0.82150  0.53970  0.21810  Biso   1.000  H
  C7       1.0000 0.90950  0.55000  0.04287  Biso   1.000  C
  C8       1.0000 0.85390  0.57750  0.06923  Biso   1.000  C
  C9       1.0000 0.87420  0.61860  0.11950  Biso   1.000  C
  H6       1.0000 0.92450  0.63240  0.13650  Biso   1.000  H
  O7       1.0000 0.51866  0.62901  0.49451  Biso   1.000  O
  O8       1.0000 0.55982  0.58919  0.57120  Biso   1.000  O
  N4       1.0000 0.76110  0.91520  0.70070  Biso   1.000  N
  H7       1.0000 0.53970  0.71820  0.71810  Biso   1.000  H
  C10      1.0000 0.55000  0.64050  0.54287  Biso   1.000  C
  C11      1.0000 0.57750  0.72360  0.56923  Biso   1.000  C
  C12      1.0000 0.61860  0.74440  0.61950  Biso   1.000  C
  H8       1.0000 0.63240  0.70790  0.63650  Biso   1.000  H
  O9       1.0000 0.37099  0.88965  0.49451  Biso   1.000  O
  O10      1.0000 0.41081  0.97063  0.57120  Biso   1.000  O
  N5       1.0000 0.08480  0.84590  0.70070  Biso   1.000  N
  H9       1.0000 0.28180  0.82150  0.71810  Biso   1.000  H
  C13      1.0000 0.35950  0.90950  0.54287  Biso   1.000  C
  C14      1.0000 0.27640  0.85390  0.56923  Biso   1.000  C
  C15      1.0000 0.25560  0.87420  0.61950  Biso   1.000  C
  H10      1.0000 0.29210  0.92450  0.63650  Biso   1.000  H
  O11      1.0000 0.11035  0.48134  0.49451  Biso   1.000  O
  O12      1.0000 0.02937  0.44018  0.57120  Biso   1.000  O
  N6       1.0000 0.15410  0.23890  0.70070  Biso   1.000  N
  H11      1.0000 0.17850  0.46030  0.71810  Biso   1.000  H
  C16      1.0000 0.09050  0.45000  0.54287  Biso   1.000  C
  C17      1.0000 0.14610  0.42250  0.56923  Biso   1.000  C
  C18      1.0000 0.12580  0.38140  0.61950  Biso   1.000  C
  H12      1.0000 0.07550  0.36760  0.63650  Biso   1.000  H
  O13      1.0000 0.37099  0.48134  0.00549  Biso   1.000  O
  O14      1.0000 0.41081  0.44018  0.92880  Biso   1.000  O
  N7       1.0000 0.08480  0.23890  0.79930  Biso   1.000  N
  H13      1.0000 0.28180  0.46030  0.78190  Biso   1.000  H
  C19      1.0000 0.35950  0.45000  0.95713  Biso   1.000  C
  C20      1.0000 0.27640  0.42250  0.93077  Biso   1.000  C
  C21      1.0000 0.25560  0.38140  0.88050  Biso   1.000  C
  H14      1.0000 0.29210  0.36760  0.86350  Biso   1.000  H
  O15      1.0000 0.11035  0.62901  0.00549  Biso   1.000  O
  O16      1.0000 0.02937  0.58919  0.92880  Biso   1.000  O
  N8       1.0000 0.15410  0.91520  0.79930  Biso   1.000  N
  H15      1.0000 0.17850  0.71820  0.78190  Biso   1.000  H
  C22      1.0000 0.09050  0.64050  0.95713  Biso   1.000  C
  C23      1.0000 0.14610  0.72360  0.93077  Biso   1.000  C
  C24      1.0000 0.12580  0.74440  0.88050  Biso   1.000  C
  H16      1.0000 0.07550  0.70790  0.86350  Biso   1.000  H
  O17      1.0000 0.51866  0.88965  0.00549  Biso   1.000  O
  O18      1.0000 0.55982  0.97063  0.92880  Biso   1.000  O
  N9       1.0000 0.76110  0.84590  0.79930  Biso   1.000  N
  H17      1.0000 0.53970  0.82150  0.78190  Biso   1.000  H
  C25      1.0000 0.55000  0.90950  0.95713  Biso   1.000  C
  C26      1.0000 0.57750  0.85390  0.93077  Biso   1.000  C
  C27      1.0000 0.61860  0.87420  0.88050  Biso   1.000  C
  H18      1.0000 0.63240  0.92450  0.86350  Biso   1.000  H
  O19      1.0000 0.62901  0.51866  0.50549  Biso   1.000  O
  O20      1.0000 0.58919  0.55982  0.42880  Biso   1.000  O
  N10      1.0000 0.91520  0.76110  0.29930  Biso   1.000  N
  H19      1.0000 0.71820  0.53970  0.28190  Biso   1.000  H
  C28      1.0000 0.64050  0.55000  0.45713  Biso   1.000  C
  C29      1.0000 0.72360  0.57750  0.43077  Biso   1.000  C
  C30      1.0000 0.74440  0.61860  0.38050  Biso   1.000  C
  H20      1.0000 0.70790  0.63240  0.36350  Biso   1.000  H
  O21      1.0000 0.88965  0.37099  0.50549  Biso   1.000  O
  O22      1.0000 0.97063  0.41081  0.42880  Biso   1.000  O
  N11      1.0000 0.84590  0.08480  0.29930  Biso   1.000  N
  H21      1.0000 0.82150  0.28180  0.28190  Biso   1.000  H
  C31      1.0000 0.90950  0.35950  0.45713  Biso   1.000  C
  C32      1.0000 0.85390  0.27640  0.43077  Biso   1.000  C
  C33      1.0000 0.87420  0.25560  0.38050  Biso   1.000  C
  H22      1.0000 0.92450  0.29210  0.36350  Biso   1.000  H
  O23      1.0000 0.48134  0.11035  0.50549  Biso   1.000  O
  O24      1.0000 0.44018  0.02937  0.42880  Biso   1.000  O
  N12      1.0000 0.23890  0.15410  0.29930  Biso   1.000  N
  H23      1.0000 0.46030  0.17850  0.28190  Biso   1.000  H
  C34      1.0000 0.45000  0.09050  0.45713  Biso   1.000  C
  C35      1.0000 0.42250  0.14610  0.43077  Biso   1.000  C
  C36      1.0000 0.38140  0.12580  0.38050  Biso   1.000  C
  H24      1.0000 0.36760  0.07550  0.36350  Biso   1.000  H
  O25      1.0000 0.51866  0.62901  0.00549  Biso   1.000  O
  O26      1.0000 0.55982  0.58919  0.92880  Biso   1.000  O
  N13      1.0000 0.76110  0.91520  0.79930  Biso   1.000  N
  H25      1.0000 0.53970  0.71820  0.78190  Biso   1.000  H
  C37      1.0000 0.55000  0.64050  0.95713  Biso   1.000  C
  C38      1.0000 0.57750  0.72360  0.93077  Biso   1.000  C
  C39      1.0000 0.61860  0.74440  0.88050  Biso   1.000  C
  H26      1.0000 0.63240  0.70790  0.86350  Biso   1.000  H
  O27      1.0000 0.37099  0.88965  0.00549  Biso   1.000  O
  O28      1.0000 0.41081  0.97063  0.92880  Biso   1.000  O
  N14      1.0000 0.08480  0.84590  0.79930  Biso   1.000  N
  H27      1.0000 0.28180  0.82150  0.78190  Biso   1.000  H
  C40      1.0000 0.35950  0.90950  0.95713  Biso   1.000  C
  C41      1.0000 0.27640  0.85390  0.93077  Biso   1.000  C
  C42      1.0000 0.25560  0.87420  0.88050  Biso   1.000  C
  H28      1.0000 0.29210  0.92450  0.86350  Biso   1.000  H
  O29      1.0000 0.11035  0.48134  0.00549  Biso   1.000  O
  O30      1.0000 0.02937  0.44018  0.92880  Biso   1.000  O
  N15      1.0000 0.15410  0.23890  0.79930  Biso   1.000  N
  H29      1.0000 0.17850  0.46030  0.78190  Biso   1.000  H
  C43      1.0000 0.09050  0.45000  0.95713  Biso   1.000  C
  C44      1.0000 0.14610  0.42250  0.93077  Biso   1.000  C
  C45      1.0000 0.12580  0.38140  0.88050  Biso   1.000  C
  H30      1.0000 0.07550  0.36760  0.86350  Biso   1.000  H
  O31      1.0000 0.48134  0.37099  0.50549  Biso   1.000  O
  O32      1.0000 0.44018  0.41081  0.42880  Biso   1.000  O
  N16      1.0000 0.23890  0.08480  0.29930  Biso   1.000  N
  H31      1.0000 0.46030  0.28180  0.28190  Biso   1.000  H
  C46      1.0000 0.45000  0.35950  0.45713  Biso   1.000  C
  C47      1.0000 0.42250  0.27640  0.43077  Biso   1.000  C
  C48      1.0000 0.38140  0.25560  0.38050  Biso   1.000  C
  H32      1.0000 0.36760  0.29210  0.36350  Biso   1.000  H
  O33      1.0000 0.62901  0.11035  0.50549  Biso   1.000  O
  O34      1.0000 0.58919  0.02937  0.42880  Biso   1.000  O
  N17      1.0000 0.91520  0.15410  0.29930  Biso   1.000  N
  H33      1.0000 0.71820  0.17850  0.28190  Biso   1.000  H
  C49      1.0000 0.64050  0.09050  0.45713  Biso   1.000  C
  C50      1.0000 0.72360  0.14610  0.43077  Biso   1.000  C
  C51      1.0000 0.74440  0.12580  0.38050  Biso   1.000  C
  H34      1.0000 0.70790  0.07550  0.36350  Biso   1.000  H
  O35      1.0000 0.88965  0.51866  0.50549  Biso   1.000  O
  O36      1.0000 0.97063  0.55982  0.42880  Biso   1.000  O
  N18      1.0000 0.84590  0.76110  0.29930  Biso   1.000  N
  H35      1.0000 0.82150  0.53970  0.28190  Biso   1.000  H
  C52      1.0000 0.90950  0.55000  0.45713  Biso   1.000  C
  C53      1.0000 0.85390  0.57750  0.43077  Biso   1.000  C
  C54      1.0000 0.87420  0.61860  0.38050  Biso   1.000  C
  H36      1.0000 0.92450  0.63240  0.36350  Biso   1.000  H
  O37      1.0000 0.62901  0.51866  0.99451  Biso   1.000  O
  O38      1.0000 0.58919  0.55982  0.07120  Biso   1.000  O
  N19      1.0000 0.91520  0.76110  0.20070  Biso   1.000  N
  H37      1.0000 0.71820  0.53970  0.21810  Biso   1.000  H
  C55      1.0000 0.64050  0.55000  0.04287  Biso   1.000  C
  C56      1.0000 0.72360  0.57750  0.06923  Biso   1.000  C
  C57      1.0000 0.74440  0.61860  0.11950  Biso   1.000  C
  H38      1.0000 0.70790  0.63240  0.13650  Biso   1.000  H
  O39      1.0000 0.88965  0.37099  0.99451  Biso   1.000  O
  O40      1.0000 0.97063  0.41081  0.07120  Biso   1.000  O
  N20      1.0000 0.84590  0.08480  0.20070  Biso   1.000  N
  H39      1.0000 0.82150  0.28180  0.21810  Biso   1.000  H
  C58      1.0000 0.90950  0.35950  0.04287  Biso   1.000  C
  C59      1.0000 0.85390  0.27640  0.06923  Biso   1.000  C
  C60      1.0000 0.87420  0.25560  0.11950  Biso   1.000  C
  H40      1.0000 0.92450  0.29210  0.13650  Biso   1.000  H
  O41      1.0000 0.48134  0.11035  0.99451  Biso   1.000  O
  O42      1.0000 0.44018  0.02937  0.07120  Biso   1.000  O
  N21      1.0000 0.23890  0.15410  0.20070  Biso   1.000  N
  H41      1.0000 0.46030  0.17850  0.21810  Biso   1.000  H
  C61      1.0000 0.45000  0.09050  0.04287  Biso   1.000  C
  C62      1.0000 0.42250  0.14610  0.06923  Biso   1.000  C
  C63      1.0000 0.38140  0.12580  0.11950  Biso   1.000  C
  H42      1.0000 0.36760  0.07550  0.13650  Biso   1.000  H
  O43      1.0000 0.37099  0.48134  0.49451  Biso   1.000  O
  O44      1.0000 0.41081  0.44018  0.57120  Biso   1.000  O
  N22      1.0000 0.08480  0.23890  0.70070  Biso   1.000  N
  H43      1.0000 0.28180  0.46030  0.71810  Biso   1.000  H
  C64      1.0000 0.35950  0.45000  0.54287  Biso   1.000  C
  C65      1.0000 0.27640  0.42250  0.56923  Biso   1.000  C
  C66      1.0000 0.25560  0.38140  0.61950  Biso   1.000  C
  H44      1.0000 0.29210  0.36760  0.63650  Biso   1.000  H
  O45      1.0000 0.11035  0.62901  0.49451  Biso   1.000  O
  O46      1.0000 0.02937  0.58919  0.57120  Biso   1.000  O
  N23      1.0000 0.15410  0.91520  0.70070  Biso   1.000  N
  H45      1.0000 0.17850  0.71820  0.71810  Biso   1.000  H
  C67      1.0000 0.09050  0.64050  0.54287  Biso   1.000  C
  C68      1.0000 0.14610  0.72360  0.56923  Biso   1.000  C
  C69      1.0000 0.12580  0.74440  0.61950  Biso   1.000  C
  H46      1.0000 0.07550  0.70790  0.63650  Biso   1.000  H
  O47      1.0000 0.51866  0.88965  0.49451  Biso   1.000  O
  O48      1.0000 0.55982  0.97063  0.57120  Biso   1.000  O
  N24      1.0000 0.76110  0.84590  0.70070  Biso   1.000  N
  H47      1.0000 0.53970  0.82150  0.71810  Biso   1.000  H
  C70      1.0000 0.55000  0.90950  0.54287  Biso   1.000  C
  C71      1.0000 0.57750  0.85390  0.56923  Biso   1.000  C
  C72      1.0000 0.61860  0.87420  0.61950  Biso   1.000  C
  H48      1.0000 0.63240  0.92450  0.63650  Biso   1.000  H
  Cu1      1.0000 0.52377  0.47623  0.95469  Biso   1.000  Cu
  Cu2      1.0000 0.52377  0.04754  0.95469  Biso   1.000  Cu
  Cu3      1.0000 0.95246  0.47623  0.95469  Biso   1.000  Cu
  Cu4      1.0000 0.47623  0.52377  0.45469  Biso   1.000  Cu
  Cu5      1.0000 0.47623  0.95246  0.45469  Biso   1.000  Cu
  Cu6      1.0000 0.04754  0.52377  0.45469  Biso   1.000  Cu
  Cu7      1.0000 0.47623  0.52377  0.04531  Biso   1.000  Cu
  Cu8      1.0000 0.04754  0.52377  0.04531  Biso   1.000  Cu
  Cu9      1.0000 0.47623  0.95246  0.04531  Biso   1.000  Cu
  Cu10     1.0000 0.52377  0.47623  0.54531  Biso   1.000  Cu
  Cu11     1.0000 0.95246  0.47623  0.54531  Biso   1.000  Cu
  Cu12     1.0000 0.52377  0.04754  0.54531  Biso   1.000  Cu
  N25      1.0000 0.43590  0.25770  0.25000  Biso   1.000  N
  C73      1.0000 0.20730  0.05740  0.25000  Biso   1.000  C
  H49      1.0000 0.15400  0.01110  0.25000  Biso   1.000  H
  N26      1.0000 0.74230  0.17820  0.25000  Biso   1.000  N
  C74      1.0000 0.94260  0.14990  0.25000  Biso   1.000  C
  H50      1.0000 0.98890  0.14290  0.25000  Biso   1.000  H
  N27      1.0000 0.82180  0.56410  0.25000  Biso   1.000  N
  C75      1.0000 0.85010  0.79270  0.25000  Biso   1.000  C
  H51      1.0000 0.85710  0.84600  0.25000  Biso   1.000  H
  N28      1.0000 0.56410  0.74230  0.75000  Biso   1.000  N
  C76      1.0000 0.79270  0.94260  0.75000  Biso   1.000  C
  H52      1.0000 0.84600  0.98890  0.75000  Biso   1.000  H
  N29      1.0000 0.25770  0.82180  0.75000  Biso   1.000  N
  C77      1.0000 0.05740  0.85010  0.75000  Biso   1.000  C
  H53      1.0000 0.01110  0.85710  0.75000  Biso   1.000  H
  N30      1.0000 0.17820  0.43590  0.75000  Biso   1.000  N
  C78      1.0000 0.14990  0.20730  0.75000  Biso   1.000  C
  H54      1.0000 0.14290  0.15400  0.75000  Biso   1.000  H
  N31      1.0000 0.25770  0.43590  0.75000  Biso   1.000  N
  C79      1.0000 0.05740  0.20730  0.75000  Biso   1.000  C
  H55      1.0000 0.01110  0.15400  0.75000  Biso   1.000  H
  N32      1.0000 0.17820  0.74230  0.75000  Biso   1.000  N
  C80      1.0000 0.14990  0.94260  0.75000  Biso   1.000  C
  H56      1.0000 0.14290  0.98890  0.75000  Biso   1.000  H
  N33      1.0000 0.56410  0.82180  0.75000  Biso   1.000  N
  C81      1.0000 0.79270  0.85010  0.75000  Biso   1.000  C
  H57      1.0000 0.84600  0.85710  0.75000  Biso   1.000  H
  N34      1.0000 0.74230  0.56410  0.25000  Biso   1.000  N
  C82      1.0000 0.94260  0.79270  0.25000  Biso   1.000  C
  H58      1.0000 0.98890  0.84600  0.25000  Biso   1.000  H
  N35      1.0000 0.82180  0.25770  0.25000  Biso   1.000  N
  C83      1.0000 0.85010  0.05740  0.25000  Biso   1.000  C
  H59      1.0000 0.85710  0.01110  0.25000  Biso   1.000  H
  N36      1.0000 0.43590  0.17820  0.25000  Biso   1.000  N
  C84      1.0000 0.20730  0.14990  0.25000  Biso   1.000  C
  H60      1.0000 0.15400  0.14290  0.25000  Biso   1.000  H
  C85      1.0000 0.44290  0.22145  0.04350  Biso   1.000  C
  H61      1.0000 0.47010  0.23505  0.00920  Biso   1.000  H
  C86      1.0000 0.36030  0.18015  0.14520  Biso   1.000  C
  C87      1.0000 0.31670  0.15835  0.20050  Biso   1.000  C
  C88      1.0000 0.77855  0.22145  0.04350  Biso   1.000  C
  H62      1.0000 0.76495  0.23505  0.00920  Biso   1.000  H
  C89      1.0000 0.81985  0.18015  0.14520  Biso   1.000  C
  C90      1.0000 0.84165  0.15835  0.20050  Biso   1.000  C
  C91      1.0000 0.77855  0.55710  0.04350  Biso   1.000  C
  H63      1.0000 0.76495  0.52990  0.00920  Biso   1.000  H
  C92      1.0000 0.81985  0.63970  0.14520  Biso   1.000  C
  C93      1.0000 0.84165  0.68330  0.20050  Biso   1.000  C
  C94      1.0000 0.55710  0.77855  0.54350  Biso   1.000  C
  H64      1.0000 0.52990  0.76495  0.50920  Biso   1.000  H
  C95      1.0000 0.63970  0.81985  0.64520  Biso   1.000  C
  C96      1.0000 0.68330  0.84165  0.70050  Biso   1.000  C
  C97      1.0000 0.22145  0.77855  0.54350  Biso   1.000  C
  H65      1.0000 0.23505  0.76495  0.50920  Biso   1.000  H
  C98      1.0000 0.18015  0.81985  0.64520  Biso   1.000  C
  C99      1.0000 0.15835  0.84165  0.70050  Biso   1.000  C
  C100     1.0000 0.22145  0.44290  0.54350  Biso   1.000  C
  H66      1.0000 0.23505  0.47010  0.50920  Biso   1.000  H
  C101     1.0000 0.18015  0.36030  0.64520  Biso   1.000  C
  C102     1.0000 0.15835  0.31670  0.70050  Biso   1.000  C
  C103     1.0000 0.22145  0.44290  0.95650  Biso   1.000  C
  H67      1.0000 0.23505  0.47010  0.99080  Biso   1.000  H
  C104     1.0000 0.18015  0.36030  0.85480  Biso   1.000  C
  C105     1.0000 0.15835  0.31670  0.79950  Biso   1.000  C
  C106     1.0000 0.22145  0.77855  0.95650  Biso   1.000  C
  H68      1.0000 0.23505  0.76495  0.99080  Biso   1.000  H
  C107     1.0000 0.18015  0.81985  0.85480  Biso   1.000  C
  C108     1.0000 0.15835  0.84165  0.79950  Biso   1.000  C
  C109     1.0000 0.55710  0.77855  0.95650  Biso   1.000  C
  H69      1.0000 0.52990  0.76495  0.99080  Biso   1.000  H
  C110     1.0000 0.63970  0.81985  0.85480  Biso   1.000  C
  C111     1.0000 0.68330  0.84165  0.79950  Biso   1.000  C
  C112     1.0000 0.77855  0.55710  0.45650  Biso   1.000  C
  H70      1.0000 0.76495  0.52990  0.49080  Biso   1.000  H
  C113     1.0000 0.81985  0.63970  0.35480  Biso   1.000  C
  C114     1.0000 0.84165  0.68330  0.29950  Biso   1.000  C
  C115     1.0000 0.77855  0.22145  0.45650  Biso   1.000  C
  H71      1.0000 0.76495  0.23505  0.49080  Biso   1.000  H
  C116     1.0000 0.81985  0.18015  0.35480  Biso   1.000  C
  C117     1.0000 0.84165  0.15835  0.29950  Biso   1.000  C
  C118     1.0000 0.44290  0.22145  0.45650  Biso   1.000  C
  H72      1.0000 0.47010  0.23505  0.49080  Biso   1.000  H
  C119     1.0000 0.36030  0.18015  0.35480  Biso   1.000  C
  C120     1.0000 0.31670  0.15835  0.29950  Biso   1.000  C
  C121     1.0000 0.35760  0.17880  0.25000  Biso   1.000  C
  C122     1.0000 0.82120  0.17880  0.25000  Biso   1.000  C
  C123     1.0000 0.82120  0.64240  0.25000  Biso   1.000  C
  C124     1.0000 0.64240  0.82120  0.75000  Biso   1.000  C
  C125     1.0000 0.17880  0.82120  0.75000  Biso   1.000  C
  C126     1.0000 0.17880  0.35760  0.75000  Biso   1.000  C
