data_image0
_cell_length_a       17.5238
_cell_length_b       21.4858
_cell_length_c       22.2555
_cell_angle_alpha    106.51
_cell_angle_beta     105.257
_cell_angle_gamma    105.879

_symmetry_space_group_name_H-M    "P 1"
_symmetry_int_tables_number       1

loop_
  _symmetry_equiv_pos_as_xyz
  'x, y, z'

loop_
  _atom_site_label
  _atom_site_occupancy
  _atom_site_fract_x
  _atom_site_fract_y
  _atom_site_fract_z
  _atom_site_thermal_displace_type
  _atom_site_B_iso_or_equiv
  _atom_site_type_symbol
  U1       1.0000 0.97026  0.41888  0.01540  Biso   1.000  U
  U2       1.0000 0.88931  0.39834  0.82440  Biso   1.000  U
  O1       1.0000 0.87890  0.29179  0.98268  Biso   1.000  O
  O2       1.0000 0.88340  0.32603  0.89988  Biso   1.000  O
  O3       1.0000 0.86930  0.50630  0.82520  Biso   1.000  O
  O4       1.0000 0.99080  0.59770  0.88140  Biso   1.000  O
  N1       1.0000 0.59000  0.09040  0.65540  Biso   1.000  N
  H1       1.0000 0.56540  0.05720  0.66840  Biso   1.000  H
  H2       1.0000 0.64150  0.09020  0.65800  Biso   1.000  H
  C1       1.0000 0.91320  0.56940  0.84310  Biso   1.000  C
  C2       1.0000 0.59910  0.15970  0.70120  Biso   1.000  C
  H3       1.0000 0.54310  0.16250  0.69240  Biso   1.000  H
  H4       1.0000 0.63410  0.19620  0.69150  Biso   1.000  H
  O5       1.0000 0.94330  0.21910  0.78130  Biso   1.000  O
  C3       1.0000 0.91730  0.68470  0.83600  Biso   1.000  C
  H5       1.0000 0.97400  0.70450  0.86530  Biso   1.000  H
  C4       1.0000 0.70690  0.20090  0.91140  Biso   1.000  C
  H6       1.0000 0.72920  0.21120  0.95740  Biso   1.000  H
  N2       1.0000 0.98660  0.38510  0.56320  Biso   1.000  N
  H7       1.0000 0.02940  0.37530  0.55380  Biso   1.000  H
  H8       1.0000 0.00680  0.41390  0.60630  Biso   1.000  H
  C5       1.0000 0.63820  0.17260  0.77390  Biso   1.000  C
  N3       1.0000 0.93310  0.84420  0.89860  Biso   1.000  N
  H9       1.0000 0.95830  0.82990  0.92950  Biso   1.000  H
  H10      1.0000 0.87960  0.83540  0.89640  Biso   1.000  H
  C6       1.0000 0.75810  0.23070  0.87980  Biso   1.000  C
  C7       1.0000 0.74840  0.62640  0.75250  Biso   1.000  C
  H11      1.0000 0.69130  0.60670  0.72380  Biso   1.000  H
  C8       1.0000 0.84530  0.28490  0.92230  Biso   1.000  C
  C9       1.0000 0.92660  0.28710  0.65140  Biso   1.000  C
  H12      1.0000 0.89300  0.31240  0.66130  Biso   1.000  H
  C10      1.0000 0.94880  0.28330  0.59580  Biso   1.000  C
  C11      1.0000 0.72300  0.21540  0.81160  Biso   1.000  C
  H13      1.0000 0.75700  0.23420  0.79040  Biso   1.000  H
  C12      1.0000 0.93150  0.80300  0.83350  Biso   1.000  C
  H14      1.0000 0.98940  0.80930  0.83610  Biso   1.000  H
  H15      1.0000 0.90650  0.81940  0.79970  Biso   1.000  H
  C13      1.0000 0.87170  0.61410  0.81660  Biso   1.000  C
  C14      1.0000 0.62390  0.15670  0.87360  Biso   1.000  C
  H16      1.0000 0.59050  0.13580  0.89410  Biso   1.000  H
  C15      1.0000 0.78700  0.58530  0.77450  Biso   1.000  C
  H17      1.0000 0.75590  0.53780  0.76100  Biso   1.000  H
  C16      1.0000 0.88020  0.72630  0.81270  Biso   1.000  C
  C17      1.0000 0.79380  0.69640  0.77250  Biso   1.000  C
  H18      1.0000 0.76650  0.72440  0.75910  Biso   1.000  H
  C18      1.0000 0.91820  0.31950  0.55180  Biso   1.000  C
  H19      1.0000 0.89720  0.28820  0.50490  Biso   1.000  H
  H20      1.0000 0.87110  0.33040  0.56070  Biso   1.000  H
  C19      1.0000 0.95370  0.25360  0.69280  Biso   1.000  C
  C20      1.0000 0.92560  0.25420  0.75040  Biso   1.000  C
  C21      1.0000 0.53760  0.07440  0.58420  Biso   1.000  C
  H21      1.0000 0.48140  0.07390  0.58190  Biso   1.000  H
  H22      1.0000 0.56370  0.11180  0.57110  Biso   1.000  H
  C22      1.0000 0.95240  0.41980  0.51940  Biso   1.000  C
  H23      1.0000 0.90890  0.43340  0.53230  Biso   1.000  H
  H24      1.0000 0.92550  0.38630  0.47300  Biso   1.000  H
  C23      1.0000 0.00260  0.24770  0.58350  Biso   1.000  C
  H25      1.0000 0.02020  0.24640  0.54740  Biso   1.000  H
  C24      1.0000 0.52780  0.00700  0.53530  Biso   1.000  C
  H26      1.0000 0.50260  0.96930  0.54850  Biso   1.000  H
  H27      1.0000 0.58360  0.00760  0.53610  Biso   1.000  H
  C25      1.0000 0.97780  0.92080  0.92140  Biso   1.000  C
  H28      1.0000 0.95030  0.93680  0.88820  Biso   1.000  H
  H29      1.0000 0.03630  0.93070  0.92400  Biso   1.000  H
  C26      1.0000 0.58920  0.14260  0.80570  Biso   1.000  C
  H30      1.0000 0.53240  0.11280  0.78100  Biso   1.000  H
  C27      1.0000 0.97800  0.96080  0.98900  Biso   1.000  C
  H31      1.0000 0.00680  0.94570  0.02240  Biso   1.000  H
  H32      1.0000 0.91960  0.95010  0.98660  Biso   1.000  H
  C28      1.0000 0.02980  0.21400  0.62520  Biso   1.000  C
  H33      1.0000 0.06400  0.18910  0.61590  Biso   1.000  H
  C29      1.0000 0.00660  0.21770  0.67950  Biso   1.000  C
  H34      1.0000 0.02600  0.19620  0.70780  Biso   1.000  H
  C30      1.0000 0.01880  0.48320  0.52300  Biso   1.000  C
  H35      1.0000 0.06260  0.47000  0.51020  Biso   1.000  H
  H36      1.0000 0.04550  0.51710  0.56920  Biso   1.000  H
  O6       1.0000 0.94970  0.46498  0.93398  Biso   1.000  O
  O7       1.0000 0.87900  0.28930  0.76232  Biso   1.000  O
  U3       1.0000 0.02974  0.58112  0.98460  Biso   1.000  U
  U4       1.0000 0.11069  0.60166  0.17560  Biso   1.000  U
  O8       1.0000 0.12110  0.70821  0.01732  Biso   1.000  O
  O9       1.0000 0.11660  0.67397  0.10012  Biso   1.000  O
  O10      1.0000 0.13070  0.49370  0.17480  Biso   1.000  O
  O11      1.0000 0.00920  0.40230  0.11860  Biso   1.000  O
  N4       1.0000 0.41000  0.90960  0.34460  Biso   1.000  N
  H37      1.0000 0.43460  0.94280  0.33160  Biso   1.000  H
  H38      1.0000 0.35850  0.90980  0.34200  Biso   1.000  H
  C31      1.0000 0.08680  0.43060  0.15690  Biso   1.000  C
  C32      1.0000 0.40090  0.84030  0.29880  Biso   1.000  C
  H39      1.0000 0.45690  0.83750  0.30760  Biso   1.000  H
  H40      1.0000 0.36590  0.80380  0.30850  Biso   1.000  H
  O12      1.0000 0.05670  0.78090  0.21870  Biso   1.000  O
  C33      1.0000 0.08270  0.31530  0.16400  Biso   1.000  C
  H41      1.0000 0.02600  0.29550  0.13470  Biso   1.000  H
  C34      1.0000 0.29310  0.79910  0.08860  Biso   1.000  C
  H42      1.0000 0.27080  0.78880  0.04260  Biso   1.000  H
  N5       1.0000 0.01340  0.61490  0.43680  Biso   1.000  N
  H43      1.0000 0.97060  0.62470  0.44620  Biso   1.000  H
  H44      1.0000 0.99320  0.58610  0.39370  Biso   1.000  H
  C35      1.0000 0.36180  0.82740  0.22610  Biso   1.000  C
  N6       1.0000 0.06690  0.15580  0.10140  Biso   1.000  N
  H45      1.0000 0.04170  0.17010  0.07050  Biso   1.000  H
  H46      1.0000 0.12040  0.16460  0.10360  Biso   1.000  H
  C36      1.0000 0.24190  0.76930  0.12020  Biso   1.000  C
  C37      1.0000 0.25160  0.37360  0.24750  Biso   1.000  C
  H47      1.0000 0.30870  0.39330  0.27620  Biso   1.000  H
  C38      1.0000 0.15470  0.71510  0.07770  Biso   1.000  C
  C39      1.0000 0.07340  0.71290  0.34860  Biso   1.000  C
  H48      1.0000 0.10700  0.68760  0.33870  Biso   1.000  H
  C40      1.0000 0.05120  0.71670  0.40420  Biso   1.000  C
  C41      1.0000 0.27700  0.78460  0.18840  Biso   1.000  C
  H49      1.0000 0.24300  0.76580  0.20960  Biso   1.000  H
  C42      1.0000 0.06850  0.19700  0.16650  Biso   1.000  C
  H50      1.0000 0.01060  0.19070  0.16390  Biso   1.000  H
  H51      1.0000 0.09350  0.18060  0.20030  Biso   1.000  H
  C43      1.0000 0.12830  0.38590  0.18340  Biso   1.000  C
  C44      1.0000 0.37610  0.84330  0.12640  Biso   1.000  C
  H52      1.0000 0.40950  0.86420  0.10590  Biso   1.000  H
  C45      1.0000 0.21300  0.41470  0.22550  Biso   1.000  C
  H53      1.0000 0.24410  0.46220  0.23900  Biso   1.000  H
  C46      1.0000 0.11980  0.27370  0.18730  Biso   1.000  C
  C47      1.0000 0.20620  0.30360  0.22750  Biso   1.000  C
  H54      1.0000 0.23350  0.27560  0.24090  Biso   1.000  H
  C48      1.0000 0.08180  0.68050  0.44820  Biso   1.000  C
  H55      1.0000 0.10280  0.71180  0.49510  Biso   1.000  H
  H56      1.0000 0.12890  0.66960  0.43930  Biso   1.000  H
  C49      1.0000 0.04630  0.74640  0.30720  Biso   1.000  C
  C50      1.0000 0.07440  0.74580  0.24960  Biso   1.000  C
  C51      1.0000 0.46240  0.92560  0.41580  Biso   1.000  C
  H57      1.0000 0.51860  0.92610  0.41810  Biso   1.000  H
  H58      1.0000 0.43630  0.88820  0.42890  Biso   1.000  H
  C52      1.0000 0.04760  0.58020  0.48060  Biso   1.000  C
  H59      1.0000 0.09110  0.56660  0.46770  Biso   1.000  H
  H60      1.0000 0.07450  0.61370  0.52700  Biso   1.000  H
  C53      1.0000 0.99740  0.75230  0.41650  Biso   1.000  C
  H61      1.0000 0.97980  0.75360  0.45260  Biso   1.000  H
  C54      1.0000 0.47220  0.99300  0.46470  Biso   1.000  C
  H62      1.0000 0.49740  0.03070  0.45150  Biso   1.000  H
  H63      1.0000 0.41640  0.99240  0.46390  Biso   1.000  H
  C55      1.0000 0.02220  0.07920  0.07860  Biso   1.000  C
  H64      1.0000 0.04970  0.06320  0.11180  Biso   1.000  H
  H65      1.0000 0.96370  0.06930  0.07600  Biso   1.000  H
  C56      1.0000 0.41080  0.85740  0.19430  Biso   1.000  C
  H66      1.0000 0.46760  0.88720  0.21900  Biso   1.000  H
  C57      1.0000 0.02200  0.03920  0.01100  Biso   1.000  C
  H67      1.0000 0.99320  0.05430  0.97760  Biso   1.000  H
  H68      1.0000 0.08040  0.04990  0.01340  Biso   1.000  H
  C58      1.0000 0.97020  0.78600  0.37480  Biso   1.000  C
  H69      1.0000 0.93600  0.81090  0.38410  Biso   1.000  H
  C59      1.0000 0.99340  0.78230  0.32050  Biso   1.000  C
  H70      1.0000 0.97400  0.80380  0.29220  Biso   1.000  H
  C60      1.0000 0.98120  0.51680  0.47700  Biso   1.000  C
  H71      1.0000 0.93740  0.53000  0.48980  Biso   1.000  H
  H72      1.0000 0.95450  0.48290  0.43080  Biso   1.000  H
  O13      1.0000 0.05030  0.53502  0.06602  Biso   1.000  O
  O14      1.0000 0.12100  0.71070  0.23768  Biso   1.000  O
  O15      1.0000 0.49700  0.72380  0.09640  Biso   1.000  O
  O16      1.0000 0.46910  0.48800  0.18960  Biso   1.000  O
  N7       1.0000 0.39660  0.55930  0.17050  Biso   1.000  N
  O17      1.0000 0.65260  0.49550  0.19540  Biso   1.000  O
  O18      1.0000 0.30290  0.37390  0.04590  Biso   1.000  O
  N8       1.0000 0.77150  0.59800  0.03830  Biso   1.000  N
  N9       1.0000 0.76420  0.50420  0.07930  Biso   1.000  N
  N10      1.0000 0.29580  0.57170  0.02630  Biso   1.000  N
  O19      1.0000 0.68390  0.73020  0.09880  Biso   1.000  O
  N11      1.0000 0.67970  0.61410  0.23800  Biso   1.000  N
  N12      1.0000 0.28000  0.47770  0.06690  Biso   1.000  N
  C61      1.0000 0.23690  0.51140  0.02890  Biso   1.000  C
  H73      1.0000 0.19310  0.52240  0.04460  Biso   1.000  H
  N13      1.0000 0.40920  0.65610  0.13210  Biso   1.000  N
  C62      1.0000 0.80130  0.54290  0.04380  Biso   1.000  C
  H74      1.0000 0.86380  0.55980  0.06210  Biso   1.000  H
  N14      1.0000 0.54600  0.70780  0.19540  Biso   1.000  N
  N15      1.0000 0.75130  0.57640  0.17870  Biso   1.000  N
  N16      1.0000 0.68290  0.70450  0.19240  Biso   1.000  N
  C63      1.0000 0.79160  0.53030  0.15160  Biso   1.000  C
  H75      1.0000 0.85300  0.55550  0.17090  Biso   1.000  H
  H76      1.0000 0.77920  0.49090  0.16530  Biso   1.000  H
  C64      1.0000 0.33010  0.64080  0.07960  Biso   1.000  C
  H77      1.0000 0.33890  0.67560  0.05970  Biso   1.000  H
  H78      1.0000 0.28800  0.64510  0.09970  Biso   1.000  H
  N17      1.0000 0.76730  0.67380  0.14100  Biso   1.000  N
  C65      1.0000 0.41460  0.63350  0.18830  Biso   1.000  C
  H79      1.0000 0.38150  0.64970  0.21410  Biso   1.000  H
  N18      1.0000 0.53600  0.60840  0.22900  Biso   1.000  N
  C66      1.0000 0.80610  0.66620  0.09120  Biso   1.000  C
  H80      1.0000 0.80070  0.70000  0.07090  Biso   1.000  H
  H81      1.0000 0.86660  0.67800  0.11390  Biso   1.000  H
  C67      1.0000 0.27330  0.41350  0.02710  Biso   1.000  C
  C68      1.0000 0.73110  0.67630  0.23430  Biso   1.000  C
  H82      1.0000 0.76680  0.71220  0.27940  Biso   1.000  H
  C69      1.0000 0.46720  0.54610  0.19530  Biso   1.000  C
  C70      1.0000 0.69100  0.55620  0.20280  Biso   1.000  C
  C71      1.0000 0.31250  0.50370  0.13950  Biso   1.000  C
  H83      1.0000 0.31520  0.46530  0.15350  Biso   1.000  H
  H84      1.0000 0.27310  0.52110  0.15560  Biso   1.000  H
  C72      1.0000 0.78530  0.65210  0.19710  Biso   1.000  C
  H85      1.0000 0.84610  0.67360  0.22560  Biso   1.000  H
  C73      1.0000 0.48470  0.69790  0.13710  Biso   1.000  C
  C74      1.0000 0.51230  0.66730  0.23030  Biso   1.000  C
  H86      1.0000 0.52410  0.69740  0.27670  Biso   1.000  H
  C75      1.0000 0.63460  0.74570  0.21360  Biso   1.000  C
  H87      1.0000 0.66020  0.76950  0.26230  Biso   1.000  H
  H88      1.0000 0.64050  0.78140  0.19460  Biso   1.000  H
  C76      1.0000 0.70870  0.70540  0.13930  Biso   1.000  C
  C77      1.0000 0.61720  0.61090  0.27010  Biso   1.000  C
  H89      1.0000 0.60710  0.56970  0.28130  Biso   1.000  H
  H90      1.0000 0.64080  0.65170  0.31200  Biso   1.000  H
  O20      1.0000 0.67770  0.39190  0.05710  Biso   1.000  O
  C78      1.0000 0.71110  0.43710  0.03820  Biso   1.000  C
  O21      1.0000 0.50300  0.27620  0.90360  Biso   1.000  O
  O22      1.0000 0.53090  0.51200  0.81040  Biso   1.000  O
  N19      1.0000 0.60340  0.44070  0.82950  Biso   1.000  N
  O23      1.0000 0.34740  0.50450  0.80460  Biso   1.000  O
  O24      1.0000 0.69710  0.62610  0.95410  Biso   1.000  O
  N20      1.0000 0.22850  0.40200  0.96170  Biso   1.000  N
  N21      1.0000 0.23580  0.49580  0.92070  Biso   1.000  N
  N22      1.0000 0.70420  0.42830  0.97370  Biso   1.000  N
  O25      1.0000 0.31610  0.26980  0.90120  Biso   1.000  O
  N23      1.0000 0.32030  0.38590  0.76200  Biso   1.000  N
  N24      1.0000 0.72000  0.52230  0.93310  Biso   1.000  N
  C79      1.0000 0.76310  0.48860  0.97110  Biso   1.000  C
  H91      1.0000 0.80690  0.47760  0.95540  Biso   1.000  H
  N25      1.0000 0.59080  0.34390  0.86790  Biso   1.000  N
  C80      1.0000 0.19870  0.45710  0.95620  Biso   1.000  C
  H92      1.0000 0.13620  0.44020  0.93790  Biso   1.000  H
  N26      1.0000 0.45400  0.29220  0.80460  Biso   1.000  N
  N27      1.0000 0.24870  0.42360  0.82130  Biso   1.000  N
  N28      1.0000 0.31710  0.29550  0.80760  Biso   1.000  N
  C81      1.0000 0.20840  0.46970  0.84840  Biso   1.000  C
  H93      1.0000 0.14700  0.44450  0.82910  Biso   1.000  H
  H94      1.0000 0.22080  0.50910  0.83470  Biso   1.000  H
  C82      1.0000 0.66990  0.35920  0.92040  Biso   1.000  C
  H95      1.0000 0.66110  0.32440  0.94030  Biso   1.000  H
  H96      1.0000 0.71200  0.35490  0.90030  Biso   1.000  H
  N29      1.0000 0.23270  0.32620  0.85900  Biso   1.000  N
  C83      1.0000 0.58540  0.36650  0.81170  Biso   1.000  C
  H97      1.0000 0.61850  0.35030  0.78590  Biso   1.000  H
  N30      1.0000 0.46400  0.39160  0.77100  Biso   1.000  N
  C84      1.0000 0.19390  0.33380  0.90880  Biso   1.000  C
  H98      1.0000 0.19930  0.30000  0.92910  Biso   1.000  H
  H99      1.0000 0.13340  0.32200  0.88610  Biso   1.000  H
  C85      1.0000 0.72670  0.58650  0.97290  Biso   1.000  C
  C86      1.0000 0.26890  0.32370  0.76570  Biso   1.000  C
  H100     1.0000 0.23320  0.28780  0.72060  Biso   1.000  H
  C87      1.0000 0.53280  0.45390  0.80470  Biso   1.000  C
  C88      1.0000 0.30900  0.44380  0.79720  Biso   1.000  C
  C89      1.0000 0.68750  0.49630  0.86050  Biso   1.000  C
  H101     1.0000 0.68480  0.53470  0.84650  Biso   1.000  H
  H102     1.0000 0.72690  0.47890  0.84440  Biso   1.000  H
  C90      1.0000 0.21470  0.34790  0.80290  Biso   1.000  C
  H103     1.0000 0.15390  0.32640  0.77440  Biso   1.000  H
  C91      1.0000 0.51530  0.30210  0.86290  Biso   1.000  C
  C92      1.0000 0.48770  0.33270  0.76970  Biso   1.000  C
  H104     1.0000 0.47590  0.30260  0.72330  Biso   1.000  H
  C93      1.0000 0.36540  0.25430  0.78640  Biso   1.000  C
  H105     1.0000 0.33980  0.23050  0.73770  Biso   1.000  H
  H106     1.0000 0.35950  0.21860  0.80540  Biso   1.000  H
  C94      1.0000 0.29130  0.29460  0.86070  Biso   1.000  C
  C95      1.0000 0.38280  0.38910  0.72990  Biso   1.000  C
  H107     1.0000 0.39290  0.43030  0.71870  Biso   1.000  H
  H108     1.0000 0.35920  0.34830  0.68800  Biso   1.000  H
  O26      1.0000 0.32230  0.60810  0.94290  Biso   1.000  O
  C96      1.0000 0.28890  0.56290  0.96180  Biso   1.000  C
  O27      1.0000 0.97570  0.03910  0.20800  Biso   1.000  O
  O28      1.0000 0.82400  0.91400  0.78260  Biso   1.000  O
  O29      1.0000 0.11860  0.23010  0.02820  Biso   1.000  O
  O30      1.0000 0.91290  0.16930  0.01600  Biso   1.000  O
  O31      1.0000 0.75990  0.82170  0.87430  Biso   1.000  O
  N31      1.0000 0.04430  0.17480  0.91340  Biso   1.000  N
  N32      1.0000 0.79040  0.08450  0.93000  Biso   1.000  N
  O32      1.0000 0.83510  0.08630  0.10160  Biso   1.000  O
  N33      1.0000 0.85970  0.03200  0.80710  Biso   1.000  N
  N34      1.0000 0.76630  0.96740  0.06410  Biso   1.000  N
  N35      1.0000 0.74200  0.01790  0.99300  Biso   1.000  N
  N36      1.0000 0.75900  0.97770  0.83630  Biso   1.000  N
  N37      1.0000 0.86390  0.93390  0.13620  Biso   1.000  N
  N38      1.0000 0.89660  0.13860  0.90400  Biso   1.000  N
  N39      1.0000 0.00640  0.06650  0.81780  Biso   1.000  N
  N40      1.0000 0.73200  0.85790  0.97040  Biso   1.000  N
  N41      1.0000 0.82590  0.82310  0.04420  Biso   1.000  N
  N42      1.0000 0.71030  0.91080  0.90110  Biso   1.000  N
  C97      1.0000 0.97290  0.19450  0.91230  Biso   1.000  C
  H109     1.0000 0.95920  0.21050  0.87560  Biso   1.000  H
  H110     1.0000 0.98880  0.23370  0.95400  Biso   1.000  H
  C98      1.0000 0.81560  0.96910  0.80630  Biso   1.000  C
  C99      1.0000 0.68600  0.94750  0.95380  Biso   1.000  C
  H111     1.0000 0.62630  0.94280  0.93690  Biso   1.000  H
  C100     1.0000 0.87140  0.13490  0.95600  Biso   1.000  C
  C101     1.0000 0.73820  0.07370  0.96920  Biso   1.000  C
  H112     1.0000 0.67940  0.06270  0.94190  Biso   1.000  H
  H113     1.0000 0.75640  0.11700  0.00770  Biso   1.000  H
  C102     1.0000 0.94830  0.97550  0.17930  Biso   1.000  C
  C103     1.0000 0.85000  0.86050  0.11620  Biso   1.000  C
  H114     1.0000 0.81010  0.83680  0.13360  Biso   1.000  H
  C104     1.0000 0.79760  0.96050  0.12840  Biso   1.000  C
  H115     1.0000 0.81830  0.00620  0.16430  Biso   1.000  H
  H116     1.0000 0.75010  0.92990  0.13390  Biso   1.000  H
  C105     1.0000 0.83400  0.08780  0.83960  Biso   1.000  C
  H117     1.0000 0.81420  0.11010  0.80920  Biso   1.000  H
  C106     1.0000 0.76220  0.04850  0.85750  Biso   1.000  C
  H118     1.0000 0.70780  0.05070  0.83400  Biso   1.000  H
  C107     1.0000 0.74150  0.80280  0.99460  Biso   1.000  C
  H119     1.0000 0.69920  0.79080  0.01440  Biso   1.000  H
  H120     1.0000 0.73040  0.76120  0.95650  Biso   1.000  H
  C108     1.0000 0.70250  0.91100  0.00350  Biso   1.000  C
  H121     1.0000 0.65050  0.88960  0.01080  Biso   1.000  H
  C109     1.0000 0.11270  0.19690  0.97180  Biso   1.000  C
  C110     1.0000 0.69350  0.91950  0.83590  Biso   1.000  C
  H122     1.0000 0.68730  0.87680  0.80170  Biso   1.000  H
  H123     1.0000 0.63970  0.92590  0.82340  Biso   1.000  H
  C111     1.0000 0.06100  0.14010  0.85400  Biso   1.000  C
  H124     1.0000 0.05960  0.16560  0.82390  Biso   1.000  H
  C112     1.0000 0.78680  0.02980  0.05690  Biso   1.000  C
  C113     1.0000 0.73530  0.86030  0.91190  Biso   1.000  C
  C114     1.0000 0.91980  0.04190  0.77390  Biso   1.000  C
  H125     1.0000 0.90640  0.99780  0.73810  Biso   1.000  H
  H126     1.0000 0.91310  0.07530  0.75340  Biso   1.000  H
  O33      1.0000 0.02430  0.96090  0.79200  Biso   1.000  O
  O34      1.0000 0.17600  0.08600  0.21740  Biso   1.000  O
  O35      1.0000 0.88140  0.76990  0.97180  Biso   1.000  O
  O36      1.0000 0.08710  0.83070  0.98400  Biso   1.000  O
  O37      1.0000 0.24010  0.17830  0.12570  Biso   1.000  O
  N43      1.0000 0.95570  0.82520  0.08660  Biso   1.000  N
  N44      1.0000 0.20960  0.91550  0.07000  Biso   1.000  N
  O38      1.0000 0.16490  0.91370  0.89840  Biso   1.000  O
  N45      1.0000 0.14030  0.96800  0.19290  Biso   1.000  N
  N46      1.0000 0.23370  0.03260  0.93590  Biso   1.000  N
  N47      1.0000 0.25800  0.98210  0.00700  Biso   1.000  N
  N48      1.0000 0.24100  0.02230  0.16370  Biso   1.000  N
  N49      1.0000 0.13610  0.06610  0.86380  Biso   1.000  N
  N50      1.0000 0.10340  0.86140  0.09600  Biso   1.000  N
  N51      1.0000 0.99360  0.93350  0.18220  Biso   1.000  N
  N52      1.0000 0.26800  0.14210  0.02960  Biso   1.000  N
  N53      1.0000 0.17410  0.17690  0.95580  Biso   1.000  N
  N54      1.0000 0.28970  0.08920  0.09890  Biso   1.000  N
  C115     1.0000 0.02710  0.80550  0.08770  Biso   1.000  C
  H127     1.0000 0.04080  0.78950  0.12440  Biso   1.000  H
  H128     1.0000 0.01120  0.76630  0.04600  Biso   1.000  H
  C116     1.0000 0.18440  0.03090  0.19370  Biso   1.000  C
  C117     1.0000 0.31400  0.05250  0.04620  Biso   1.000  C
  H129     1.0000 0.37370  0.05720  0.06310  Biso   1.000  H
  C118     1.0000 0.12860  0.86510  0.04400  Biso   1.000  C
  C119     1.0000 0.26180  0.92630  0.03080  Biso   1.000  C
  H130     1.0000 0.32060  0.93730  0.05810  Biso   1.000  H
  H131     1.0000 0.24360  0.88300  0.99230  Biso   1.000  H
  C120     1.0000 0.05170  0.02450  0.82070  Biso   1.000  C
  C121     1.0000 0.15000  0.13950  0.88380  Biso   1.000  C
  H132     1.0000 0.18990  0.16320  0.86640  Biso   1.000  H
  C122     1.0000 0.20240  0.03950  0.87160  Biso   1.000  C
  H133     1.0000 0.18170  0.99380  0.83570  Biso   1.000  H
  H134     1.0000 0.24990  0.07010  0.86610  Biso   1.000  H
  C123     1.0000 0.16600  0.91220  0.16040  Biso   1.000  C
  H135     1.0000 0.18580  0.88990  0.19080  Biso   1.000  H
  C124     1.0000 0.23780  0.95150  0.14250  Biso   1.000  C
  H136     1.0000 0.29220  0.94930  0.16600  Biso   1.000  H
  C125     1.0000 0.25850  0.19720  0.00540  Biso   1.000  C
  H137     1.0000 0.30080  0.20920  0.98560  Biso   1.000  H
  H138     1.0000 0.26960  0.23880  0.04350  Biso   1.000  H
  C126     1.0000 0.29750  0.08900  0.99650  Biso   1.000  C
  H139     1.0000 0.34950  0.11040  0.98920  Biso   1.000  H
  C127     1.0000 0.88730  0.80310  0.02820  Biso   1.000  C
  C128     1.0000 0.30650  0.08050  0.16410  Biso   1.000  C
  H140     1.0000 0.31270  0.12320  0.19830  Biso   1.000  H
  H141     1.0000 0.36030  0.07410  0.17660  Biso   1.000  H
  C129     1.0000 0.93900  0.85990  0.14600  Biso   1.000  C
  H142     1.0000 0.94040  0.83440  0.17610  Biso   1.000  H
  C130     1.0000 0.21320  0.97020  0.94310  Biso   1.000  C
  C131     1.0000 0.26470  0.13970  0.08810  Biso   1.000  C
  C132     1.0000 0.08020  0.95810  0.22610  Biso   1.000  C
  H143     1.0000 0.09360  0.00220  0.26190  Biso   1.000  H
  H144     1.0000 0.08690  0.92470  0.24660  Biso   1.000  H
  O39      1.0000 0.25320  0.61180  0.48090  Biso   1.000  O
  O40      1.0000 0.86740  0.63850  0.44810  Biso   1.000  O
  O41      1.0000 0.12430  0.46470  0.69040  Biso   1.000  O
  O42      1.0000 0.04400  0.72180  0.59370  Biso   1.000  O
  O43      1.0000 0.24840  0.71210  0.61450  Biso   1.000  O
  N55      1.0000 0.17090  0.58490  0.73530  Biso   1.000  N
  N56      1.0000 0.21230  0.68050  0.69690  Biso   1.000  N
  N57      1.0000 0.30030  0.56230  0.55530  Biso   1.000  N
  N58      1.0000 0.30030  0.63980  0.65840  Biso   1.000  N
  C133     1.0000 0.30200  0.49400  0.55170  Biso   1.000  C
  H145     1.0000 0.36040  0.49550  0.56790  Biso   1.000  H
  N59      1.0000 0.94100  0.66790  0.62720  Biso   1.000  N
  C134     1.0000 0.10770  0.58630  0.76440  Biso   1.000  C
  H146     1.0000 0.13360  0.62470  0.80820  Biso   1.000  H
  H147     1.0000 0.08840  0.54310  0.77160  Biso   1.000  H
  N60      1.0000 0.07470  0.68720  0.68190  Biso   1.000  N
  N61      1.0000 0.24230  0.53740  0.68120  Biso   1.000  N
  N62      1.0000 0.03310  0.59440  0.72330  Biso   1.000  N
  N63      1.0000 0.25040  0.46120  0.58320  Biso   1.000  N
  C135     1.0000 0.25830  0.56110  0.49410  Biso   1.000  C
  C136     1.0000 0.17420  0.52300  0.70130  Biso   1.000  C
  C137     1.0000 0.27080  0.48290  0.65440  Biso   1.000  C
  H148     1.0000 0.33220  0.49940  0.67690  Biso   1.000  H
  H149     1.0000 0.24490  0.44280  0.66420  Biso   1.000  H
  C138     1.0000 0.34550  0.62420  0.61460  Biso   1.000  C
  H150     1.0000 0.36280  0.66350  0.60130  Biso   1.000  H
  H151     1.0000 0.39710  0.62060  0.64010  Biso   1.000  H
  C139     1.0000 0.02860  0.65980  0.72110  Biso   1.000  C
  H152     1.0000 0.04620  0.69500  0.76640  Biso   1.000  H
  C140     1.0000 0.23750  0.64410  0.73980  Biso   1.000  C
  H153     1.0000 0.27060  0.67670  0.78670  Biso   1.000  H
  N64      1.0000 0.81540  0.60810  0.52480  Biso   1.000  N
  C141     1.0000 0.93500  0.64070  0.67960  Biso   1.000  C
  H154     1.0000 0.90640  0.66230  0.70670  Biso   1.000  H
  C142     1.0000 0.16440  0.72500  0.70940  Biso   1.000  C
  H155     1.0000 0.18230  0.74960  0.75760  Biso   1.000  H
  H156     1.0000 0.17770  0.75990  0.69000  Biso   1.000  H
  C143     1.0000 0.86970  0.67310  0.58200  Biso   1.000  C
  H157     1.0000 0.89100  0.70890  0.56550  Biso   1.000  H
  H158     1.0000 0.83570  0.68800  0.60680  Biso   1.000  H
  C144     1.0000 0.74600  0.55230  0.52340  Biso   1.000  C
  H159     1.0000 0.70920  0.57010  0.54390  Biso   1.000  H
  C145     1.0000 0.81600  0.60030  0.46230  Biso   1.000  C
  C146     1.0000 0.29270  0.61030  0.70770  Biso   1.000  C
  H160     1.0000 0.34870  0.62180  0.74140  Biso   1.000  H
  C147     1.0000 0.02190  0.69610  0.63170  Biso   1.000  C
  C148     1.0000 0.25220  0.68030  0.65230  Biso   1.000  C
  O44      1.0000 0.94340  0.47800  0.67480  Biso   1.000  O
  N65      1.0000 0.89910  0.56430  0.65560  Biso   1.000  N
  N66      1.0000 0.77550  0.50740  0.55270  Biso   1.000  N
  C149     1.0000 0.95740  0.53960  0.68350  Biso   1.000  C
  C150     1.0000 0.80930  0.52420  0.62460  Biso   1.000  C
  H161     1.0000 0.77990  0.55030  0.64600  Biso   1.000  H
  H162     1.0000 0.79770  0.48100  0.63240  Biso   1.000  H
  O45      1.0000 0.74680  0.38820  0.51910  Biso   1.000  O
  O46      1.0000 0.13260  0.36150  0.55190  Biso   1.000  O
  O47      1.0000 0.87570  0.53530  0.30960  Biso   1.000  O
  O48      1.0000 0.95600  0.27820  0.40630  Biso   1.000  O
  O49      1.0000 0.75160  0.28790  0.38550  Biso   1.000  O
  N67      1.0000 0.82910  0.41510  0.26470  Biso   1.000  N
  N68      1.0000 0.78770  0.31950  0.30310  Biso   1.000  N
  N69      1.0000 0.69970  0.43770  0.44470  Biso   1.000  N
  N70      1.0000 0.69970  0.36020  0.34160  Biso   1.000  N
  C151     1.0000 0.69800  0.50600  0.44830  Biso   1.000  C
  H163     1.0000 0.63960  0.50450  0.43210  Biso   1.000  H
  N71      1.0000 0.05900  0.33210  0.37280  Biso   1.000  N
  C152     1.0000 0.89230  0.41370  0.23560  Biso   1.000  C
  H164     1.0000 0.86640  0.37530  0.19180  Biso   1.000  H
  H165     1.0000 0.91160  0.45690  0.22840  Biso   1.000  H
  N72      1.0000 0.92530  0.31280  0.31810  Biso   1.000  N
  N73      1.0000 0.75770  0.46260  0.31880  Biso   1.000  N
  N74      1.0000 0.96690  0.40560  0.27670  Biso   1.000  N
  N75      1.0000 0.74960  0.53880  0.41680  Biso   1.000  N
  C153     1.0000 0.74170  0.43890  0.50590  Biso   1.000  C
  C154     1.0000 0.82580  0.47700  0.29870  Biso   1.000  C
  C155     1.0000 0.72920  0.51710  0.34560  Biso   1.000  C
  H166     1.0000 0.66780  0.50060  0.32310  Biso   1.000  H
  H167     1.0000 0.75510  0.55720  0.33580  Biso   1.000  H
  C156     1.0000 0.65450  0.37580  0.38540  Biso   1.000  C
  H168     1.0000 0.63720  0.33650  0.39870  Biso   1.000  H
  H169     1.0000 0.60290  0.37940  0.35990  Biso   1.000  H
  C157     1.0000 0.97140  0.34020  0.27890  Biso   1.000  C
  H170     1.0000 0.95380  0.30500  0.23360  Biso   1.000  H
  C158     1.0000 0.76250  0.35590  0.26020  Biso   1.000  C
  H171     1.0000 0.72940  0.32330  0.21330  Biso   1.000  H
  N76      1.0000 0.18460  0.39190  0.47520  Biso   1.000  N
  C159     1.0000 0.06500  0.35930  0.32040  Biso   1.000  C
  H172     1.0000 0.09360  0.33770  0.29330  Biso   1.000  H
  C160     1.0000 0.83560  0.27500  0.29060  Biso   1.000  C
  H173     1.0000 0.81770  0.25040  0.24240  Biso   1.000  H
  H174     1.0000 0.82230  0.24010  0.31000  Biso   1.000  H
  C161     1.0000 0.13030  0.32690  0.41800  Biso   1.000  C
  H175     1.0000 0.10900  0.29110  0.43450  Biso   1.000  H
  H176     1.0000 0.16430  0.31200  0.39320  Biso   1.000  H
  C162     1.0000 0.25400  0.44770  0.47660  Biso   1.000  C
  H177     1.0000 0.29080  0.42990  0.45610  Biso   1.000  H
  C163     1.0000 0.18400  0.39970  0.53770  Biso   1.000  C
  C164     1.0000 0.70730  0.38970  0.29230  Biso   1.000  C
  H178     1.0000 0.65130  0.37820  0.25860  Biso   1.000  H
  C165     1.0000 0.97810  0.30390  0.36830  Biso   1.000  C
  C166     1.0000 0.74780  0.31970  0.34770  Biso   1.000  C
  O50      1.0000 0.05660  0.52200  0.32520  Biso   1.000  O
  N77      1.0000 0.10090  0.43570  0.34440  Biso   1.000  N
  N78      1.0000 0.22450  0.49260  0.44730  Biso   1.000  N
  C167     1.0000 0.04260  0.46040  0.31650  Biso   1.000  C
  C168     1.0000 0.19070  0.47580  0.37540  Biso   1.000  C
  H179     1.0000 0.22010  0.44970  0.35400  Biso   1.000  H
  H180     1.0000 0.20230  0.51900  0.36760  Biso   1.000  H
  O51      1.0000 0.26980  0.96030  0.32470  Biso   1.000  O
  O52      1.0000 0.60170  0.96630  0.33580  Biso   1.000  O
  O53      1.0000 0.59240  0.24370  0.58930  Biso   1.000  O
  O54      1.0000 0.73880  0.16540  0.61680  Biso   1.000  O
  O55      1.0000 0.44030  0.02920  0.30200  Biso   1.000  O
  O56      1.0000 0.40940  0.17320  0.61290  Biso   1.000  O
  N79      1.0000 0.28920  0.08130  0.53160  Biso   1.000  N
  N80      1.0000 0.42990  0.12910  0.36830  Biso   1.000  N
  N81      1.0000 0.36060  0.16270  0.50340  Biso   1.000  N
  N82      1.0000 0.62000  0.21380  0.49000  Biso   1.000  N
  N83      1.0000 0.72810  0.01420  0.43090  Biso   1.000  N
  N84      1.0000 0.56070  0.12780  0.37670  Biso   1.000  N
  N85      1.0000 0.22820  0.99800  0.41520  Biso   1.000  N
  N86      1.0000 0.49050  0.21150  0.48550  Biso   1.000  N
  C169     1.0000 0.28540  0.11890  0.44170  Biso   1.000  C
  H181     1.0000 0.25270  0.14610  0.42760  Biso   1.000  H
  C170     1.0000 0.42630  0.22510  0.50900  Biso   1.000  C
  H182     1.0000 0.39920  0.24830  0.48360  Biso   1.000  H
  H183     1.0000 0.45330  0.25710  0.55590  Biso   1.000  H
  N87      1.0000 0.73080  0.16970  0.51130  Biso   1.000  N
  N88      1.0000 0.78330  0.09630  0.54580  Biso   1.000  N
  C171     1.0000 0.78450  0.08250  0.47950  Biso   1.000  C
  H184     1.0000 0.84280  0.09220  0.48030  Biso   1.000  H
  C172     1.0000 0.48680  0.19820  0.41690  Biso   1.000  C
  H185     1.0000 0.47560  0.23460  0.40200  Biso   1.000  H
  N89      1.0000 0.30230  0.07730  0.38590  Biso   1.000  N
  C173     1.0000 0.74710  0.13280  0.45560  Biso   1.000  C
  H186     1.0000 0.78800  0.16470  0.44470  Biso   1.000  H
  N90      1.0000 0.67330  0.08590  0.39670  Biso   1.000  N
  C174     1.0000 0.57630  0.19830  0.42110  Biso   1.000  C
  H187     1.0000 0.60540  0.23370  0.40640  Biso   1.000  H
  C175     1.0000 0.35930  0.14280  0.55640  Biso   1.000  C
  C176     1.0000 0.56950  0.22470  0.52790  Biso   1.000  C
  C177     1.0000 0.70900  0.22960  0.52070  Biso   1.000  C
  H188     1.0000 0.73990  0.25920  0.50230  Biso   1.000  H
  H189     1.0000 0.72750  0.25610  0.56870  Biso   1.000  H
  C178     1.0000 0.26710  0.00800  0.37110  Biso   1.000  C
  C179     1.0000 0.47260  0.08850  0.34430  Biso   1.000  C
  C180     1.0000 0.62080  0.10990  0.35340  Biso   1.000  C
  H190     1.0000 0.62700  0.11290  0.31400  Biso   1.000  H
  C181     1.0000 0.73760  0.94960  0.42470  Biso   1.000  C
  H191     1.0000 0.79720  0.95680  0.43350  Biso   1.000  H
  H192     1.0000 0.70510  0.91680  0.37840  Biso   1.000  H
  C182     1.0000 0.23370  0.06270  0.46240  Biso   1.000  C
  H193     1.0000 0.17740  0.06410  0.45920  Biso   1.000  H
  C183     1.0000 0.66060  0.01700  0.38240  Biso   1.000  C
  C184     1.0000 0.33940  0.10440  0.34400  Biso   1.000  C
  H194     1.0000 0.31690  0.06780  0.29940  Biso   1.000  H
  H195     1.0000 0.32190  0.14250  0.33960  Biso   1.000  H
  C185     1.0000 0.82460  0.06960  0.59210  Biso   1.000  C
  H196     1.0000 0.87610  0.06690  0.58510  Biso   1.000  H
  H197     1.0000 0.84130  0.10230  0.63790  Biso   1.000  H
  C186     1.0000 0.74960  0.14470  0.56440  Biso   1.000  C
  O57      1.0000 0.73020  0.03970  0.67530  Biso   1.000  O
  O58      1.0000 0.39830  0.03370  0.66420  Biso   1.000  O
  O59      1.0000 0.40760  0.75630  0.41070  Biso   1.000  O
  O60      1.0000 0.26120  0.83460  0.38320  Biso   1.000  O
  O61      1.0000 0.55970  0.97080  0.69800  Biso   1.000  O
  O62      1.0000 0.59060  0.82680  0.38710  Biso   1.000  O
  N91      1.0000 0.71080  0.91870  0.46840  Biso   1.000  N
  N92      1.0000 0.57010  0.87090  0.63170  Biso   1.000  N
  N93      1.0000 0.63940  0.83730  0.49660  Biso   1.000  N
  N94      1.0000 0.38000  0.78620  0.51000  Biso   1.000  N
  N95      1.0000 0.27190  0.98580  0.56910  Biso   1.000  N
  N96      1.0000 0.43930  0.87220  0.62330  Biso   1.000  N
  N97      1.0000 0.77180  0.00200  0.58480  Biso   1.000  N
  N98      1.0000 0.50950  0.78850  0.51450  Biso   1.000  N
  C187     1.0000 0.71460  0.88110  0.55830  Biso   1.000  C
  H198     1.0000 0.74730  0.85390  0.57240  Biso   1.000  H
  C188     1.0000 0.57370  0.77490  0.49100  Biso   1.000  C
  H199     1.0000 0.60080  0.75170  0.51640  Biso   1.000  H
  H200     1.0000 0.54670  0.74290  0.44410  Biso   1.000  H
  N99      1.0000 0.26920  0.83030  0.48870  Biso   1.000  N
  N100     1.0000 0.21670  0.90370  0.45420  Biso   1.000  N
  C189     1.0000 0.21550  0.91750  0.52050  Biso   1.000  C
  H201     1.0000 0.15720  0.90780  0.51970  Biso   1.000  H
  C190     1.0000 0.51320  0.80180  0.58310  Biso   1.000  C
  H202     1.0000 0.52440  0.76540  0.59800  Biso   1.000  H
  N101     1.0000 0.69770  0.92270  0.61410  Biso   1.000  N
  C191     1.0000 0.25290  0.86720  0.54440  Biso   1.000  C
  H203     1.0000 0.21200  0.83530  0.55530  Biso   1.000  H
  N102     1.0000 0.32670  0.91410  0.60330  Biso   1.000  N
  C192     1.0000 0.42370  0.80170  0.57890  Biso   1.000  C
  H204     1.0000 0.39460  0.76630  0.59360  Biso   1.000  H
  C193     1.0000 0.64070  0.85720  0.44360  Biso   1.000  C
  C194     1.0000 0.43050  0.77530  0.47210  Biso   1.000  C
  C195     1.0000 0.29100  0.77040  0.47930  Biso   1.000  C
  H205     1.0000 0.26010  0.74080  0.49770  Biso   1.000  H
  H206     1.0000 0.27250  0.74390  0.43130  Biso   1.000  H
  C196     1.0000 0.73290  0.99200  0.62890  Biso   1.000  C
  C197     1.0000 0.52740  0.91150  0.65570  Biso   1.000  C
  C198     1.0000 0.37920  0.89010  0.64660  Biso   1.000  C
  H207     1.0000 0.37300  0.88710  0.68600  Biso   1.000  H
  C199     1.0000 0.26240  0.05040  0.57530  Biso   1.000  C
  H208     1.0000 0.20280  0.04320  0.56650  Biso   1.000  H
  H209     1.0000 0.29490  0.08320  0.62160  Biso   1.000  H
  C200     1.0000 0.76630  0.93730  0.53760  Biso   1.000  C
  H210     1.0000 0.82260  0.93590  0.54080  Biso   1.000  H
  C201     1.0000 0.33940  0.98300  0.61760  Biso   1.000  C
  C202     1.0000 0.66060  0.89560  0.65600  Biso   1.000  C
  H211     1.0000 0.68310  0.93220  0.70060  Biso   1.000  H
  H212     1.0000 0.67810  0.85750  0.66040  Biso   1.000  H
  C203     1.0000 0.17540  0.93040  0.40790  Biso   1.000  C
  H213     1.0000 0.12390  0.93310  0.41490  Biso   1.000  H
  H214     1.0000 0.15870  0.89770  0.36210  Biso   1.000  H
  C204     1.0000 0.25040  0.85530  0.43560  Biso   1.000  C
