data_image0
_cell_length_a       13.8147
_cell_length_b       13.8147
_cell_length_c       19.4911
_cell_angle_alpha    90
_cell_angle_beta     90
_cell_angle_gamma    90

_symmetry_space_group_name_H-M    "P 1"
_symmetry_int_tables_number       1

loop_
  _symmetry_equiv_pos_as_xyz
  'x, y, z'

loop_
  _atom_site_label
  _atom_site_occupancy
  _atom_site_fract_x
  _atom_site_fract_y
  _atom_site_fract_z
  _atom_site_thermal_displace_type
  _atom_site_B_iso_or_equiv
  _atom_site_type_symbol
  Co1      1.0000 0.17966  0.78445  0.09570  Biso   1.000  Co
  N1       1.0000 0.27520  0.76350  0.18289  Biso   1.000  N
  O1       1.0000 0.10049  0.81969  0.00813  Biso   1.000  O
  O2       1.0000 0.30720  0.79430  0.03914  Biso   1.000  O
  N2       1.0000 0.17910  0.63200  0.07313  Biso   1.000  N
  O3       1.0000 0.06110  0.77000  0.16038  Biso   1.000  O
  C1       1.0000 0.25050  0.71380  0.23680  Biso   1.000  C
  C2       1.0000 0.36750  0.79750  0.18240  Biso   1.000  C
  Co2      1.0000 0.15017  0.95687  0.98836  Biso   1.000  Co
  H1       1.0000 0.11350  0.78150  0.97520  Biso   1.000  H
  C3       1.0000 0.33640  0.85070  0.99240  Biso   1.000  C
  C4       1.0000 0.22360  0.59690  0.01810  Biso   1.000  C
  C5       1.0000 0.13100  0.56710  0.10880  Biso   1.000  C
  H2       1.0000 0.18500  0.69370  0.24050  Biso   1.000  H
  C6       1.0000 0.31310  0.68840  0.28890  Biso   1.000  C
  C7       1.0000 0.43510  0.77640  0.23230  Biso   1.000  C
  H3       1.0000 0.38670  0.83810  0.14550  Biso   1.000  H
  O4       1.0000 0.28920  0.91660  0.96476  Biso   1.000  O
  O5       1.0000 0.12350  0.95400  0.88210  Biso   1.000  O
  C8       1.0000 0.43940  0.83480  0.96740  Biso   1.000  C
  H4       1.0000 0.26220  0.64060  0.99220  Biso   1.000  H
  C9       1.0000 0.21840  0.50310  0.99520  Biso   1.000  C
  C10      1.0000 0.12350  0.47150  0.08970  Biso   1.000  C
  H5       1.0000 0.09980  0.58730  0.14980  Biso   1.000  H
  H6       1.0000 0.29030  0.65170  0.32680  Biso   1.000  H
  C11      1.0000 0.40940  0.71650  0.28600  Biso   1.000  C
  H7       1.0000 0.49850  0.80280  0.22980  Biso   1.000  H
  H8       1.0000 0.25100  0.48330  0.95470  Biso   1.000  H
  H9       1.0000 0.08810  0.42790  0.11780  Biso   1.000  H
  C12      1.0000 0.48110  0.68810  0.34050  Biso   1.000  C
  Co3      1.0000 0.82034  0.21555  0.09570  Biso   1.000  Co
  N3       1.0000 0.72480  0.23650  0.18289  Biso   1.000  N
  O6       1.0000 0.89951  0.18031  0.00813  Biso   1.000  O
  O7       1.0000 0.69280  0.20570  0.03914  Biso   1.000  O
  N4       1.0000 0.82090  0.36800  0.07313  Biso   1.000  N
  O8       1.0000 0.93890  0.23000  0.16038  Biso   1.000  O
  C13      1.0000 0.74950  0.28620  0.23680  Biso   1.000  C
  C14      1.0000 0.63250  0.20250  0.18240  Biso   1.000  C
  Co4      1.0000 0.84983  0.04313  0.98836  Biso   1.000  Co
  H10      1.0000 0.88650  0.21850  0.97520  Biso   1.000  H
  C15      1.0000 0.66360  0.14930  0.99240  Biso   1.000  C
  C16      1.0000 0.77640  0.40310  0.01810  Biso   1.000  C
  C17      1.0000 0.86900  0.43290  0.10880  Biso   1.000  C
  H11      1.0000 0.81500  0.30630  0.24050  Biso   1.000  H
  C18      1.0000 0.68690  0.31160  0.28890  Biso   1.000  C
  C19      1.0000 0.56490  0.22360  0.23230  Biso   1.000  C
  H12      1.0000 0.61330  0.16190  0.14550  Biso   1.000  H
  O9       1.0000 0.71080  0.08340  0.96476  Biso   1.000  O
  O10      1.0000 0.87650  0.04600  0.88210  Biso   1.000  O
  C20      1.0000 0.56060  0.16520  0.96740  Biso   1.000  C
  H13      1.0000 0.73780  0.35940  0.99220  Biso   1.000  H
  C21      1.0000 0.78160  0.49690  0.99520  Biso   1.000  C
  C22      1.0000 0.87650  0.52850  0.08970  Biso   1.000  C
  H14      1.0000 0.90020  0.41270  0.14980  Biso   1.000  H
  H15      1.0000 0.70970  0.34830  0.32680  Biso   1.000  H
  C23      1.0000 0.59060  0.28350  0.28600  Biso   1.000  C
  H16      1.0000 0.50150  0.19720  0.22980  Biso   1.000  H
  H17      1.0000 0.74900  0.51670  0.95470  Biso   1.000  H
  H18      1.0000 0.91190  0.57210  0.11780  Biso   1.000  H
  C24      1.0000 0.51890  0.31190  0.34050  Biso   1.000  C
  Co5      1.0000 0.78445  0.82034  0.90430  Biso   1.000  Co
  N5       1.0000 0.76350  0.72480  0.81711  Biso   1.000  N
  O11      1.0000 0.81969  0.89951  0.99187  Biso   1.000  O
  O12      1.0000 0.79430  0.69280  0.96086  Biso   1.000  O
  N6       1.0000 0.63200  0.82090  0.92687  Biso   1.000  N
  O13      1.0000 0.77000  0.93890  0.83962  Biso   1.000  O
  C25      1.0000 0.71380  0.74950  0.76320  Biso   1.000  C
  C26      1.0000 0.79750  0.63250  0.81760  Biso   1.000  C
  Co6      1.0000 0.95687  0.84983  0.01164  Biso   1.000  Co
  H19      1.0000 0.78150  0.88650  0.02480  Biso   1.000  H
  C27      1.0000 0.85070  0.66360  0.00760  Biso   1.000  C
  C28      1.0000 0.59690  0.77640  0.98190  Biso   1.000  C
  C29      1.0000 0.56710  0.86900  0.89120  Biso   1.000  C
  H20      1.0000 0.69370  0.81500  0.75950  Biso   1.000  H
  C30      1.0000 0.68840  0.68690  0.71110  Biso   1.000  C
  C31      1.0000 0.77640  0.56490  0.76770  Biso   1.000  C
  H21      1.0000 0.83810  0.61330  0.85450  Biso   1.000  H
  O14      1.0000 0.91660  0.71080  0.03524  Biso   1.000  O
  O15      1.0000 0.95400  0.87650  0.11790  Biso   1.000  O
  C32      1.0000 0.83480  0.56060  0.03260  Biso   1.000  C
  H22      1.0000 0.64060  0.73780  0.00780  Biso   1.000  H
  C33      1.0000 0.50310  0.78160  0.00480  Biso   1.000  C
  C34      1.0000 0.47150  0.87650  0.91030  Biso   1.000  C
  H23      1.0000 0.58730  0.90020  0.85020  Biso   1.000  H
  H24      1.0000 0.65170  0.70970  0.67320  Biso   1.000  H
  C35      1.0000 0.71650  0.59060  0.71400  Biso   1.000  C
  H25      1.0000 0.80280  0.50150  0.77020  Biso   1.000  H
  H26      1.0000 0.48330  0.74900  0.04530  Biso   1.000  H
  H27      1.0000 0.42790  0.91190  0.88220  Biso   1.000  H
  C36      1.0000 0.68810  0.51890  0.65950  Biso   1.000  C
  Co7      1.0000 0.21555  0.17966  0.90430  Biso   1.000  Co
  N7       1.0000 0.23650  0.27520  0.81711  Biso   1.000  N
  O16      1.0000 0.18031  0.10049  0.99187  Biso   1.000  O
  O17      1.0000 0.20570  0.30720  0.96086  Biso   1.000  O
  N8       1.0000 0.36800  0.17910  0.92687  Biso   1.000  N
  O18      1.0000 0.23000  0.06110  0.83962  Biso   1.000  O
  C37      1.0000 0.28620  0.25050  0.76320  Biso   1.000  C
  C38      1.0000 0.20250  0.36750  0.81760  Biso   1.000  C
  Co8      1.0000 0.04313  0.15017  0.01164  Biso   1.000  Co
  H28      1.0000 0.21850  0.11350  0.02480  Biso   1.000  H
  C39      1.0000 0.14930  0.33640  0.00760  Biso   1.000  C
  C40      1.0000 0.40310  0.22360  0.98190  Biso   1.000  C
  C41      1.0000 0.43290  0.13100  0.89120  Biso   1.000  C
  H29      1.0000 0.30630  0.18500  0.75950  Biso   1.000  H
  C42      1.0000 0.31160  0.31310  0.71110  Biso   1.000  C
  C43      1.0000 0.22360  0.43510  0.76770  Biso   1.000  C
  H30      1.0000 0.16190  0.38670  0.85450  Biso   1.000  H
  O19      1.0000 0.08340  0.28920  0.03524  Biso   1.000  O
  O20      1.0000 0.04600  0.12350  0.11790  Biso   1.000  O
  C44      1.0000 0.16520  0.43940  0.03260  Biso   1.000  C
  H31      1.0000 0.35940  0.26220  0.00780  Biso   1.000  H
  C45      1.0000 0.49690  0.21840  0.00480  Biso   1.000  C
  C46      1.0000 0.52850  0.12350  0.91030  Biso   1.000  C
  H32      1.0000 0.41270  0.09980  0.85020  Biso   1.000  H
  H33      1.0000 0.34830  0.29030  0.67320  Biso   1.000  H
  C47      1.0000 0.28350  0.40940  0.71400  Biso   1.000  C
  H34      1.0000 0.19720  0.49850  0.77020  Biso   1.000  H
  H35      1.0000 0.51670  0.25100  0.04530  Biso   1.000  H
  H36      1.0000 0.57210  0.08810  0.88220  Biso   1.000  H
  C48      1.0000 0.31190  0.48110  0.65950  Biso   1.000  C
  Co9      1.0000 0.32034  0.28445  0.40430  Biso   1.000  Co
  N9       1.0000 0.22480  0.26350  0.31711  Biso   1.000  N
  O21      1.0000 0.39951  0.31969  0.49187  Biso   1.000  O
  O22      1.0000 0.19280  0.29430  0.46086  Biso   1.000  O
  N10      1.0000 0.32090  0.13200  0.42687  Biso   1.000  N
  O23      1.0000 0.43890  0.27000  0.33962  Biso   1.000  O
  C49      1.0000 0.24950  0.21380  0.26320  Biso   1.000  C
  C50      1.0000 0.13250  0.29750  0.31760  Biso   1.000  C
  Co10     1.0000 0.34983  0.45687  0.51164  Biso   1.000  Co
  H37      1.0000 0.38650  0.28150  0.52480  Biso   1.000  H
  C51      1.0000 0.16360  0.35070  0.50760  Biso   1.000  C
  C52      1.0000 0.27640  0.09690  0.48190  Biso   1.000  C
  C53      1.0000 0.36900  0.06710  0.39120  Biso   1.000  C
  H38      1.0000 0.31500  0.19370  0.25950  Biso   1.000  H
  C54      1.0000 0.18690  0.18840  0.21110  Biso   1.000  C
  C55      1.0000 0.06490  0.27640  0.26770  Biso   1.000  C
  H39      1.0000 0.11330  0.33810  0.35450  Biso   1.000  H
  O24      1.0000 0.21080  0.41660  0.53524  Biso   1.000  O
  O25      1.0000 0.37650  0.45400  0.61790  Biso   1.000  O
  C56      1.0000 0.06060  0.33480  0.53260  Biso   1.000  C
  H40      1.0000 0.23780  0.14060  0.50780  Biso   1.000  H
  C57      1.0000 0.28160  0.00310  0.50480  Biso   1.000  C
  C58      1.0000 0.37650  0.97150  0.41030  Biso   1.000  C
  H41      1.0000 0.40020  0.08730  0.35020  Biso   1.000  H
  H42      1.0000 0.20970  0.15170  0.17320  Biso   1.000  H
  C59      1.0000 0.09060  0.21650  0.21400  Biso   1.000  C
  H43      1.0000 0.00150  0.30280  0.27020  Biso   1.000  H
  H44      1.0000 0.24900  0.98330  0.54530  Biso   1.000  H
  H45      1.0000 0.41190  0.92790  0.38220  Biso   1.000  H
  C60      1.0000 0.01890  0.18810  0.15950  Biso   1.000  C
  Co11     1.0000 0.67966  0.71555  0.40430  Biso   1.000  Co
  N11      1.0000 0.77520  0.73650  0.31711  Biso   1.000  N
  O26      1.0000 0.60049  0.68031  0.49187  Biso   1.000  O
  O27      1.0000 0.80720  0.70570  0.46086  Biso   1.000  O
  N12      1.0000 0.67910  0.86800  0.42687  Biso   1.000  N
  O28      1.0000 0.56110  0.73000  0.33962  Biso   1.000  O
  C61      1.0000 0.75050  0.78620  0.26320  Biso   1.000  C
  C62      1.0000 0.86750  0.70250  0.31760  Biso   1.000  C
  Co12     1.0000 0.65017  0.54313  0.51164  Biso   1.000  Co
  H46      1.0000 0.61350  0.71850  0.52480  Biso   1.000  H
  C63      1.0000 0.83640  0.64930  0.50760  Biso   1.000  C
  C64      1.0000 0.72360  0.90310  0.48190  Biso   1.000  C
  C65      1.0000 0.63100  0.93290  0.39120  Biso   1.000  C
  H47      1.0000 0.68500  0.80630  0.25950  Biso   1.000  H
  C66      1.0000 0.81310  0.81160  0.21110  Biso   1.000  C
  C67      1.0000 0.93510  0.72360  0.26770  Biso   1.000  C
  H48      1.0000 0.88670  0.66190  0.35450  Biso   1.000  H
  O29      1.0000 0.78920  0.58340  0.53524  Biso   1.000  O
  O30      1.0000 0.62350  0.54600  0.61790  Biso   1.000  O
  C68      1.0000 0.93940  0.66520  0.53260  Biso   1.000  C
  H49      1.0000 0.76220  0.85940  0.50780  Biso   1.000  H
  C69      1.0000 0.71840  0.99690  0.50480  Biso   1.000  C
  C70      1.0000 0.62350  0.02850  0.41030  Biso   1.000  C
  H50      1.0000 0.59980  0.91270  0.35020  Biso   1.000  H
  H51      1.0000 0.79030  0.84830  0.17320  Biso   1.000  H
  C71      1.0000 0.90940  0.78350  0.21400  Biso   1.000  C
  H52      1.0000 0.99850  0.69720  0.27020  Biso   1.000  H
  H53      1.0000 0.75100  0.01670  0.54530  Biso   1.000  H
  H54      1.0000 0.58810  0.07210  0.38220  Biso   1.000  H
  C72      1.0000 0.98110  0.81190  0.15950  Biso   1.000  C
  Co13     1.0000 0.71555  0.32034  0.59570  Biso   1.000  Co
  N13      1.0000 0.73650  0.22480  0.68289  Biso   1.000  N
  O31      1.0000 0.68031  0.39951  0.50813  Biso   1.000  O
  O32      1.0000 0.70570  0.19280  0.53914  Biso   1.000  O
  N14      1.0000 0.86800  0.32090  0.57313  Biso   1.000  N
  O33      1.0000 0.73000  0.43890  0.66038  Biso   1.000  O
  C73      1.0000 0.78620  0.24950  0.73680  Biso   1.000  C
  C74      1.0000 0.70250  0.13250  0.68240  Biso   1.000  C
  Co14     1.0000 0.54313  0.34983  0.48836  Biso   1.000  Co
  H55      1.0000 0.71850  0.38650  0.47520  Biso   1.000  H
  C75      1.0000 0.64930  0.16360  0.49240  Biso   1.000  C
  C76      1.0000 0.90310  0.27640  0.51810  Biso   1.000  C
  C77      1.0000 0.93290  0.36900  0.60880  Biso   1.000  C
  H56      1.0000 0.80630  0.31500  0.74050  Biso   1.000  H
  C78      1.0000 0.81160  0.18690  0.78890  Biso   1.000  C
  C79      1.0000 0.72360  0.06490  0.73230  Biso   1.000  C
  H57      1.0000 0.66190  0.11330  0.64550  Biso   1.000  H
  O34      1.0000 0.58340  0.21080  0.46476  Biso   1.000  O
  O35      1.0000 0.54600  0.37650  0.38210  Biso   1.000  O
  C80      1.0000 0.66520  0.06060  0.46740  Biso   1.000  C
  H58      1.0000 0.85940  0.23780  0.49220  Biso   1.000  H
  C81      1.0000 0.99690  0.28160  0.49520  Biso   1.000  C
  C82      1.0000 0.02850  0.37650  0.58970  Biso   1.000  C
  H59      1.0000 0.91270  0.40020  0.64980  Biso   1.000  H
  H60      1.0000 0.84830  0.20970  0.82680  Biso   1.000  H
  C83      1.0000 0.78350  0.09060  0.78600  Biso   1.000  C
  H61      1.0000 0.69720  0.00150  0.72980  Biso   1.000  H
  H62      1.0000 0.01670  0.24900  0.45470  Biso   1.000  H
  H63      1.0000 0.07210  0.41190  0.61780  Biso   1.000  H
  C84      1.0000 0.81190  0.01890  0.84050  Biso   1.000  C
  Co15     1.0000 0.28445  0.67966  0.59570  Biso   1.000  Co
  N15      1.0000 0.26350  0.77520  0.68289  Biso   1.000  N
  O36      1.0000 0.31969  0.60049  0.50813  Biso   1.000  O
  O37      1.0000 0.29430  0.80720  0.53914  Biso   1.000  O
  N16      1.0000 0.13200  0.67910  0.57313  Biso   1.000  N
  O38      1.0000 0.27000  0.56110  0.66038  Biso   1.000  O
  C85      1.0000 0.21380  0.75050  0.73680  Biso   1.000  C
  C86      1.0000 0.29750  0.86750  0.68240  Biso   1.000  C
  Co16     1.0000 0.45687  0.65017  0.48836  Biso   1.000  Co
  H64      1.0000 0.28150  0.61350  0.47520  Biso   1.000  H
  C87      1.0000 0.35070  0.83640  0.49240  Biso   1.000  C
  C88      1.0000 0.09690  0.72360  0.51810  Biso   1.000  C
  C89      1.0000 0.06710  0.63100  0.60880  Biso   1.000  C
  H65      1.0000 0.19370  0.68500  0.74050  Biso   1.000  H
  C90      1.0000 0.18840  0.81310  0.78890  Biso   1.000  C
  C91      1.0000 0.27640  0.93510  0.73230  Biso   1.000  C
  H66      1.0000 0.33810  0.88670  0.64550  Biso   1.000  H
  O39      1.0000 0.41660  0.78920  0.46476  Biso   1.000  O
  O40      1.0000 0.45400  0.62350  0.38210  Biso   1.000  O
  C92      1.0000 0.33480  0.93940  0.46740  Biso   1.000  C
  H67      1.0000 0.14060  0.76220  0.49220  Biso   1.000  H
  C93      1.0000 0.00310  0.71840  0.49520  Biso   1.000  C
  C94      1.0000 0.97150  0.62350  0.58970  Biso   1.000  C
  H68      1.0000 0.08730  0.59980  0.64980  Biso   1.000  H
  H69      1.0000 0.15170  0.79030  0.82680  Biso   1.000  H
  C95      1.0000 0.21650  0.90940  0.78600  Biso   1.000  C
  H70      1.0000 0.30280  0.99850  0.72980  Biso   1.000  H
  H71      1.0000 0.98330  0.75100  0.45470  Biso   1.000  H
  H72      1.0000 0.92790  0.58810  0.61780  Biso   1.000  H
  C96      1.0000 0.18810  0.98110  0.84050  Biso   1.000  C
  O41      1.0000 0.00000  0.00000  0.00000  Biso   1.000  O
  O42      1.0000 0.50000  0.50000  0.50000  Biso   1.000  O
