data_image0
_cell_length_a       10.4819
_cell_length_b       12.4239
_cell_length_c       19.8043
_cell_angle_alpha    75.2285
_cell_angle_beta     81.2767
_cell_angle_gamma    82.9364

_symmetry_space_group_name_H-M    "P 1"
_symmetry_int_tables_number       1

loop_
  _symmetry_equiv_pos_as_xyz
  'x, y, z'

loop_
  _atom_site_label
  _atom_site_occupancy
  _atom_site_fract_x
  _atom_site_fract_y
  _atom_site_fract_z
  _atom_site_thermal_displace_type
  _atom_site_B_iso_or_equiv
  _atom_site_type_symbol
  Zn1      1.0000 0.31217  0.86935  0.15284  Biso   1.000  Zn
  Zn2      1.0000 0.35968  0.88580  0.66933  Biso   1.000  Zn
  O1       1.0000 0.26900  0.77050  0.09905  Biso   1.000  O
  O2       1.0000 0.17650  0.85660  0.23329  Biso   1.000  O
  O3       1.0000 0.38220  0.87240  0.00537  Biso   1.000  O
  O4       1.0000 0.27070  0.68700  0.27704  Biso   1.000  O
  C1       1.0000 0.18140  0.76050  0.27753  Biso   1.000  C
  C2       1.0000 0.59030  0.90990  0.14010  Biso   1.000  C
  H1       1.0000 0.58420  0.96420  0.09830  Biso   1.000  H
  N1       1.0000 0.26800  0.03360  0.11163  Biso   1.000  N
  N2       1.0000 0.31680  0.82140  0.59439  Biso   1.000  N
  N3       1.0000 0.49440  0.85190  0.17547  Biso   1.000  N
  N4       1.0000 0.28030  0.20590  0.04870  Biso   1.000  N
  C3       1.0000 0.30740  0.79940  0.03311  Biso   1.000  C
  N5       1.0000 0.69780  0.88090  0.17178  Biso   1.000  N
  C4       1.0000 0.25260  0.73970  0.98815  Biso   1.000  C
  O5       1.0000 0.34820  0.81120  0.76905  Biso   1.000  O
  N6       1.0000 0.94790  0.52410  0.48960  Biso   1.000  N
  C5       1.0000 0.06470  0.64350  0.38510  Biso   1.000  C
  H2       1.0000 0.13470  0.58950  0.38580  Biso   1.000  H
  C6       1.0000 0.33410  0.10130  0.05900  Biso   1.000  C
  H3       1.0000 0.40880  0.07850  0.03250  Biso   1.000  H
  N7       1.0000 0.04330  0.51110  0.01500  Biso   1.000  N
  C7       1.0000 0.82360  0.92750  0.14610  Biso   1.000  C
  H4       1.0000 0.88980  0.88110  0.17240  Biso   1.000  H
  H5       1.0000 0.81890  0.00180  0.15400  Biso   1.000  H
  C8       1.0000 0.17360  0.65340  0.01960  Biso   1.000  C
  H6       1.0000 0.15790  0.63020  0.06830  Biso   1.000  H
  C9       1.0000 0.27880  0.77130  0.91531  Biso   1.000  C
  H7       1.0000 0.33470  0.82650  0.89440  Biso   1.000  H
  C10      1.0000 0.86090  0.93330  0.06850  Biso   1.000  C
  H8       1.0000 0.79090  0.97370  0.04290  Biso   1.000  H
  H9       1.0000 0.87340  0.85820  0.06130  Biso   1.000  H
  C11      1.0000 0.14110  0.63620  0.90490  Biso   1.000  C
  H10      1.0000 0.10270  0.60270  0.87700  Biso   1.000  H
  C12      1.0000 0.24580  0.76210  0.79350  Biso   1.000  C
  C13      1.0000 0.95760  0.62600  0.43580  Biso   1.000  C
  C14      1.0000 0.11840  0.60220  0.97770  Biso   1.000  C
  C15      1.0000 0.46730  0.46590  0.98190  Biso   1.000  C
  H11      1.0000 0.53210  0.43360  0.95050  Biso   1.000  H
  H12      1.0000 0.40570  0.51500  0.95360  Biso   1.000  H
  C16      1.0000 0.98480  0.99140  0.03970  Biso   1.000  C
  H13      1.0000 0.97550  0.06340  0.05140  Biso   1.000  H
  H14      1.0000 0.05660  0.94680  0.06190  Biso   1.000  H
  N8       1.0000 0.32590  0.77450  0.49460  Biso   1.000  N
  C17      1.0000 0.33380  0.30320  0.99770  Biso   1.000  C
  H15      1.0000 0.26490  0.34910  0.97350  Biso   1.000  H
  H16      1.0000 0.39750  0.27780  0.96290  Biso   1.000  H
  C18      1.0000 0.39670  0.37240  0.03410  Biso   1.000  C
  H17      1.0000 0.45790  0.32410  0.06300  Biso   1.000  H
  H18      1.0000 0.33070  0.40480  0.06490  Biso   1.000  H
  C19      1.0000 0.06590  0.74300  0.33306  Biso   1.000  C
  C20      1.0000 0.22270  0.72180  0.87360  Biso   1.000  C
  C21      1.0000 0.85320  0.80480  0.38300  Biso   1.000  C
  C22      1.0000 0.85130  0.70580  0.43490  Biso   1.000  C
  H19      1.0000 0.77960  0.69270  0.46900  Biso   1.000  H
  C23      1.0000 0.17250  0.20740  0.09730  Biso   1.000  C
  H20      1.0000 0.11550  0.26910  0.10260  Biso   1.000  H
  C24      1.0000 0.38760  0.82010  0.53320  Biso   1.000  C
  H21      1.0000 0.46880  0.84700  0.51920  Biso   1.000  H
  O6       1.0000 0.16490  0.74750  0.75870  Biso   1.000  O
  C25      1.0000 0.54130  0.78590  0.23410  Biso   1.000  C
  H22      1.0000 0.49450  0.73620  0.26960  Biso   1.000  H
  C26      1.0000 0.66630  0.80370  0.23270  Biso   1.000  C
  H23      1.0000 0.72030  0.76980  0.26680  Biso   1.000  H
  C27      1.0000 0.20370  0.77610  0.59360  Biso   1.000  C
  H24      1.0000 0.13540  0.76630  0.62990  Biso   1.000  H
  O7       1.0000 0.07480  0.46090  0.07940  Biso   1.000  O
  C28      1.0000 0.38490  0.74530  0.42760  Biso   1.000  C
  H25      1.0000 0.46630  0.77880  0.41150  Biso   1.000  H
  H26      1.0000 0.32750  0.77540  0.39190  Biso   1.000  H
  C29      1.0000 0.48940  0.56190  0.49490  Biso   1.000  C
  H27      1.0000 0.57300  0.59230  0.48430  Biso   1.000  H
  H28      1.0000 0.44770  0.57830  0.53880  Biso   1.000  H
  C30      1.0000 0.20800  0.74860  0.53270  Biso   1.000  C
  H29      1.0000 0.14330  0.71760  0.51840  Biso   1.000  H
  C31      1.0000 0.40850  0.62000  0.43760  Biso   1.000  C
  H30      1.0000 0.32540  0.58860  0.44780  Biso   1.000  H
  H31      1.0000 0.45090  0.60430  0.39360  Biso   1.000  H
  O8       1.0000 0.83330  0.49400  0.50190  Biso   1.000  O
  C32      1.0000 0.96100  0.82290  0.33240  Biso   1.000  C
  H32      1.0000 0.96270  0.88940  0.29770  Biso   1.000  H
  C33      1.0000 0.16540  0.10020  0.13640  Biso   1.000  C
  H33      1.0000 0.10190  0.07580  0.17360  Biso   1.000  H
  O9       1.0000 0.64750  0.87720  0.42710  Biso   1.000  O
  C34      1.0000 0.73990  0.89160  0.38160  Biso   1.000  C
  O10      1.0000 0.75040  0.97730  0.33001  Biso   1.000  O
  Zn3      1.0000 0.68783  0.13065  0.84716  Biso   1.000  Zn
  Zn4      1.0000 0.64032  0.11420  0.33067  Biso   1.000  Zn
  O11      1.0000 0.73100  0.22950  0.90095  Biso   1.000  O
  O12      1.0000 0.82350  0.14340  0.76671  Biso   1.000  O
  O13      1.0000 0.61780  0.12760  0.99463  Biso   1.000  O
  O14      1.0000 0.72930  0.31300  0.72296  Biso   1.000  O
  C35      1.0000 0.81860  0.23950  0.72247  Biso   1.000  C
  C36      1.0000 0.40970  0.09010  0.85990  Biso   1.000  C
  H34      1.0000 0.41580  0.03580  0.90170  Biso   1.000  H
  N9       1.0000 0.73200  0.96640  0.88837  Biso   1.000  N
  N10      1.0000 0.68320  0.17860  0.40561  Biso   1.000  N
  N11      1.0000 0.50560  0.14810  0.82453  Biso   1.000  N
  N12      1.0000 0.71970  0.79410  0.95130  Biso   1.000  N
  C37      1.0000 0.69260  0.20060  0.96689  Biso   1.000  C
  N13      1.0000 0.30220  0.11910  0.82822  Biso   1.000  N
  C38      1.0000 0.74740  0.26030  0.01185  Biso   1.000  C
  O15      1.0000 0.65180  0.18880  0.23095  Biso   1.000  O
  N14      1.0000 0.05210  0.47590  0.51040  Biso   1.000  N
  C39      1.0000 0.93530  0.35650  0.61490  Biso   1.000  C
  H35      1.0000 0.86530  0.41050  0.61420  Biso   1.000  H
  C40      1.0000 0.66590  0.89870  0.94100  Biso   1.000  C
  H36      1.0000 0.59120  0.92150  0.96750  Biso   1.000  H
  N15      1.0000 0.95670  0.48890  0.98500  Biso   1.000  N
  C41      1.0000 0.17640  0.07250  0.85390  Biso   1.000  C
  H37      1.0000 0.11020  0.11890  0.82760  Biso   1.000  H
  H38      1.0000 0.18110  0.99820  0.84600  Biso   1.000  H
  C42      1.0000 0.82640  0.34660  0.98040  Biso   1.000  C
  H39      1.0000 0.84210  0.36980  0.93170  Biso   1.000  H
  C43      1.0000 0.72120  0.22870  0.08469  Biso   1.000  C
  H40      1.0000 0.66530  0.17350  0.10560  Biso   1.000  H
  C44      1.0000 0.13910  0.06670  0.93150  Biso   1.000  C
  H41      1.0000 0.20910  0.02630  0.95710  Biso   1.000  H
  H42      1.0000 0.12660  0.14180  0.93870  Biso   1.000  H
  C45      1.0000 0.85890  0.36380  0.09510  Biso   1.000  C
  H43      1.0000 0.89730  0.39730  0.12300  Biso   1.000  H
  C46      1.0000 0.75420  0.23790  0.20650  Biso   1.000  C
  C47      1.0000 0.04240  0.37400  0.56420  Biso   1.000  C
  C48      1.0000 0.88160  0.39780  0.02230  Biso   1.000  C
  C49      1.0000 0.53270  0.53410  0.01810  Biso   1.000  C
  H44      1.0000 0.46790  0.56640  0.04950  Biso   1.000  H
  H45      1.0000 0.59430  0.48500  0.04640  Biso   1.000  H
  C50      1.0000 0.01520  0.00860  0.96030  Biso   1.000  C
  H46      1.0000 0.02450  0.93660  0.94860  Biso   1.000  H
  H47      1.0000 0.94340  0.05320  0.93810  Biso   1.000  H
  N16      1.0000 0.67410  0.22550  0.50540  Biso   1.000  N
  C51      1.0000 0.66620  0.69680  0.00230  Biso   1.000  C
  H48      1.0000 0.73510  0.65090  0.02650  Biso   1.000  H
  H49      1.0000 0.60250  0.72220  0.03710  Biso   1.000  H
  C52      1.0000 0.60330  0.62760  0.96590  Biso   1.000  C
  H50      1.0000 0.54210  0.67590  0.93700  Biso   1.000  H
  H51      1.0000 0.66930  0.59520  0.93510  Biso   1.000  H
  C53      1.0000 0.93410  0.25700  0.66694  Biso   1.000  C
  C54      1.0000 0.77730  0.27820  0.12640  Biso   1.000  C
  C55      1.0000 0.14680  0.19520  0.61700  Biso   1.000  C
  C56      1.0000 0.14870  0.29420  0.56510  Biso   1.000  C
  H52      1.0000 0.22040  0.30730  0.53100  Biso   1.000  H
  C57      1.0000 0.82750  0.79260  0.90270  Biso   1.000  C
  H53      1.0000 0.88450  0.73090  0.89740  Biso   1.000  H
  C58      1.0000 0.61240  0.17990  0.46680  Biso   1.000  C
  H54      1.0000 0.53120  0.15300  0.48080  Biso   1.000  H
  O16      1.0000 0.83510  0.25250  0.24130  Biso   1.000  O
  C59      1.0000 0.45870  0.21410  0.76590  Biso   1.000  C
  H55      1.0000 0.50550  0.26380  0.73040  Biso   1.000  H
  C60      1.0000 0.33370  0.19630  0.76730  Biso   1.000  C
  H56      1.0000 0.27970  0.23020  0.73320  Biso   1.000  H
  C61      1.0000 0.79630  0.22390  0.40640  Biso   1.000  C
  H57      1.0000 0.86460  0.23370  0.37010  Biso   1.000  H
  O17      1.0000 0.92520  0.53910  0.92060  Biso   1.000  O
  C62      1.0000 0.61510  0.25470  0.57240  Biso   1.000  C
  H58      1.0000 0.53370  0.22120  0.58850  Biso   1.000  H
  H59      1.0000 0.67250  0.22460  0.60810  Biso   1.000  H
  C63      1.0000 0.51060  0.43810  0.50510  Biso   1.000  C
  H60      1.0000 0.42700  0.40770  0.51570  Biso   1.000  H
  H61      1.0000 0.55230  0.42170  0.46120  Biso   1.000  H
  C64      1.0000 0.79200  0.25140  0.46730  Biso   1.000  C
  H62      1.0000 0.85670  0.28240  0.48160  Biso   1.000  H
  C65      1.0000 0.59150  0.38000  0.56240  Biso   1.000  C
  H63      1.0000 0.67460  0.41140  0.55220  Biso   1.000  H
  H64      1.0000 0.54910  0.39570  0.60640  Biso   1.000  H
  O18      1.0000 0.16670  0.50600  0.49810  Biso   1.000  O
  C66      1.0000 0.03900  0.17710  0.66760  Biso   1.000  C
  H65      1.0000 0.03730  0.11060  0.70230  Biso   1.000  H
  C67      1.0000 0.83460  0.89980  0.86360  Biso   1.000  C
  H66      1.0000 0.89810  0.92420  0.82640  Biso   1.000  H
  O19      1.0000 0.35250  0.12280  0.57290  Biso   1.000  O
  C68      1.0000 0.26010  0.10840  0.61840  Biso   1.000  C
  O20      1.0000 0.24960  0.02270  0.66999  Biso   1.000  O
