data_image0
_cell_length_a       28.947
_cell_length_b       8.3321
_cell_length_c       18.3283
_cell_angle_alpha    90
_cell_angle_beta     114.792
_cell_angle_gamma    90

_symmetry_space_group_name_H-M    "P 1"
_symmetry_int_tables_number       1

loop_
  _symmetry_equiv_pos_as_xyz
  'x, y, z'

loop_
  _atom_site_label
  _atom_site_occupancy
  _atom_site_fract_x
  _atom_site_fract_y
  _atom_site_fract_z
  _atom_site_thermal_displace_type
  _atom_site_B_iso_or_equiv
  _atom_site_type_symbol
  Zn1      1.0000 0.30639  0.22207  0.11587  Biso   1.000  Zn
  N1       1.0000 0.38410  0.79540  0.13470  Biso   1.000  N
  O1       1.0000 0.37560  0.30350  0.23080  Biso   1.000  O
  N2       1.0000 0.33380  0.99920  0.12000  Biso   1.000  N
  N3       1.0000 0.48460  0.52600  0.51190  Biso   1.000  N
  O2       1.0000 0.30170  0.36610  0.20620  Biso   1.000  O
  C1       1.0000 0.30980  0.63840  0.46760  Biso   1.000  C
  C2       1.0000 0.43140  0.51560  0.45620  Biso   1.000  C
  C3       1.0000 0.32790  0.51050  0.35860  Biso   1.000  C
  H1       1.0000 0.29330  0.51090  0.32500  Biso   1.000  H
  C4       1.0000 0.34530  0.57460  0.43520  Biso   1.000  C
  C5       1.0000 0.43050  0.70100  0.15130  Biso   1.000  C
  H2       1.0000 0.45530  0.76930  0.14380  Biso   1.000  H
  H3       1.0000 0.42230  0.61430  0.11260  Biso   1.000  H
  C6       1.0000 0.42480  0.06880  0.15380  Biso   1.000  C
  H4       1.0000 0.44440  0.07750  0.21080  Biso   1.000  H
  H5       1.0000 0.41190  0.17260  0.13200  Biso   1.000  H
  H6       1.0000 0.44600  0.02860  0.12930  Biso   1.000  H
  C7       1.0000 0.36250  0.44540  0.33250  Biso   1.000  C
  C8       1.0000 0.38150  0.95660  0.13720  Biso   1.000  C
  H7       1.0000 0.49330  0.46460  0.20390  Biso   1.000  H
  C9       1.0000 0.39760  0.57900  0.48400  Biso   1.000  C
  H8       1.0000 0.40960  0.62430  0.53500  Biso   1.000  H
  C10      1.0000 0.41360  0.44770  0.38030  Biso   1.000  C
  H9       1.0000 0.43640  0.40400  0.36200  Biso   1.000  H
  C11      1.0000 0.33710  0.73410  0.11660  Biso   1.000  C
  H10      1.0000 0.32810  0.62620  0.11180  Biso   1.000  H
  C12      1.0000 0.30600  0.86080  0.10700  Biso   1.000  C
  H11      1.0000 0.27130  0.85500  0.09370  Biso   1.000  H
  C13      1.0000 0.45410  0.63110  0.23490  Biso   1.000  C
  H12      1.0000 0.46330  0.71790  0.27370  Biso   1.000  H
  H13      1.0000 0.42910  0.56480  0.24290  Biso   1.000  H
  C14      1.0000 0.34600  0.36590  0.25160  Biso   1.000  C
  O3       1.0000 0.49520  0.61970  0.58580  Biso   1.000  O
  O4       1.0000 0.32652  0.65950  0.54240  Biso   1.000  O
  O5       1.0000 0.26580  0.66360  0.41890  Biso   1.000  O
  Zn2      1.0000 0.80639  0.72207  0.11587  Biso   1.000  Zn
  N4       1.0000 0.88410  0.29540  0.13470  Biso   1.000  N
  O6       1.0000 0.87560  0.80350  0.23080  Biso   1.000  O
  N5       1.0000 0.83380  0.49920  0.12000  Biso   1.000  N
  N6       1.0000 0.98460  0.02600  0.51190  Biso   1.000  N
  O7       1.0000 0.80170  0.86610  0.20620  Biso   1.000  O
  C15      1.0000 0.80980  0.13840  0.46760  Biso   1.000  C
  C16      1.0000 0.93140  0.01560  0.45620  Biso   1.000  C
  C17      1.0000 0.82790  0.01050  0.35860  Biso   1.000  C
  H14      1.0000 0.79330  0.01090  0.32500  Biso   1.000  H
  C18      1.0000 0.84530  0.07460  0.43520  Biso   1.000  C
  C19      1.0000 0.93050  0.20100  0.15130  Biso   1.000  C
  H15      1.0000 0.95530  0.26930  0.14380  Biso   1.000  H
  H16      1.0000 0.92230  0.11430  0.11260  Biso   1.000  H
  C20      1.0000 0.92480  0.56880  0.15380  Biso   1.000  C
  H17      1.0000 0.94440  0.57750  0.21080  Biso   1.000  H
  H18      1.0000 0.91190  0.67260  0.13200  Biso   1.000  H
  H19      1.0000 0.94600  0.52860  0.12930  Biso   1.000  H
  C21      1.0000 0.86250  0.94540  0.33250  Biso   1.000  C
  C22      1.0000 0.88150  0.45660  0.13720  Biso   1.000  C
  H20      1.0000 0.99330  0.96460  0.20390  Biso   1.000  H
  C23      1.0000 0.89760  0.07900  0.48400  Biso   1.000  C
  H21      1.0000 0.90960  0.12430  0.53500  Biso   1.000  H
  C24      1.0000 0.91360  0.94770  0.38030  Biso   1.000  C
  H22      1.0000 0.93640  0.90400  0.36200  Biso   1.000  H
  C25      1.0000 0.83710  0.23410  0.11660  Biso   1.000  C
  H23      1.0000 0.82810  0.12620  0.11180  Biso   1.000  H
  C26      1.0000 0.80600  0.36080  0.10700  Biso   1.000  C
  H24      1.0000 0.77130  0.35500  0.09370  Biso   1.000  H
  C27      1.0000 0.95410  0.13110  0.23490  Biso   1.000  C
  H25      1.0000 0.96330  0.21790  0.27370  Biso   1.000  H
  H26      1.0000 0.92910  0.06480  0.24290  Biso   1.000  H
  C28      1.0000 0.84600  0.86590  0.25160  Biso   1.000  C
  O8       1.0000 0.99520  0.11970  0.58580  Biso   1.000  O
  O9       1.0000 0.82652  0.15950  0.54240  Biso   1.000  O
  O10      1.0000 0.76580  0.16360  0.41890  Biso   1.000  O
  Zn3      1.0000 0.69361  0.22207  0.38413  Biso   1.000  Zn
  N7       1.0000 0.61590  0.79540  0.36530  Biso   1.000  N
  O11      1.0000 0.62440  0.30350  0.26920  Biso   1.000  O
  N8       1.0000 0.66620  0.99920  0.38000  Biso   1.000  N
  N9       1.0000 0.51540  0.52600  0.98810  Biso   1.000  N
  O12      1.0000 0.69830  0.36610  0.29380  Biso   1.000  O
  C29      1.0000 0.69020  0.63840  0.03240  Biso   1.000  C
  C30      1.0000 0.56860  0.51560  0.04380  Biso   1.000  C
  C31      1.0000 0.67210  0.51050  0.14140  Biso   1.000  C
  H27      1.0000 0.70670  0.51090  0.17500  Biso   1.000  H
  C32      1.0000 0.65470  0.57460  0.06480  Biso   1.000  C
  C33      1.0000 0.56950  0.70100  0.34870  Biso   1.000  C
  H28      1.0000 0.54470  0.76930  0.35620  Biso   1.000  H
  H29      1.0000 0.57770  0.61430  0.38740  Biso   1.000  H
  C34      1.0000 0.57520  0.06880  0.34620  Biso   1.000  C
  H30      1.0000 0.55560  0.07750  0.28920  Biso   1.000  H
  H31      1.0000 0.58810  0.17260  0.36800  Biso   1.000  H
  H32      1.0000 0.55400  0.02860  0.37070  Biso   1.000  H
  C35      1.0000 0.63750  0.44540  0.16750  Biso   1.000  C
  C36      1.0000 0.61850  0.95660  0.36280  Biso   1.000  C
  H33      1.0000 0.50670  0.46460  0.29610  Biso   1.000  H
  C37      1.0000 0.60240  0.57900  0.01600  Biso   1.000  C
  H34      1.0000 0.59040  0.62430  0.96500  Biso   1.000  H
  C38      1.0000 0.58640  0.44770  0.11970  Biso   1.000  C
  H35      1.0000 0.56360  0.40400  0.13800  Biso   1.000  H
  C39      1.0000 0.66290  0.73410  0.38340  Biso   1.000  C
  H36      1.0000 0.67190  0.62620  0.38820  Biso   1.000  H
  C40      1.0000 0.69400  0.86080  0.39300  Biso   1.000  C
  H37      1.0000 0.72870  0.85500  0.40630  Biso   1.000  H
  C41      1.0000 0.54590  0.63110  0.26510  Biso   1.000  C
  H38      1.0000 0.53670  0.71790  0.22630  Biso   1.000  H
  H39      1.0000 0.57090  0.56480  0.25710  Biso   1.000  H
  C42      1.0000 0.65400  0.36590  0.24840  Biso   1.000  C
  O13      1.0000 0.50480  0.61970  0.91420  Biso   1.000  O
  O14      1.0000 0.67348  0.65950  0.95760  Biso   1.000  O
  O15      1.0000 0.73420  0.66360  0.08110  Biso   1.000  O
  Zn4      1.0000 0.19361  0.72207  0.38413  Biso   1.000  Zn
  N10      1.0000 0.11590  0.29540  0.36530  Biso   1.000  N
  O16      1.0000 0.12440  0.80350  0.26920  Biso   1.000  O
  N11      1.0000 0.16620  0.49920  0.38000  Biso   1.000  N
  N12      1.0000 0.01540  0.02600  0.98810  Biso   1.000  N
  O17      1.0000 0.19830  0.86610  0.29380  Biso   1.000  O
  C43      1.0000 0.19020  0.13840  0.03240  Biso   1.000  C
  C44      1.0000 0.06860  0.01560  0.04380  Biso   1.000  C
  C45      1.0000 0.17210  0.01050  0.14140  Biso   1.000  C
  H40      1.0000 0.20670  0.01090  0.17500  Biso   1.000  H
  C46      1.0000 0.15470  0.07460  0.06480  Biso   1.000  C
  C47      1.0000 0.06950  0.20100  0.34870  Biso   1.000  C
  H41      1.0000 0.04470  0.26930  0.35620  Biso   1.000  H
  H42      1.0000 0.07770  0.11430  0.38740  Biso   1.000  H
  C48      1.0000 0.07520  0.56880  0.34620  Biso   1.000  C
  H43      1.0000 0.05560  0.57750  0.28920  Biso   1.000  H
  H44      1.0000 0.08810  0.67260  0.36800  Biso   1.000  H
  H45      1.0000 0.05400  0.52860  0.37070  Biso   1.000  H
  C49      1.0000 0.13750  0.94540  0.16750  Biso   1.000  C
  C50      1.0000 0.11850  0.45660  0.36280  Biso   1.000  C
  H46      1.0000 0.00670  0.96460  0.29610  Biso   1.000  H
  C51      1.0000 0.10240  0.07900  0.01600  Biso   1.000  C
  H47      1.0000 0.09040  0.12430  0.96500  Biso   1.000  H
  C52      1.0000 0.08640  0.94770  0.11970  Biso   1.000  C
  H48      1.0000 0.06360  0.90400  0.13800  Biso   1.000  H
  C53      1.0000 0.16290  0.23410  0.38340  Biso   1.000  C
  H49      1.0000 0.17190  0.12620  0.38820  Biso   1.000  H
  C54      1.0000 0.19400  0.36080  0.39300  Biso   1.000  C
  H50      1.0000 0.22870  0.35500  0.40630  Biso   1.000  H
  C55      1.0000 0.04590  0.13110  0.26510  Biso   1.000  C
  H51      1.0000 0.03670  0.21790  0.22630  Biso   1.000  H
  H52      1.0000 0.07090  0.06480  0.25710  Biso   1.000  H
  C56      1.0000 0.15400  0.86590  0.24840  Biso   1.000  C
  O18      1.0000 0.00480  0.11970  0.91420  Biso   1.000  O
  O19      1.0000 0.17348  0.15950  0.95760  Biso   1.000  O
  O20      1.0000 0.23420  0.16360  0.08110  Biso   1.000  O
  Zn5      1.0000 0.69361  0.77793  0.88413  Biso   1.000  Zn
  N13      1.0000 0.61590  0.20460  0.86530  Biso   1.000  N
  O21      1.0000 0.62440  0.69650  0.76920  Biso   1.000  O
  N14      1.0000 0.66620  0.00080  0.88000  Biso   1.000  N
  N15      1.0000 0.51540  0.47400  0.48810  Biso   1.000  N
  O22      1.0000 0.69830  0.63390  0.79380  Biso   1.000  O
  C57      1.0000 0.69020  0.36160  0.53240  Biso   1.000  C
  C58      1.0000 0.56860  0.48440  0.54380  Biso   1.000  C
  C59      1.0000 0.67210  0.48950  0.64140  Biso   1.000  C
  H53      1.0000 0.70670  0.48910  0.67500  Biso   1.000  H
  C60      1.0000 0.65470  0.42540  0.56480  Biso   1.000  C
  C61      1.0000 0.56950  0.29900  0.84870  Biso   1.000  C
  H54      1.0000 0.54470  0.23070  0.85620  Biso   1.000  H
  H55      1.0000 0.57770  0.38570  0.88740  Biso   1.000  H
  C62      1.0000 0.57520  0.93120  0.84620  Biso   1.000  C
  H56      1.0000 0.55560  0.92250  0.78920  Biso   1.000  H
  H57      1.0000 0.58810  0.82740  0.86800  Biso   1.000  H
  H58      1.0000 0.55400  0.97140  0.87070  Biso   1.000  H
  C63      1.0000 0.63750  0.55460  0.66750  Biso   1.000  C
  C64      1.0000 0.61850  0.04340  0.86280  Biso   1.000  C
  H59      1.0000 0.50670  0.53540  0.79610  Biso   1.000  H
  C65      1.0000 0.60240  0.42100  0.51600  Biso   1.000  C
  H60      1.0000 0.59040  0.37570  0.46500  Biso   1.000  H
  C66      1.0000 0.58640  0.55230  0.61970  Biso   1.000  C
  H61      1.0000 0.56360  0.59600  0.63800  Biso   1.000  H
  C67      1.0000 0.66290  0.26590  0.88340  Biso   1.000  C
  H62      1.0000 0.67190  0.37380  0.88820  Biso   1.000  H
  C68      1.0000 0.69400  0.13920  0.89300  Biso   1.000  C
  H63      1.0000 0.72870  0.14500  0.90630  Biso   1.000  H
  C69      1.0000 0.54590  0.36890  0.76510  Biso   1.000  C
  H64      1.0000 0.53670  0.28210  0.72630  Biso   1.000  H
  H65      1.0000 0.57090  0.43520  0.75710  Biso   1.000  H
  C70      1.0000 0.65400  0.63410  0.74840  Biso   1.000  C
  O23      1.0000 0.50480  0.38030  0.41420  Biso   1.000  O
  O24      1.0000 0.67348  0.34050  0.45760  Biso   1.000  O
  O25      1.0000 0.73420  0.33640  0.58110  Biso   1.000  O
  Zn6      1.0000 0.19361  0.27793  0.88413  Biso   1.000  Zn
  N16      1.0000 0.11590  0.70460  0.86530  Biso   1.000  N
  O26      1.0000 0.12440  0.19650  0.76920  Biso   1.000  O
  N17      1.0000 0.16620  0.50080  0.88000  Biso   1.000  N
  N18      1.0000 0.01540  0.97400  0.48810  Biso   1.000  N
  O27      1.0000 0.19830  0.13390  0.79380  Biso   1.000  O
  C71      1.0000 0.19020  0.86160  0.53240  Biso   1.000  C
  C72      1.0000 0.06860  0.98440  0.54380  Biso   1.000  C
  C73      1.0000 0.17210  0.98950  0.64140  Biso   1.000  C
  H66      1.0000 0.20670  0.98910  0.67500  Biso   1.000  H
  C74      1.0000 0.15470  0.92540  0.56480  Biso   1.000  C
  C75      1.0000 0.06950  0.79900  0.84870  Biso   1.000  C
  H67      1.0000 0.04470  0.73070  0.85620  Biso   1.000  H
  H68      1.0000 0.07770  0.88570  0.88740  Biso   1.000  H
  C76      1.0000 0.07520  0.43120  0.84620  Biso   1.000  C
  H69      1.0000 0.05560  0.42250  0.78920  Biso   1.000  H
  H70      1.0000 0.08810  0.32740  0.86800  Biso   1.000  H
  H71      1.0000 0.05400  0.47140  0.87070  Biso   1.000  H
  C77      1.0000 0.13750  0.05460  0.66750  Biso   1.000  C
  C78      1.0000 0.11850  0.54340  0.86280  Biso   1.000  C
  H72      1.0000 0.00670  0.03540  0.79610  Biso   1.000  H
  C79      1.0000 0.10240  0.92100  0.51600  Biso   1.000  C
  H73      1.0000 0.09040  0.87570  0.46500  Biso   1.000  H
  C80      1.0000 0.08640  0.05230  0.61970  Biso   1.000  C
  H74      1.0000 0.06360  0.09600  0.63800  Biso   1.000  H
  C81      1.0000 0.16290  0.76590  0.88340  Biso   1.000  C
  H75      1.0000 0.17190  0.87380  0.88820  Biso   1.000  H
  C82      1.0000 0.19400  0.63920  0.89300  Biso   1.000  C
  H76      1.0000 0.22870  0.64500  0.90630  Biso   1.000  H
  C83      1.0000 0.04590  0.86890  0.76510  Biso   1.000  C
  H77      1.0000 0.03670  0.78210  0.72630  Biso   1.000  H
  H78      1.0000 0.07090  0.93520  0.75710  Biso   1.000  H
  C84      1.0000 0.15400  0.13410  0.74840  Biso   1.000  C
  O28      1.0000 0.00480  0.88030  0.41420  Biso   1.000  O
  O29      1.0000 0.17348  0.84050  0.45760  Biso   1.000  O
  O30      1.0000 0.23420  0.83640  0.58110  Biso   1.000  O
  Zn7      1.0000 0.30639  0.77793  0.61587  Biso   1.000  Zn
  N19      1.0000 0.38410  0.20460  0.63470  Biso   1.000  N
  O31      1.0000 0.37560  0.69650  0.73080  Biso   1.000  O
  N20      1.0000 0.33380  0.00080  0.62000  Biso   1.000  N
  N21      1.0000 0.48460  0.47400  0.01190  Biso   1.000  N
  O32      1.0000 0.30170  0.63390  0.70620  Biso   1.000  O
  C85      1.0000 0.30980  0.36160  0.96760  Biso   1.000  C
  C86      1.0000 0.43140  0.48440  0.95620  Biso   1.000  C
  C87      1.0000 0.32790  0.48950  0.85860  Biso   1.000  C
  H79      1.0000 0.29330  0.48910  0.82500  Biso   1.000  H
  C88      1.0000 0.34530  0.42540  0.93520  Biso   1.000  C
  C89      1.0000 0.43050  0.29900  0.65130  Biso   1.000  C
  H80      1.0000 0.45530  0.23070  0.64380  Biso   1.000  H
  H81      1.0000 0.42230  0.38570  0.61260  Biso   1.000  H
  C90      1.0000 0.42480  0.93120  0.65380  Biso   1.000  C
  H82      1.0000 0.44440  0.92250  0.71080  Biso   1.000  H
  H83      1.0000 0.41190  0.82740  0.63200  Biso   1.000  H
  H84      1.0000 0.44600  0.97140  0.62930  Biso   1.000  H
  C91      1.0000 0.36250  0.55460  0.83250  Biso   1.000  C
  C92      1.0000 0.38150  0.04340  0.63720  Biso   1.000  C
  H85      1.0000 0.49330  0.53540  0.70390  Biso   1.000  H
  C93      1.0000 0.39760  0.42100  0.98400  Biso   1.000  C
  H86      1.0000 0.40960  0.37570  0.03500  Biso   1.000  H
  C94      1.0000 0.41360  0.55230  0.88030  Biso   1.000  C
  H87      1.0000 0.43640  0.59600  0.86200  Biso   1.000  H
  C95      1.0000 0.33710  0.26590  0.61660  Biso   1.000  C
  H88      1.0000 0.32810  0.37380  0.61180  Biso   1.000  H
  C96      1.0000 0.30600  0.13920  0.60700  Biso   1.000  C
  H89      1.0000 0.27130  0.14500  0.59370  Biso   1.000  H
  C97      1.0000 0.45410  0.36890  0.73490  Biso   1.000  C
  H90      1.0000 0.46330  0.28210  0.77370  Biso   1.000  H
  H91      1.0000 0.42910  0.43520  0.74290  Biso   1.000  H
  C98      1.0000 0.34600  0.63410  0.75160  Biso   1.000  C
  O33      1.0000 0.49520  0.38030  0.08580  Biso   1.000  O
  O34      1.0000 0.32652  0.34050  0.04240  Biso   1.000  O
  O35      1.0000 0.26580  0.33640  0.91890  Biso   1.000  O
  Zn8      1.0000 0.80639  0.27793  0.61587  Biso   1.000  Zn
  N22      1.0000 0.88410  0.70460  0.63470  Biso   1.000  N
  O36      1.0000 0.87560  0.19650  0.73080  Biso   1.000  O
  N23      1.0000 0.83380  0.50080  0.62000  Biso   1.000  N
  N24      1.0000 0.98460  0.97400  0.01190  Biso   1.000  N
  O37      1.0000 0.80170  0.13390  0.70620  Biso   1.000  O
  C99      1.0000 0.80980  0.86160  0.96760  Biso   1.000  C
  C100     1.0000 0.93140  0.98440  0.95620  Biso   1.000  C
  C101     1.0000 0.82790  0.98950  0.85860  Biso   1.000  C
  H92      1.0000 0.79330  0.98910  0.82500  Biso   1.000  H
  C102     1.0000 0.84530  0.92540  0.93520  Biso   1.000  C
  C103     1.0000 0.93050  0.79900  0.65130  Biso   1.000  C
  H93      1.0000 0.95530  0.73070  0.64380  Biso   1.000  H
  H94      1.0000 0.92230  0.88570  0.61260  Biso   1.000  H
  C104     1.0000 0.92480  0.43120  0.65380  Biso   1.000  C
  H95      1.0000 0.94440  0.42250  0.71080  Biso   1.000  H
  H96      1.0000 0.91190  0.32740  0.63200  Biso   1.000  H
  H97      1.0000 0.94600  0.47140  0.62930  Biso   1.000  H
  C105     1.0000 0.86250  0.05460  0.83250  Biso   1.000  C
  C106     1.0000 0.88150  0.54340  0.63720  Biso   1.000  C
  H98      1.0000 0.99330  0.03540  0.70390  Biso   1.000  H
  C107     1.0000 0.89760  0.92100  0.98400  Biso   1.000  C
  H99      1.0000 0.90960  0.87570  0.03500  Biso   1.000  H
  C108     1.0000 0.91360  0.05230  0.88030  Biso   1.000  C
  H100     1.0000 0.93640  0.09600  0.86200  Biso   1.000  H
  C109     1.0000 0.83710  0.76590  0.61660  Biso   1.000  C
  H101     1.0000 0.82810  0.87380  0.61180  Biso   1.000  H
  C110     1.0000 0.80600  0.63920  0.60700  Biso   1.000  C
  H102     1.0000 0.77130  0.64500  0.59370  Biso   1.000  H
  C111     1.0000 0.95410  0.86890  0.73490  Biso   1.000  C
  H103     1.0000 0.96330  0.78210  0.77370  Biso   1.000  H
  H104     1.0000 0.92910  0.93520  0.74290  Biso   1.000  H
  C112     1.0000 0.84600  0.13410  0.75160  Biso   1.000  C
  O38      1.0000 0.99520  0.88030  0.08580  Biso   1.000  O
  O39      1.0000 0.82652  0.84050  0.04240  Biso   1.000  O
  O40      1.0000 0.76580  0.83640  0.91890  Biso   1.000  O
  C113     1.0000 0.50000  0.53320  0.25000  Biso   1.000  C
  C114     1.0000 0.00000  0.03320  0.25000  Biso   1.000  C
  C115     1.0000 0.50000  0.46680  0.75000  Biso   1.000  C
  C116     1.0000 0.00000  0.96680  0.75000  Biso   1.000  C
