data_image0
_cell_length_a       10.373
_cell_length_b       15.088
_cell_length_c       24.126
_cell_angle_alpha    90
_cell_angle_beta     90
_cell_angle_gamma    90

_symmetry_space_group_name_H-M    "P 1"
_symmetry_int_tables_number       1

loop_
  _symmetry_equiv_pos_as_xyz
  'x, y, z'

loop_
  _atom_site_label
  _atom_site_occupancy
  _atom_site_fract_x
  _atom_site_fract_y
  _atom_site_fract_z
  _atom_site_thermal_displace_type
  _atom_site_B_iso_or_equiv
  _atom_site_type_symbol
  Zn1      1.0000 0.59298  0.50024  0.95972  Biso   1.000  Zn
  Zn2      1.0000 0.81513  0.50009  0.04574  Biso   1.000  Zn
  O1       1.0000 0.35930  0.09540  0.01120  Biso   1.000  O
  C1       1.0000 0.54770  0.29660  0.15090  Biso   1.000  C
  H1       1.0000 0.60460  0.33130  0.17130  Biso   1.000  H
  C2       1.0000 0.53670  0.30510  0.09350  Biso   1.000  C
  O2       1.0000 0.20770  0.09230  0.07730  Biso   1.000  O
  C3       1.0000 0.47280  0.19080  0.40880  Biso   1.000  C
  C4       1.0000 0.38950  0.18490  0.08930  Biso   1.000  C
  C5       1.0000 0.46930  0.23340  0.17610  Biso   1.000  C
  C6       1.0000 0.62710  0.31340  0.40790  Biso   1.000  C
  O3       1.0000 0.71360  0.40420  0.08690  Biso   1.000  O
  C7       1.0000 0.54590  0.25240  0.32190  Biso   1.000  C
  O4       1.0000 0.56150  0.40690  0.02060  Biso   1.000  O
  C8       1.0000 0.46150  0.24810  0.06240  Biso   1.000  C
  H2       1.0000 0.45980  0.25240  0.02400  Biso   1.000  H
  N1       1.0000 0.17170  0.52720  0.12420  Biso   1.000  N
  C9       1.0000 0.31390  0.11820  0.05580  Biso   1.000  C
  C10      1.0000 0.38850  0.17880  0.14610  Biso   1.000  C
  H3       1.0000 0.33450  0.13870  0.16390  Biso   1.000  H
  C11      1.0000 0.55090  0.25200  0.43720  Biso   1.000  C
  H4       1.0000 0.55220  0.25190  0.47570  Biso   1.000  H
  N2       1.0000 0.46250  0.22520  0.23820  Biso   1.000  N
  N3       1.0000 0.54890  0.25800  0.26510  Biso   1.000  N
  C12      1.0000 0.62780  0.31130  0.35010  Biso   1.000  C
  H5       1.0000 0.68220  0.34870  0.33030  Biso   1.000  H
  C13      1.0000 0.61080  0.37840  0.06500  Biso   1.000  C
  C14      1.0000 0.46690  0.19260  0.35130  Biso   1.000  C
  H6       1.0000 0.41150  0.15470  0.33240  Biso   1.000  H
  C15      1.0000 0.11080  0.60530  0.13900  Biso   1.000  C
  H7       1.0000 0.14660  0.65130  0.15960  Biso   1.000  H
  N4       1.0000 0.97510  0.52220  0.09090  Biso   1.000  N
  C16      1.0000 0.30480  0.50770  0.13730  Biso   1.000  C
  H8       1.0000 0.35250  0.56300  0.13640  Biso   1.000  H
  H9       1.0000 0.33900  0.47050  0.10800  Biso   1.000  H
  C17      1.0000 0.08390  0.47830  0.09550  Biso   1.000  C
  C18      1.0000 0.31700  0.50850  0.24450  Biso   1.000  C
  H10      1.0000 0.22670  0.52210  0.25040  Biso   1.000  H
  H11      1.0000 0.36410  0.56400  0.24410  Biso   1.000  H
  C19      1.0000 0.33180  0.46440  0.19000  Biso   1.000  C
  H12      1.0000 0.42040  0.44400  0.18810  Biso   1.000  H
  H13      1.0000 0.27820  0.41170  0.19120  Biso   1.000  H
  O5       1.0000 0.67970  0.26250  0.24470  Biso   1.000  O
  C20      1.0000 0.18370  0.39240  0.01610  Biso   1.000  C
  H14      1.0000 0.13860  0.43090  0.99110  Biso   1.000  H
  H15      1.0000 0.18900  0.33410  0.00030  Biso   1.000  H
  H16      1.0000 0.26900  0.41490  0.02230  Biso   1.000  H
  C21      1.0000 0.70300  0.38100  0.43960  Biso   1.000  C
  O6       1.0000 0.80270  0.40950  0.41690  Biso   1.000  O
  O7       1.0000 0.65440  0.40590  0.48520  Biso   1.000  O
  C22      1.0000 0.36480  0.45280  0.29200  Biso   1.000  C
  H17      1.0000 0.30930  0.40120  0.29410  Biso   1.000  H
  H18      1.0000 0.44990  0.43160  0.28190  Biso   1.000  H
  C23      1.0000 0.11100  0.38800  0.07140  Biso   1.000  C
  H19      1.0000 0.02990  0.35720  0.06580  Biso   1.000  H
  H20      1.0000 0.16150  0.35400  0.09770  Biso   1.000  H
  C24      1.0000 0.99330  0.60270  0.11890  Biso   1.000  C
  H21      1.0000 0.93190  0.64720  0.12260  Biso   1.000  H
  C25      1.0000 0.37470  0.49020  0.34930  Biso   1.000  C
  H22      1.0000 0.40920  0.44480  0.37360  Biso   1.000  H
  H23      1.0000 0.43590  0.53880  0.34880  Biso   1.000  H
  N5       1.0000 0.25330  0.52250  0.37290  Biso   1.000  N
  C26      1.0000 0.20960  0.60860  0.37140  Biso   1.000  C
  H24      1.0000 0.25100  0.65670  0.35510  Biso   1.000  H
  C27      1.0000 0.16410  0.47380  0.40200  Biso   1.000  C
  C28      1.0000 0.18280  0.37820  0.41720  Biso   1.000  C
  H25      1.0000 0.22650  0.34820  0.38700  Biso   1.000  H
  H26      1.0000 0.09900  0.35060  0.42190  Biso   1.000  H
  N6       1.0000 0.06840  0.52510  0.41720  Biso   1.000  N
  C29      1.0000 0.09690  0.60980  0.39760  Biso   1.000  C
  H27      1.0000 0.04510  0.65960  0.40230  Biso   1.000  H
  C30      1.0000 0.26050  0.36590  0.47000  Biso   1.000  C
  H28      1.0000 0.33510  0.40350  0.46900  Biso   1.000  H
  H29      1.0000 0.28720  0.30520  0.47300  Biso   1.000  H
  H30      1.0000 0.20820  0.38120  0.50140  Biso   1.000  H
  O8       1.0000 0.36810  0.16780  0.25130  Biso   1.000  O
  C31      1.0000 0.40220  0.12110  0.44070  Biso   1.000  C
  O9       1.0000 0.44980  0.09830  0.48510  Biso   1.000  O
  O10      1.0000 0.30280  0.09030  0.41730  Biso   1.000  O
  Zn3      1.0000 0.90702  0.49976  0.45972  Biso   1.000  Zn
  Zn4      1.0000 0.68487  0.49991  0.54574  Biso   1.000  Zn
  O11      1.0000 0.14070  0.90460  0.51120  Biso   1.000  O
  C32      1.0000 0.95230  0.70340  0.65090  Biso   1.000  C
  H31      1.0000 0.89540  0.66870  0.67130  Biso   1.000  H
  C33      1.0000 0.96330  0.69490  0.59350  Biso   1.000  C
  O12      1.0000 0.29230  0.90770  0.57730  Biso   1.000  O
  C34      1.0000 0.02720  0.80920  0.90880  Biso   1.000  C
  C35      1.0000 0.11050  0.81510  0.58930  Biso   1.000  C
  C36      1.0000 0.03070  0.76660  0.67610  Biso   1.000  C
  C37      1.0000 0.87290  0.68660  0.90790  Biso   1.000  C
  O13      1.0000 0.78640  0.59580  0.58690  Biso   1.000  O
  C38      1.0000 0.95410  0.74760  0.82190  Biso   1.000  C
  O14      1.0000 0.93850  0.59310  0.52060  Biso   1.000  O
  C39      1.0000 0.03850  0.75190  0.56240  Biso   1.000  C
  H32      1.0000 0.04020  0.74760  0.52400  Biso   1.000  H
  N7       1.0000 0.32830  0.47280  0.62420  Biso   1.000  N
  C40      1.0000 0.18610  0.88180  0.55580  Biso   1.000  C
  C41      1.0000 0.11150  0.82120  0.64610  Biso   1.000  C
  H33      1.0000 0.16550  0.86130  0.66390  Biso   1.000  H
  C42      1.0000 0.94910  0.74800  0.93720  Biso   1.000  C
  H34      1.0000 0.94780  0.74810  0.97570  Biso   1.000  H
  N8       1.0000 0.03750  0.77480  0.73820  Biso   1.000  N
  N9       1.0000 0.95110  0.74200  0.76510  Biso   1.000  N
  C43      1.0000 0.87220  0.68870  0.85010  Biso   1.000  C
  H35      1.0000 0.81780  0.65130  0.83030  Biso   1.000  H
  C44      1.0000 0.88920  0.62160  0.56500  Biso   1.000  C
  C45      1.0000 0.03310  0.80740  0.85130  Biso   1.000  C
  H36      1.0000 0.08850  0.84530  0.83240  Biso   1.000  H
  C46      1.0000 0.38920  0.39470  0.63900  Biso   1.000  C
  H37      1.0000 0.35340  0.34870  0.65960  Biso   1.000  H
  N10      1.0000 0.52490  0.47780  0.59090  Biso   1.000  N
  C47      1.0000 0.19520  0.49230  0.63730  Biso   1.000  C
  H38      1.0000 0.14750  0.43700  0.63640  Biso   1.000  H
  H39      1.0000 0.16100  0.52950  0.60800  Biso   1.000  H
  C48      1.0000 0.41610  0.52170  0.59550  Biso   1.000  C
  C49      1.0000 0.18300  0.49150  0.74450  Biso   1.000  C
  H40      1.0000 0.27330  0.47790  0.75040  Biso   1.000  H
  H41      1.0000 0.13590  0.43600  0.74410  Biso   1.000  H
  C50      1.0000 0.16820  0.53560  0.69000  Biso   1.000  C
  H42      1.0000 0.07960  0.55600  0.68810  Biso   1.000  H
  H43      1.0000 0.22180  0.58830  0.69120  Biso   1.000  H
  O15      1.0000 0.82030  0.73750  0.74470  Biso   1.000  O
  C51      1.0000 0.31630  0.60760  0.51610  Biso   1.000  C
  H44      1.0000 0.36140  0.56910  0.49110  Biso   1.000  H
  H45      1.0000 0.31100  0.66590  0.50030  Biso   1.000  H
  H46      1.0000 0.23100  0.58510  0.52230  Biso   1.000  H
  C52      1.0000 0.79700  0.61900  0.93960  Biso   1.000  C
  O16      1.0000 0.69730  0.59050  0.91690  Biso   1.000  O
  O17      1.0000 0.84560  0.59410  0.98520  Biso   1.000  O
  C53      1.0000 0.13520  0.54720  0.79200  Biso   1.000  C
  H47      1.0000 0.19070  0.59880  0.79410  Biso   1.000  H
  H48      1.0000 0.05010  0.56840  0.78190  Biso   1.000  H
  C54      1.0000 0.38900  0.61200  0.57140  Biso   1.000  C
  H49      1.0000 0.47010  0.64280  0.56580  Biso   1.000  H
  H50      1.0000 0.33850  0.64600  0.59770  Biso   1.000  H
  C55      1.0000 0.50670  0.39730  0.61890  Biso   1.000  C
  H51      1.0000 0.56810  0.35280  0.62260  Biso   1.000  H
  C56      1.0000 0.12530  0.50980  0.84930  Biso   1.000  C
  H52      1.0000 0.09080  0.55520  0.87360  Biso   1.000  H
  H53      1.0000 0.06410  0.46120  0.84880  Biso   1.000  H
  N11      1.0000 0.24670  0.47750  0.87290  Biso   1.000  N
  C57      1.0000 0.29040  0.39140  0.87140  Biso   1.000  C
  H54      1.0000 0.24900  0.34330  0.85510  Biso   1.000  H
  C58      1.0000 0.33590  0.52620  0.90200  Biso   1.000  C
  C59      1.0000 0.31720  0.62180  0.91720  Biso   1.000  C
  H55      1.0000 0.27350  0.65180  0.88700  Biso   1.000  H
  H56      1.0000 0.40100  0.64940  0.92190  Biso   1.000  H
  N12      1.0000 0.43160  0.47490  0.91720  Biso   1.000  N
  C60      1.0000 0.40310  0.39020  0.89760  Biso   1.000  C
  H57      1.0000 0.45490  0.34040  0.90230  Biso   1.000  H
  C61      1.0000 0.23950  0.63410  0.97000  Biso   1.000  C
  H58      1.0000 0.16490  0.59650  0.96900  Biso   1.000  H
  H59      1.0000 0.21280  0.69480  0.97300  Biso   1.000  H
  H60      1.0000 0.29180  0.61880  0.00140  Biso   1.000  H
  O18      1.0000 0.13190  0.83220  0.75130  Biso   1.000  O
  C62      1.0000 0.09780  0.87890  0.94070  Biso   1.000  C
  O19      1.0000 0.05020  0.90170  0.98510  Biso   1.000  O
  O20      1.0000 0.19720  0.90970  0.91730  Biso   1.000  O
  Zn5      1.0000 0.40702  0.00024  0.54028  Biso   1.000  Zn
  Zn6      1.0000 0.18487  0.00009  0.45426  Biso   1.000  Zn
  O21      1.0000 0.64070  0.59540  0.48880  Biso   1.000  O
  C63      1.0000 0.45230  0.79660  0.34910  Biso   1.000  C
  H61      1.0000 0.39540  0.83130  0.32870  Biso   1.000  H
  C64      1.0000 0.46330  0.80510  0.40650  Biso   1.000  C
  O22      1.0000 0.79230  0.59230  0.42270  Biso   1.000  O
  C65      1.0000 0.52720  0.69080  0.09120  Biso   1.000  C
  C66      1.0000 0.61050  0.68490  0.41070  Biso   1.000  C
  C67      1.0000 0.53070  0.73340  0.32390  Biso   1.000  C
  C68      1.0000 0.37290  0.81340  0.09210  Biso   1.000  C
  O23      1.0000 0.28640  0.90420  0.41310  Biso   1.000  O
  C69      1.0000 0.45410  0.75240  0.17810  Biso   1.000  C
  O24      1.0000 0.43850  0.90690  0.47940  Biso   1.000  O
  C70      1.0000 0.53850  0.74810  0.43760  Biso   1.000  C
  H62      1.0000 0.54020  0.75240  0.47600  Biso   1.000  H
  N13      1.0000 0.82830  0.02720  0.37580  Biso   1.000  N
  C71      1.0000 0.68610  0.61820  0.44420  Biso   1.000  C
  C72      1.0000 0.61150  0.67880  0.35390  Biso   1.000  C
  H63      1.0000 0.66550  0.63870  0.33610  Biso   1.000  H
  C73      1.0000 0.44910  0.75200  0.06280  Biso   1.000  C
  H64      1.0000 0.44780  0.75190  0.02430  Biso   1.000  H
  N14      1.0000 0.53750  0.72520  0.26180  Biso   1.000  N
  N15      1.0000 0.45110  0.75800  0.23490  Biso   1.000  N
  C74      1.0000 0.37220  0.81130  0.14990  Biso   1.000  C
  H65      1.0000 0.31780  0.84870  0.16970  Biso   1.000  H
  C75      1.0000 0.38920  0.87840  0.43500  Biso   1.000  C
  C76      1.0000 0.53310  0.69260  0.14870  Biso   1.000  C
  H66      1.0000 0.58850  0.65470  0.16760  Biso   1.000  H
  C77      1.0000 0.88920  0.10530  0.36100  Biso   1.000  C
  H67      1.0000 0.85340  0.15130  0.34040  Biso   1.000  H
  N16      1.0000 0.02490  0.02220  0.40910  Biso   1.000  N
  C78      1.0000 0.69520  0.00770  0.36270  Biso   1.000  C
  H68      1.0000 0.64750  0.06300  0.36360  Biso   1.000  H
  H69      1.0000 0.66100  0.97050  0.39200  Biso   1.000  H
  C79      1.0000 0.91610  0.97830  0.40450  Biso   1.000  C
  C80      1.0000 0.68300  0.00850  0.25550  Biso   1.000  C
  H70      1.0000 0.77330  0.02210  0.24960  Biso   1.000  H
  H71      1.0000 0.63590  0.06400  0.25590  Biso   1.000  H
  C81      1.0000 0.66820  0.96440  0.31000  Biso   1.000  C
  H72      1.0000 0.57960  0.94400  0.31190  Biso   1.000  H
  H73      1.0000 0.72180  0.91170  0.30880  Biso   1.000  H
  O25      1.0000 0.32030  0.76250  0.25530  Biso   1.000  O
  C82      1.0000 0.81630  0.89240  0.48390  Biso   1.000  C
  H74      1.0000 0.86140  0.93090  0.50890  Biso   1.000  H
  H75      1.0000 0.81100  0.83410  0.49970  Biso   1.000  H
  H76      1.0000 0.73100  0.91490  0.47770  Biso   1.000  H
  C83      1.0000 0.29700  0.88100  0.06040  Biso   1.000  C
  O26      1.0000 0.19730  0.90950  0.08310  Biso   1.000  O
  O27      1.0000 0.34560  0.90590  0.01480  Biso   1.000  O
  C84      1.0000 0.63520  0.95280  0.20800  Biso   1.000  C
  H77      1.0000 0.69070  0.90120  0.20590  Biso   1.000  H
  H78      1.0000 0.55010  0.93160  0.21810  Biso   1.000  H
  C85      1.0000 0.88900  0.88800  0.42860  Biso   1.000  C
  H79      1.0000 0.97010  0.85720  0.43420  Biso   1.000  H
  H80      1.0000 0.83850  0.85400  0.40230  Biso   1.000  H
  C86      1.0000 0.00670  0.10270  0.38110  Biso   1.000  C
  H81      1.0000 0.06810  0.14720  0.37740  Biso   1.000  H
  C87      1.0000 0.62530  0.99020  0.15070  Biso   1.000  C
  H82      1.0000 0.59080  0.94480  0.12640  Biso   1.000  H
  H83      1.0000 0.56410  0.03880  0.15120  Biso   1.000  H
  N17      1.0000 0.74670  0.02250  0.12710  Biso   1.000  N
  C88      1.0000 0.79040  0.10860  0.12860  Biso   1.000  C
  H84      1.0000 0.74900  0.15670  0.14490  Biso   1.000  H
  C89      1.0000 0.83590  0.97380  0.09800  Biso   1.000  C
  C90      1.0000 0.81720  0.87820  0.08280  Biso   1.000  C
  H85      1.0000 0.77350  0.84820  0.11300  Biso   1.000  H
  H86      1.0000 0.90100  0.85060  0.07810  Biso   1.000  H
  N18      1.0000 0.93160  0.02510  0.08280  Biso   1.000  N
  C91      1.0000 0.90310  0.10980  0.10240  Biso   1.000  C
  H87      1.0000 0.95490  0.15960  0.09770  Biso   1.000  H
  C92      1.0000 0.73950  0.86590  0.03000  Biso   1.000  C
  H88      1.0000 0.66490  0.90350  0.03100  Biso   1.000  H
  H89      1.0000 0.71280  0.80520  0.02700  Biso   1.000  H
  H90      1.0000 0.79180  0.88120  0.99860  Biso   1.000  H
  O28      1.0000 0.63190  0.66780  0.24870  Biso   1.000  O
  C93      1.0000 0.59780  0.62110  0.05930  Biso   1.000  C
  O29      1.0000 0.55020  0.59830  0.01490  Biso   1.000  O
  O30      1.0000 0.69720  0.59030  0.08270  Biso   1.000  O
  Zn7      1.0000 0.09298  0.99976  0.04028  Biso   1.000  Zn
  Zn8      1.0000 0.31513  0.99991  0.95426  Biso   1.000  Zn
  O31      1.0000 0.85930  0.40460  0.98880  Biso   1.000  O
  C94      1.0000 0.04770  0.20340  0.84910  Biso   1.000  C
  H91      1.0000 0.10460  0.16870  0.82870  Biso   1.000  H
  C95      1.0000 0.03670  0.19490  0.90650  Biso   1.000  C
  O32      1.0000 0.70770  0.40770  0.92270  Biso   1.000  O
  C96      1.0000 0.97280  0.30920  0.59120  Biso   1.000  C
  C97      1.0000 0.88950  0.31510  0.91070  Biso   1.000  C
  C98      1.0000 0.96930  0.26660  0.82390  Biso   1.000  C
  C99      1.0000 0.12710  0.18660  0.59210  Biso   1.000  C
  O33      1.0000 0.21360  0.09580  0.91310  Biso   1.000  O
  C100     1.0000 0.04590  0.24760  0.67810  Biso   1.000  C
  O34      1.0000 0.06150  0.09310  0.97940  Biso   1.000  O
  C101     1.0000 0.96150  0.25190  0.93760  Biso   1.000  C
  H92      1.0000 0.95980  0.24760  0.97600  Biso   1.000  H
  N19      1.0000 0.67170  0.97280  0.87580  Biso   1.000  N
  C102     1.0000 0.81390  0.38180  0.94420  Biso   1.000  C
  C103     1.0000 0.88850  0.32120  0.85390  Biso   1.000  C
  H93      1.0000 0.83450  0.36130  0.83610  Biso   1.000  H
  C104     1.0000 0.05090  0.24800  0.56280  Biso   1.000  C
  H94      1.0000 0.05220  0.24810  0.52430  Biso   1.000  H
  N20      1.0000 0.96250  0.27480  0.76180  Biso   1.000  N
  N21      1.0000 0.04890  0.24200  0.73490  Biso   1.000  N
  C105     1.0000 0.12780  0.18870  0.64990  Biso   1.000  C
  H95      1.0000 0.18220  0.15130  0.66970  Biso   1.000  H
  C106     1.0000 0.11080  0.12160  0.93500  Biso   1.000  C
  C107     1.0000 0.96690  0.30740  0.64870  Biso   1.000  C
  H96      1.0000 0.91150  0.34530  0.66760  Biso   1.000  H
  C108     1.0000 0.61080  0.89470  0.86100  Biso   1.000  C
  H97      1.0000 0.64660  0.84870  0.84040  Biso   1.000  H
  N22      1.0000 0.47510  0.97780  0.90910  Biso   1.000  N
  C109     1.0000 0.80480  0.99230  0.86270  Biso   1.000  C
  H98      1.0000 0.85250  0.93700  0.86360  Biso   1.000  H
  H99      1.0000 0.83900  0.02950  0.89200  Biso   1.000  H
  C110     1.0000 0.58390  0.02170  0.90450  Biso   1.000  C
  C111     1.0000 0.81700  0.99150  0.75550  Biso   1.000  C
  H100     1.0000 0.72670  0.97790  0.74960  Biso   1.000  H
  H101     1.0000 0.86410  0.93600  0.75590  Biso   1.000  H
  C112     1.0000 0.83180  0.03560  0.81000  Biso   1.000  C
  H102     1.0000 0.92040  0.05600  0.81190  Biso   1.000  H
  H103     1.0000 0.77820  0.08830  0.80880  Biso   1.000  H
  O35      1.0000 0.17970  0.23750  0.75530  Biso   1.000  O
  C113     1.0000 0.68370  0.10760  0.98390  Biso   1.000  C
  H104     1.0000 0.63860  0.06910  0.00890  Biso   1.000  H
  H105     1.0000 0.68900  0.16590  0.99970  Biso   1.000  H
  H106     1.0000 0.76900  0.08510  0.97770  Biso   1.000  H
  C114     1.0000 0.20300  0.11900  0.56040  Biso   1.000  C
  O36      1.0000 0.30270  0.09050  0.58310  Biso   1.000  O
  O37      1.0000 0.15440  0.09410  0.51480  Biso   1.000  O
  C115     1.0000 0.86480  0.04720  0.70800  Biso   1.000  C
  H107     1.0000 0.80930  0.09880  0.70590  Biso   1.000  H
  H108     1.0000 0.94990  0.06840  0.71810  Biso   1.000  H
  C116     1.0000 0.61100  0.11200  0.92860  Biso   1.000  C
  H109     1.0000 0.52990  0.14280  0.93420  Biso   1.000  H
  H110     1.0000 0.66150  0.14600  0.90230  Biso   1.000  H
  C117     1.0000 0.49330  0.89730  0.88110  Biso   1.000  C
  H111     1.0000 0.43190  0.85280  0.87740  Biso   1.000  H
  C118     1.0000 0.87470  0.00980  0.65070  Biso   1.000  C
  H112     1.0000 0.90920  0.05520  0.62640  Biso   1.000  H
  H113     1.0000 0.93590  0.96120  0.65120  Biso   1.000  H
  N23      1.0000 0.75330  0.97750  0.62710  Biso   1.000  N
  C119     1.0000 0.70960  0.89140  0.62860  Biso   1.000  C
  H114     1.0000 0.75100  0.84330  0.64490  Biso   1.000  H
  C120     1.0000 0.66410  0.02620  0.59800  Biso   1.000  C
  C121     1.0000 0.68280  0.12180  0.58280  Biso   1.000  C
  H115     1.0000 0.72650  0.15180  0.61300  Biso   1.000  H
  H116     1.0000 0.59900  0.14940  0.57810  Biso   1.000  H
  N24      1.0000 0.56840  0.97490  0.58280  Biso   1.000  N
  C122     1.0000 0.59690  0.89020  0.60240  Biso   1.000  C
  H117     1.0000 0.54510  0.84040  0.59770  Biso   1.000  H
  C123     1.0000 0.76050  0.13410  0.53000  Biso   1.000  C
  H118     1.0000 0.83510  0.09650  0.53100  Biso   1.000  H
  H119     1.0000 0.78720  0.19480  0.52700  Biso   1.000  H
  H120     1.0000 0.70820  0.11880  0.49860  Biso   1.000  H
  O38      1.0000 0.86810  0.33220  0.74870  Biso   1.000  O
  C124     1.0000 0.90220  0.37890  0.55930  Biso   1.000  C
  O39      1.0000 0.94980  0.40170  0.51490  Biso   1.000  O
  O40      1.0000 0.80280  0.40970  0.58270  Biso   1.000  O
