data_image0
_cell_length_a       27.5185
_cell_length_b       10.4247
_cell_length_c       14.8656
_cell_angle_alpha    90
_cell_angle_beta     117.541
_cell_angle_gamma    90

_symmetry_space_group_name_H-M    "P 1"
_symmetry_int_tables_number       1

loop_
  _symmetry_equiv_pos_as_xyz
  'x, y, z'

loop_
  _atom_site_label
  _atom_site_occupancy
  _atom_site_fract_x
  _atom_site_fract_y
  _atom_site_fract_z
  _atom_site_thermal_displace_type
  _atom_site_B_iso_or_equiv
  _atom_site_type_symbol
  Zn1      1.0000 0.29130  0.36024  0.03377  Biso   1.000  Zn
  O1       1.0000 0.16737  0.25020  0.02130  Biso   1.000  O
  C1       1.0000 0.15585  0.43410  0.10480  Biso   1.000  C
  O2       1.0000 0.23291  0.39990  0.07940  Biso   1.000  O
  C2       1.0000 0.37680  0.84860  0.14750  Biso   1.000  C
  H1       1.0000 0.37180  0.84380  0.20780  Biso   1.000  H
  H2       1.0000 0.35630  0.92230  0.10860  Biso   1.000  H
  N1       1.0000 0.35260  0.73250  0.08640  Biso   1.000  N
  N2       1.0000 0.01258  0.53500  0.03750  Biso   1.000  N
  C3       1.0000 0.09873  0.43650  0.05310  Biso   1.000  C
  H3       1.0000 0.07980  0.38290  0.99770  Biso   1.000  H
  N3       1.0000 0.32220  0.53590  0.04420  Biso   1.000  N
  C4       1.0000 0.07029  0.52030  0.08530  Biso   1.000  C
  C5       1.0000 0.18804  0.35300  0.06510  Biso   1.000  C
  C6       1.0000 0.32720  0.59100  0.96280  Biso   1.000  C
  H4       1.0000 0.31860  0.55310  0.90060  Biso   1.000  H
  C7       1.0000 0.34740  0.71170  0.99390  Biso   1.000  C
  H5       1.0000 0.35620  0.77020  0.95640  Biso   1.000  H
  C8       1.0000 0.33500  0.60400  0.21350  Biso   1.000  C
  H6       1.0000 0.29810  0.58520  0.20000  Biso   1.000  H
  H7       1.0000 0.34730  0.68060  0.25380  Biso   1.000  H
  H8       1.0000 0.35850  0.53380  0.24980  Biso   1.000  H
  C9       1.0000 0.33700  0.62380  0.11390  Biso   1.000  C
  C10      1.0000 0.43550  0.87200  0.17980  Biso   1.000  C
  H9       1.0000 0.44570  0.95390  0.21470  Biso   1.000  H
  H10      1.0000 0.44090  0.87830  0.11990  Biso   1.000  H
  C11      1.0000 0.18416  0.50820  0.19060  Biso   1.000  C
  H11      1.0000 0.22220  0.50350  0.22590  Biso   1.000  H
  C12      1.0000 0.15598  0.59010  0.22450  Biso   1.000  C
  C13      1.0000 0.09917  0.59780  0.17050  Biso   1.000  C
  H12      1.0000 0.08030  0.65470  0.19120  Biso   1.000  H
  C14      1.0000 0.18718  0.66460  0.32150  Biso   1.000  C
  O3       1.0000 0.16589  0.76530  0.33190  Biso   1.000  O
  O4       1.0000 0.23153  0.61610  0.38450  Biso   1.000  O
  C15      1.0000 0.47450  0.76630  0.25100  Biso   1.000  C
  H13      1.0000 0.48060  0.78110  0.31980  Biso   1.000  H
  H14      1.0000 0.45730  0.68290  0.22960  Biso   1.000  H
  Zn2      1.0000 0.79130  0.86024  0.03377  Biso   1.000  Zn
  O5       1.0000 0.66737  0.75020  0.02130  Biso   1.000  O
  C16      1.0000 0.65585  0.93410  0.10480  Biso   1.000  C
  O6       1.0000 0.73291  0.89990  0.07940  Biso   1.000  O
  C17      1.0000 0.87680  0.34860  0.14750  Biso   1.000  C
  H15      1.0000 0.87180  0.34380  0.20780  Biso   1.000  H
  H16      1.0000 0.85630  0.42230  0.10860  Biso   1.000  H
  N4       1.0000 0.85260  0.23250  0.08640  Biso   1.000  N
  N5       1.0000 0.51258  0.03500  0.03750  Biso   1.000  N
  C18      1.0000 0.59873  0.93650  0.05310  Biso   1.000  C
  H17      1.0000 0.57980  0.88290  0.99770  Biso   1.000  H
  N6       1.0000 0.82220  0.03590  0.04420  Biso   1.000  N
  C19      1.0000 0.57029  0.02030  0.08530  Biso   1.000  C
  C20      1.0000 0.68804  0.85300  0.06510  Biso   1.000  C
  C21      1.0000 0.82720  0.09100  0.96280  Biso   1.000  C
  H18      1.0000 0.81860  0.05310  0.90060  Biso   1.000  H
  C22      1.0000 0.84740  0.21170  0.99390  Biso   1.000  C
  H19      1.0000 0.85620  0.27020  0.95640  Biso   1.000  H
  C23      1.0000 0.83500  0.10400  0.21350  Biso   1.000  C
  H20      1.0000 0.79810  0.08520  0.20000  Biso   1.000  H
  H21      1.0000 0.84730  0.18060  0.25380  Biso   1.000  H
  H22      1.0000 0.85850  0.03380  0.24980  Biso   1.000  H
  C24      1.0000 0.83700  0.12380  0.11390  Biso   1.000  C
  C25      1.0000 0.93550  0.37200  0.17980  Biso   1.000  C
  H23      1.0000 0.94570  0.45390  0.21470  Biso   1.000  H
  H24      1.0000 0.94090  0.37830  0.11990  Biso   1.000  H
  C26      1.0000 0.68416  0.00820  0.19060  Biso   1.000  C
  H25      1.0000 0.72220  0.00350  0.22590  Biso   1.000  H
  C27      1.0000 0.65598  0.09010  0.22450  Biso   1.000  C
  C28      1.0000 0.59917  0.09780  0.17050  Biso   1.000  C
  H26      1.0000 0.58030  0.15470  0.19120  Biso   1.000  H
  C29      1.0000 0.68718  0.16460  0.32150  Biso   1.000  C
  O7       1.0000 0.66589  0.26530  0.33190  Biso   1.000  O
  O8       1.0000 0.73153  0.11610  0.38450  Biso   1.000  O
  C30      1.0000 0.97450  0.26630  0.25100  Biso   1.000  C
  H27      1.0000 0.98060  0.28110  0.31980  Biso   1.000  H
  H28      1.0000 0.95730  0.18290  0.22960  Biso   1.000  H
  Zn3      1.0000 0.70870  0.36024  0.46623  Biso   1.000  Zn
  O9       1.0000 0.83263  0.25020  0.47870  Biso   1.000  O
  C31      1.0000 0.84415  0.43410  0.39520  Biso   1.000  C
  O10      1.0000 0.76709  0.39990  0.42060  Biso   1.000  O
  C32      1.0000 0.62320  0.84860  0.35250  Biso   1.000  C
  H29      1.0000 0.62820  0.84380  0.29220  Biso   1.000  H
  H30      1.0000 0.64370  0.92230  0.39140  Biso   1.000  H
  N7       1.0000 0.64740  0.73250  0.41360  Biso   1.000  N
  N8       1.0000 0.98742  0.53500  0.46250  Biso   1.000  N
  C33      1.0000 0.90127  0.43650  0.44690  Biso   1.000  C
  H31      1.0000 0.92020  0.38290  0.50230  Biso   1.000  H
  N9       1.0000 0.67780  0.53590  0.45580  Biso   1.000  N
  C34      1.0000 0.92971  0.52030  0.41470  Biso   1.000  C
  C35      1.0000 0.81196  0.35300  0.43490  Biso   1.000  C
  C36      1.0000 0.67280  0.59100  0.53720  Biso   1.000  C
  H32      1.0000 0.68140  0.55310  0.59940  Biso   1.000  H
  C37      1.0000 0.65260  0.71170  0.50610  Biso   1.000  C
  H33      1.0000 0.64380  0.77020  0.54360  Biso   1.000  H
  C38      1.0000 0.66500  0.60400  0.28650  Biso   1.000  C
  H34      1.0000 0.70190  0.58520  0.30000  Biso   1.000  H
  H35      1.0000 0.65270  0.68060  0.24620  Biso   1.000  H
  H36      1.0000 0.64150  0.53380  0.25020  Biso   1.000  H
  C39      1.0000 0.66300  0.62380  0.38610  Biso   1.000  C
  C40      1.0000 0.56450  0.87200  0.32020  Biso   1.000  C
  H37      1.0000 0.55430  0.95390  0.28530  Biso   1.000  H
  H38      1.0000 0.55910  0.87830  0.38010  Biso   1.000  H
  C41      1.0000 0.81584  0.50820  0.30940  Biso   1.000  C
  H39      1.0000 0.77780  0.50350  0.27410  Biso   1.000  H
  C42      1.0000 0.84402  0.59010  0.27550  Biso   1.000  C
  C43      1.0000 0.90083  0.59780  0.32950  Biso   1.000  C
  H40      1.0000 0.91970  0.65470  0.30880  Biso   1.000  H
  C44      1.0000 0.81282  0.66460  0.17850  Biso   1.000  C
  O11      1.0000 0.83411  0.76530  0.16810  Biso   1.000  O
  O12      1.0000 0.76847  0.61610  0.11550  Biso   1.000  O
  C45      1.0000 0.52550  0.76630  0.24900  Biso   1.000  C
  H41      1.0000 0.51940  0.78110  0.18020  Biso   1.000  H
  H42      1.0000 0.54270  0.68290  0.27040  Biso   1.000  H
  Zn4      1.0000 0.20870  0.86024  0.46623  Biso   1.000  Zn
  O13      1.0000 0.33263  0.75020  0.47870  Biso   1.000  O
  C46      1.0000 0.34415  0.93410  0.39520  Biso   1.000  C
  O14      1.0000 0.26709  0.89990  0.42060  Biso   1.000  O
  C47      1.0000 0.12320  0.34860  0.35250  Biso   1.000  C
  H43      1.0000 0.12820  0.34380  0.29220  Biso   1.000  H
  H44      1.0000 0.14370  0.42230  0.39140  Biso   1.000  H
  N10      1.0000 0.14740  0.23250  0.41360  Biso   1.000  N
  N11      1.0000 0.48742  0.03500  0.46250  Biso   1.000  N
  C48      1.0000 0.40127  0.93650  0.44690  Biso   1.000  C
  H45      1.0000 0.42020  0.88290  0.50230  Biso   1.000  H
  N12      1.0000 0.17780  0.03590  0.45580  Biso   1.000  N
  C49      1.0000 0.42971  0.02030  0.41470  Biso   1.000  C
  C50      1.0000 0.31196  0.85300  0.43490  Biso   1.000  C
  C51      1.0000 0.17280  0.09100  0.53720  Biso   1.000  C
  H46      1.0000 0.18140  0.05310  0.59940  Biso   1.000  H
  C52      1.0000 0.15260  0.21170  0.50610  Biso   1.000  C
  H47      1.0000 0.14380  0.27020  0.54360  Biso   1.000  H
  C53      1.0000 0.16500  0.10400  0.28650  Biso   1.000  C
  H48      1.0000 0.20190  0.08520  0.30000  Biso   1.000  H
  H49      1.0000 0.15270  0.18060  0.24620  Biso   1.000  H
  H50      1.0000 0.14150  0.03380  0.25020  Biso   1.000  H
  C54      1.0000 0.16300  0.12380  0.38610  Biso   1.000  C
  C55      1.0000 0.06450  0.37200  0.32020  Biso   1.000  C
  H51      1.0000 0.05430  0.45390  0.28530  Biso   1.000  H
  H52      1.0000 0.05910  0.37830  0.38010  Biso   1.000  H
  C56      1.0000 0.31584  0.00820  0.30940  Biso   1.000  C
  H53      1.0000 0.27780  0.00350  0.27410  Biso   1.000  H
  C57      1.0000 0.34402  0.09010  0.27550  Biso   1.000  C
  C58      1.0000 0.40083  0.09780  0.32950  Biso   1.000  C
  H54      1.0000 0.41970  0.15470  0.30880  Biso   1.000  H
  C59      1.0000 0.31282  0.16460  0.17850  Biso   1.000  C
  O15      1.0000 0.33411  0.26530  0.16810  Biso   1.000  O
  O16      1.0000 0.26847  0.11610  0.11550  Biso   1.000  O
  C60      1.0000 0.02550  0.26630  0.24900  Biso   1.000  C
  H55      1.0000 0.01940  0.28110  0.18020  Biso   1.000  H
  H56      1.0000 0.04270  0.18290  0.27040  Biso   1.000  H
  Zn5      1.0000 0.70870  0.63976  0.96623  Biso   1.000  Zn
  O17      1.0000 0.83263  0.74980  0.97870  Biso   1.000  O
  C61      1.0000 0.84415  0.56590  0.89520  Biso   1.000  C
  O18      1.0000 0.76709  0.60010  0.92060  Biso   1.000  O
  C62      1.0000 0.62320  0.15140  0.85250  Biso   1.000  C
  H57      1.0000 0.62820  0.15620  0.79220  Biso   1.000  H
  H58      1.0000 0.64370  0.07770  0.89140  Biso   1.000  H
  N13      1.0000 0.64740  0.26750  0.91360  Biso   1.000  N
  N14      1.0000 0.98742  0.46500  0.96250  Biso   1.000  N
  C63      1.0000 0.90127  0.56350  0.94690  Biso   1.000  C
  H59      1.0000 0.92020  0.61710  0.00230  Biso   1.000  H
  N15      1.0000 0.67780  0.46410  0.95580  Biso   1.000  N
  C64      1.0000 0.92971  0.47970  0.91470  Biso   1.000  C
  C65      1.0000 0.81196  0.64700  0.93490  Biso   1.000  C
  C66      1.0000 0.67280  0.40900  0.03720  Biso   1.000  C
  H60      1.0000 0.68140  0.44690  0.09940  Biso   1.000  H
  C67      1.0000 0.65260  0.28830  0.00610  Biso   1.000  C
  H61      1.0000 0.64380  0.22980  0.04360  Biso   1.000  H
  C68      1.0000 0.66500  0.39600  0.78650  Biso   1.000  C
  H62      1.0000 0.70190  0.41480  0.80000  Biso   1.000  H
  H63      1.0000 0.65270  0.31940  0.74620  Biso   1.000  H
  H64      1.0000 0.64150  0.46620  0.75020  Biso   1.000  H
  C69      1.0000 0.66300  0.37620  0.88610  Biso   1.000  C
  C70      1.0000 0.56450  0.12800  0.82020  Biso   1.000  C
  H65      1.0000 0.55430  0.04610  0.78530  Biso   1.000  H
  H66      1.0000 0.55910  0.12170  0.88010  Biso   1.000  H
  C71      1.0000 0.81584  0.49180  0.80940  Biso   1.000  C
  H67      1.0000 0.77780  0.49650  0.77410  Biso   1.000  H
  C72      1.0000 0.84402  0.40990  0.77550  Biso   1.000  C
  C73      1.0000 0.90083  0.40220  0.82950  Biso   1.000  C
  H68      1.0000 0.91970  0.34530  0.80880  Biso   1.000  H
  C74      1.0000 0.81282  0.33540  0.67850  Biso   1.000  C
  O19      1.0000 0.83411  0.23470  0.66810  Biso   1.000  O
  O20      1.0000 0.76847  0.38390  0.61550  Biso   1.000  O
  C75      1.0000 0.52550  0.23370  0.74900  Biso   1.000  C
  H69      1.0000 0.51940  0.21890  0.68020  Biso   1.000  H
  H70      1.0000 0.54270  0.31710  0.77040  Biso   1.000  H
  Zn6      1.0000 0.20870  0.13976  0.96623  Biso   1.000  Zn
  O21      1.0000 0.33263  0.24980  0.97870  Biso   1.000  O
  C76      1.0000 0.34415  0.06590  0.89520  Biso   1.000  C
  O22      1.0000 0.26709  0.10010  0.92060  Biso   1.000  O
  C77      1.0000 0.12320  0.65140  0.85250  Biso   1.000  C
  H71      1.0000 0.12820  0.65620  0.79220  Biso   1.000  H
  H72      1.0000 0.14370  0.57770  0.89140  Biso   1.000  H
  N16      1.0000 0.14740  0.76750  0.91360  Biso   1.000  N
  N17      1.0000 0.48742  0.96500  0.96250  Biso   1.000  N
  C78      1.0000 0.40127  0.06350  0.94690  Biso   1.000  C
  H73      1.0000 0.42020  0.11710  0.00230  Biso   1.000  H
  N18      1.0000 0.17780  0.96410  0.95580  Biso   1.000  N
  C79      1.0000 0.42971  0.97970  0.91470  Biso   1.000  C
  C80      1.0000 0.31196  0.14700  0.93490  Biso   1.000  C
  C81      1.0000 0.17280  0.90900  0.03720  Biso   1.000  C
  H74      1.0000 0.18140  0.94690  0.09940  Biso   1.000  H
  C82      1.0000 0.15260  0.78830  0.00610  Biso   1.000  C
  H75      1.0000 0.14380  0.72980  0.04360  Biso   1.000  H
  C83      1.0000 0.16500  0.89600  0.78650  Biso   1.000  C
  H76      1.0000 0.20190  0.91480  0.80000  Biso   1.000  H
  H77      1.0000 0.15270  0.81940  0.74620  Biso   1.000  H
  H78      1.0000 0.14150  0.96620  0.75020  Biso   1.000  H
  C84      1.0000 0.16300  0.87620  0.88610  Biso   1.000  C
  C85      1.0000 0.06450  0.62800  0.82020  Biso   1.000  C
  H79      1.0000 0.05430  0.54610  0.78530  Biso   1.000  H
  H80      1.0000 0.05910  0.62170  0.88010  Biso   1.000  H
  C86      1.0000 0.31584  0.99180  0.80940  Biso   1.000  C
  H81      1.0000 0.27780  0.99650  0.77410  Biso   1.000  H
  C87      1.0000 0.34402  0.90990  0.77550  Biso   1.000  C
  C88      1.0000 0.40083  0.90220  0.82950  Biso   1.000  C
  H82      1.0000 0.41970  0.84530  0.80880  Biso   1.000  H
  C89      1.0000 0.31282  0.83540  0.67850  Biso   1.000  C
  O23      1.0000 0.33411  0.73470  0.66810  Biso   1.000  O
  O24      1.0000 0.26847  0.88390  0.61550  Biso   1.000  O
  C90      1.0000 0.02550  0.73370  0.74900  Biso   1.000  C
  H83      1.0000 0.01940  0.71890  0.68020  Biso   1.000  H
  H84      1.0000 0.04270  0.81710  0.77040  Biso   1.000  H
  Zn7      1.0000 0.29130  0.63976  0.53377  Biso   1.000  Zn
  O25      1.0000 0.16737  0.74980  0.52130  Biso   1.000  O
  C91      1.0000 0.15585  0.56590  0.60480  Biso   1.000  C
  O26      1.0000 0.23291  0.60010  0.57940  Biso   1.000  O
  C92      1.0000 0.37680  0.15140  0.64750  Biso   1.000  C
  H85      1.0000 0.37180  0.15620  0.70780  Biso   1.000  H
  H86      1.0000 0.35630  0.07770  0.60860  Biso   1.000  H
  N19      1.0000 0.35260  0.26750  0.58640  Biso   1.000  N
  N20      1.0000 0.01258  0.46500  0.53750  Biso   1.000  N
  C93      1.0000 0.09873  0.56350  0.55310  Biso   1.000  C
  H87      1.0000 0.07980  0.61710  0.49770  Biso   1.000  H
  N21      1.0000 0.32220  0.46410  0.54420  Biso   1.000  N
  C94      1.0000 0.07029  0.47970  0.58530  Biso   1.000  C
  C95      1.0000 0.18804  0.64700  0.56510  Biso   1.000  C
  C96      1.0000 0.32720  0.40900  0.46280  Biso   1.000  C
  H88      1.0000 0.31860  0.44690  0.40060  Biso   1.000  H
  C97      1.0000 0.34740  0.28830  0.49390  Biso   1.000  C
  H89      1.0000 0.35620  0.22980  0.45640  Biso   1.000  H
  C98      1.0000 0.33500  0.39600  0.71350  Biso   1.000  C
  H90      1.0000 0.29810  0.41480  0.70000  Biso   1.000  H
  H91      1.0000 0.34730  0.31940  0.75380  Biso   1.000  H
  H92      1.0000 0.35850  0.46620  0.74980  Biso   1.000  H
  C99      1.0000 0.33700  0.37620  0.61390  Biso   1.000  C
  C100     1.0000 0.43550  0.12800  0.67980  Biso   1.000  C
  H93      1.0000 0.44570  0.04610  0.71470  Biso   1.000  H
  H94      1.0000 0.44090  0.12170  0.61990  Biso   1.000  H
  C101     1.0000 0.18416  0.49180  0.69060  Biso   1.000  C
  H95      1.0000 0.22220  0.49650  0.72590  Biso   1.000  H
  C102     1.0000 0.15598  0.40990  0.72450  Biso   1.000  C
  C103     1.0000 0.09917  0.40220  0.67050  Biso   1.000  C
  H96      1.0000 0.08030  0.34530  0.69120  Biso   1.000  H
  C104     1.0000 0.18718  0.33540  0.82150  Biso   1.000  C
  O27      1.0000 0.16589  0.23470  0.83190  Biso   1.000  O
  O28      1.0000 0.23153  0.38390  0.88450  Biso   1.000  O
  C105     1.0000 0.47450  0.23370  0.75100  Biso   1.000  C
  H97      1.0000 0.48060  0.21890  0.81980  Biso   1.000  H
  H98      1.0000 0.45730  0.31710  0.72960  Biso   1.000  H
  Zn8      1.0000 0.79130  0.13976  0.53377  Biso   1.000  Zn
  O29      1.0000 0.66737  0.24980  0.52130  Biso   1.000  O
  C106     1.0000 0.65585  0.06590  0.60480  Biso   1.000  C
  O30      1.0000 0.73291  0.10010  0.57940  Biso   1.000  O
  C107     1.0000 0.87680  0.65140  0.64750  Biso   1.000  C
  H99      1.0000 0.87180  0.65620  0.70780  Biso   1.000  H
  H100     1.0000 0.85630  0.57770  0.60860  Biso   1.000  H
  N22      1.0000 0.85260  0.76750  0.58640  Biso   1.000  N
  N23      1.0000 0.51258  0.96500  0.53750  Biso   1.000  N
  C108     1.0000 0.59873  0.06350  0.55310  Biso   1.000  C
  H101     1.0000 0.57980  0.11710  0.49770  Biso   1.000  H
  N24      1.0000 0.82220  0.96410  0.54420  Biso   1.000  N
  C109     1.0000 0.57029  0.97970  0.58530  Biso   1.000  C
  C110     1.0000 0.68804  0.14700  0.56510  Biso   1.000  C
  C111     1.0000 0.82720  0.90900  0.46280  Biso   1.000  C
  H102     1.0000 0.81860  0.94690  0.40060  Biso   1.000  H
  C112     1.0000 0.84740  0.78830  0.49390  Biso   1.000  C
  H103     1.0000 0.85620  0.72980  0.45640  Biso   1.000  H
  C113     1.0000 0.83500  0.89600  0.71350  Biso   1.000  C
  H104     1.0000 0.79810  0.91480  0.70000  Biso   1.000  H
  H105     1.0000 0.84730  0.81940  0.75380  Biso   1.000  H
  H106     1.0000 0.85850  0.96620  0.74980  Biso   1.000  H
  C114     1.0000 0.83700  0.87620  0.61390  Biso   1.000  C
  C115     1.0000 0.93550  0.62800  0.67980  Biso   1.000  C
  H107     1.0000 0.94570  0.54610  0.71470  Biso   1.000  H
  H108     1.0000 0.94090  0.62170  0.61990  Biso   1.000  H
  C116     1.0000 0.68416  0.99180  0.69060  Biso   1.000  C
  H109     1.0000 0.72220  0.99650  0.72590  Biso   1.000  H
  C117     1.0000 0.65598  0.90990  0.72450  Biso   1.000  C
  C118     1.0000 0.59917  0.90220  0.67050  Biso   1.000  C
  H110     1.0000 0.58030  0.84530  0.69120  Biso   1.000  H
  C119     1.0000 0.68718  0.83540  0.82150  Biso   1.000  C
  O31      1.0000 0.66589  0.73470  0.83190  Biso   1.000  O
  O32      1.0000 0.73153  0.88390  0.88450  Biso   1.000  O
  C120     1.0000 0.97450  0.73370  0.75100  Biso   1.000  C
  H111     1.0000 0.98060  0.71890  0.81980  Biso   1.000  H
  H112     1.0000 0.95730  0.81710  0.72960  Biso   1.000  H
