data_image0
_cell_length_a       27.6213
_cell_length_b       10.5121
_cell_length_c       14.7614
_cell_angle_alpha    90
_cell_angle_beta     117.048
_cell_angle_gamma    90

_symmetry_space_group_name_H-M    "P 1"
_symmetry_int_tables_number       1

loop_
  _symmetry_equiv_pos_as_xyz
  'x, y, z'

loop_
  _atom_site_label
  _atom_site_occupancy
  _atom_site_fract_x
  _atom_site_fract_y
  _atom_site_fract_z
  _atom_site_thermal_displace_type
  _atom_site_B_iso_or_equiv
  _atom_site_type_symbol
  Zn1      1.0000 0.79092  0.64000  0.53548  Biso   1.000  Zn
  O1       1.0000 0.83409  0.73650  0.66800  Biso   1.000  O
  O2       1.0000 0.83089  0.25050  0.97500  Biso   1.000  O
  O3       1.0000 0.76639  0.10160  0.91530  Biso   1.000  O
  O4       1.0000 0.76970  0.88740  0.61160  Biso   1.000  O
  N1       1.0000 0.82725  0.47210  0.54320  Biso   1.000  N
  C1       1.0000 0.84385  0.07060  0.89160  Biso   1.000  C
  C2       1.0000 0.81615  0.99790  0.80480  Biso   1.000  C
  H1       1.0000 0.77850  0.00320  0.76880  Biso   1.000  H
  N2       1.0000 0.85820  0.27710  0.57380  Biso   1.000  N
  C3       1.0000 0.84471  0.91680  0.77150  Biso   1.000  C
  C4       1.0000 0.81110  0.14880  0.93080  Biso   1.000  C
  C5       1.0000 0.81368  0.84010  0.67530  Biso   1.000  C
  N3       1.0000 0.98600  0.96680  0.96360  Biso   1.000  N
  C6       1.0000 0.90030  0.06760  0.94490  Biso   1.000  C
  H2       1.0000 0.91870  0.12000  0.00100  Biso   1.000  H
  C7       1.0000 0.90110  0.90660  0.82750  Biso   1.000  C
  H3       1.0000 0.92010  0.84850  0.80830  Biso   1.000  H
  C8       1.0000 0.83590  0.37170  0.60260  Biso   1.000  C
  C9       1.0000 0.92890  0.98420  0.91260  Biso   1.000  C
  C10      1.0000 0.87650  0.15250  0.62310  Biso   1.000  C
  H4       1.0000 0.85890  0.08530  0.57390  Biso   1.000  H
  H5       1.0000 0.86630  0.14320  0.67750  Biso   1.000  H
  C11      1.0000 0.84470  0.43930  0.47230  Biso   1.000  C
  H6       1.0000 0.84340  0.49170  0.42050  Biso   1.000  H
  C12      1.0000 0.82180  0.36270  0.68900  Biso   1.000  C
  H7       1.0000 0.81710  0.44770  0.70930  Biso   1.000  H
  H8       1.0000 0.85160  0.32280  0.74660  Biso   1.000  H
  C13      1.0000 0.86390  0.31860  0.49030  Biso   1.000  C
  H9       1.0000 0.87800  0.27290  0.45380  Biso   1.000  H
  C14      1.0000 0.76970  0.28570  0.66010  Biso   1.000  C
  H10      1.0000 0.74010  0.32500  0.60300  Biso   1.000  H
  H11      1.0000 0.76160  0.28340  0.71670  Biso   1.000  H
  H12      1.0000 0.77480  0.20060  0.64240  Biso   1.000  H
  C15      1.0000 0.93780  0.14020  0.66610  Biso   1.000  C
  H13      1.0000 0.94930  0.06070  0.70330  Biso   1.000  H
  H14      1.0000 0.94710  0.13670  0.61020  Biso   1.000  H
  C16      1.0000 0.96880  0.24820  0.73610  Biso   1.000  C
  H15      1.0000 0.96510  0.24210  0.79820  Biso   1.000  H
  H16      1.0000 0.95280  0.32830  0.70360  Biso   1.000  H
  O5       1.0000 0.00190  0.87650  0.92130  Biso   1.000  O
  Zn2      1.0000 0.29092  0.14000  0.53548  Biso   1.000  Zn
  O6       1.0000 0.33409  0.23650  0.66800  Biso   1.000  O
  O7       1.0000 0.33089  0.75050  0.97500  Biso   1.000  O
  O8       1.0000 0.26639  0.60160  0.91530  Biso   1.000  O
  O9       1.0000 0.26970  0.38740  0.61160  Biso   1.000  O
  N4       1.0000 0.32725  0.97210  0.54320  Biso   1.000  N
  C17      1.0000 0.34385  0.57060  0.89160  Biso   1.000  C
  C18      1.0000 0.31615  0.49790  0.80480  Biso   1.000  C
  H17      1.0000 0.27850  0.50320  0.76880  Biso   1.000  H
  N5       1.0000 0.35820  0.77710  0.57380  Biso   1.000  N
  C19      1.0000 0.34471  0.41680  0.77150  Biso   1.000  C
  C20      1.0000 0.31110  0.64880  0.93080  Biso   1.000  C
  C21      1.0000 0.31368  0.34010  0.67530  Biso   1.000  C
  N6       1.0000 0.48600  0.46680  0.96360  Biso   1.000  N
  C22      1.0000 0.40030  0.56760  0.94490  Biso   1.000  C
  H18      1.0000 0.41870  0.62000  0.00100  Biso   1.000  H
  C23      1.0000 0.40110  0.40660  0.82750  Biso   1.000  C
  H19      1.0000 0.42010  0.34850  0.80830  Biso   1.000  H
  C24      1.0000 0.33590  0.87170  0.60260  Biso   1.000  C
  C25      1.0000 0.42890  0.48420  0.91260  Biso   1.000  C
  C26      1.0000 0.37650  0.65250  0.62310  Biso   1.000  C
  H20      1.0000 0.35890  0.58530  0.57390  Biso   1.000  H
  H21      1.0000 0.36630  0.64320  0.67750  Biso   1.000  H
  C27      1.0000 0.34470  0.93930  0.47230  Biso   1.000  C
  H22      1.0000 0.34340  0.99170  0.42050  Biso   1.000  H
  C28      1.0000 0.32180  0.86270  0.68900  Biso   1.000  C
  H23      1.0000 0.31710  0.94770  0.70930  Biso   1.000  H
  H24      1.0000 0.35160  0.82280  0.74660  Biso   1.000  H
  C29      1.0000 0.36390  0.81860  0.49030  Biso   1.000  C
  H25      1.0000 0.37800  0.77290  0.45380  Biso   1.000  H
  C30      1.0000 0.26970  0.78570  0.66010  Biso   1.000  C
  H26      1.0000 0.24010  0.82500  0.60300  Biso   1.000  H
  H27      1.0000 0.26160  0.78340  0.71670  Biso   1.000  H
  H28      1.0000 0.27480  0.70060  0.64240  Biso   1.000  H
  C31      1.0000 0.43780  0.64020  0.66610  Biso   1.000  C
  H29      1.0000 0.44930  0.56070  0.70330  Biso   1.000  H
  H30      1.0000 0.44710  0.63670  0.61020  Biso   1.000  H
  C32      1.0000 0.46880  0.74820  0.73610  Biso   1.000  C
  H31      1.0000 0.46510  0.74210  0.79820  Biso   1.000  H
  H32      1.0000 0.45280  0.82830  0.70360  Biso   1.000  H
  O10      1.0000 0.50190  0.37650  0.92130  Biso   1.000  O
  Zn3      1.0000 0.20908  0.64000  0.96452  Biso   1.000  Zn
  O11      1.0000 0.16591  0.73650  0.83200  Biso   1.000  O
  O12      1.0000 0.16911  0.25050  0.52500  Biso   1.000  O
  O13      1.0000 0.23361  0.10160  0.58470  Biso   1.000  O
  O14      1.0000 0.23030  0.88740  0.88840  Biso   1.000  O
  N7       1.0000 0.17275  0.47210  0.95680  Biso   1.000  N
  C33      1.0000 0.15615  0.07060  0.60840  Biso   1.000  C
  C34      1.0000 0.18385  0.99790  0.69520  Biso   1.000  C
  H33      1.0000 0.22150  0.00320  0.73120  Biso   1.000  H
  N8       1.0000 0.14180  0.27710  0.92620  Biso   1.000  N
  C35      1.0000 0.15529  0.91680  0.72850  Biso   1.000  C
  C36      1.0000 0.18890  0.14880  0.56920  Biso   1.000  C
  C37      1.0000 0.18632  0.84010  0.82470  Biso   1.000  C
  N9       1.0000 0.01400  0.96680  0.53640  Biso   1.000  N
  C38      1.0000 0.09970  0.06760  0.55510  Biso   1.000  C
  H34      1.0000 0.08130  0.12000  0.49900  Biso   1.000  H
  C39      1.0000 0.09890  0.90660  0.67250  Biso   1.000  C
  H35      1.0000 0.07990  0.84850  0.69170  Biso   1.000  H
  C40      1.0000 0.16410  0.37170  0.89740  Biso   1.000  C
  C41      1.0000 0.07110  0.98420  0.58740  Biso   1.000  C
  C42      1.0000 0.12350  0.15250  0.87690  Biso   1.000  C
  H36      1.0000 0.14110  0.08530  0.92610  Biso   1.000  H
  H37      1.0000 0.13370  0.14320  0.82250  Biso   1.000  H
  C43      1.0000 0.15530  0.43930  0.02770  Biso   1.000  C
  H38      1.0000 0.15660  0.49170  0.07950  Biso   1.000  H
  C44      1.0000 0.17820  0.36270  0.81100  Biso   1.000  C
  H39      1.0000 0.18290  0.44770  0.79070  Biso   1.000  H
  H40      1.0000 0.14840  0.32280  0.75340  Biso   1.000  H
  C45      1.0000 0.13610  0.31860  0.00970  Biso   1.000  C
  H41      1.0000 0.12200  0.27290  0.04620  Biso   1.000  H
  C46      1.0000 0.23030  0.28570  0.83990  Biso   1.000  C
  H42      1.0000 0.25990  0.32500  0.89700  Biso   1.000  H
  H43      1.0000 0.23840  0.28340  0.78330  Biso   1.000  H
  H44      1.0000 0.22520  0.20060  0.85760  Biso   1.000  H
  C47      1.0000 0.06220  0.14020  0.83390  Biso   1.000  C
  H45      1.0000 0.05070  0.06070  0.79670  Biso   1.000  H
  H46      1.0000 0.05290  0.13670  0.88980  Biso   1.000  H
  C48      1.0000 0.03120  0.24820  0.76390  Biso   1.000  C
  H47      1.0000 0.03490  0.24210  0.70180  Biso   1.000  H
  H48      1.0000 0.04720  0.32830  0.79640  Biso   1.000  H
  O15      1.0000 0.99810  0.87650  0.57870  Biso   1.000  O
  Zn4      1.0000 0.70908  0.14000  0.96452  Biso   1.000  Zn
  O16      1.0000 0.66591  0.23650  0.83200  Biso   1.000  O
  O17      1.0000 0.66911  0.75050  0.52500  Biso   1.000  O
  O18      1.0000 0.73361  0.60160  0.58470  Biso   1.000  O
  O19      1.0000 0.73030  0.38740  0.88840  Biso   1.000  O
  N10      1.0000 0.67275  0.97210  0.95680  Biso   1.000  N
  C49      1.0000 0.65615  0.57060  0.60840  Biso   1.000  C
  C50      1.0000 0.68385  0.49790  0.69520  Biso   1.000  C
  H49      1.0000 0.72150  0.50320  0.73120  Biso   1.000  H
  N11      1.0000 0.64180  0.77710  0.92620  Biso   1.000  N
  C51      1.0000 0.65529  0.41680  0.72850  Biso   1.000  C
  C52      1.0000 0.68890  0.64880  0.56920  Biso   1.000  C
  C53      1.0000 0.68632  0.34010  0.82470  Biso   1.000  C
  N12      1.0000 0.51400  0.46680  0.53640  Biso   1.000  N
  C54      1.0000 0.59970  0.56760  0.55510  Biso   1.000  C
  H50      1.0000 0.58130  0.62000  0.49900  Biso   1.000  H
  C55      1.0000 0.59890  0.40660  0.67250  Biso   1.000  C
  H51      1.0000 0.57990  0.34850  0.69170  Biso   1.000  H
  C56      1.0000 0.66410  0.87170  0.89740  Biso   1.000  C
  C57      1.0000 0.57110  0.48420  0.58740  Biso   1.000  C
  C58      1.0000 0.62350  0.65250  0.87690  Biso   1.000  C
  H52      1.0000 0.64110  0.58530  0.92610  Biso   1.000  H
  H53      1.0000 0.63370  0.64320  0.82250  Biso   1.000  H
  C59      1.0000 0.65530  0.93930  0.02770  Biso   1.000  C
  H54      1.0000 0.65660  0.99170  0.07950  Biso   1.000  H
  C60      1.0000 0.67820  0.86270  0.81100  Biso   1.000  C
  H55      1.0000 0.68290  0.94770  0.79070  Biso   1.000  H
  H56      1.0000 0.64840  0.82280  0.75340  Biso   1.000  H
  C61      1.0000 0.63610  0.81860  0.00970  Biso   1.000  C
  H57      1.0000 0.62200  0.77290  0.04620  Biso   1.000  H
  C62      1.0000 0.73030  0.78570  0.83990  Biso   1.000  C
  H58      1.0000 0.75990  0.82500  0.89700  Biso   1.000  H
  H59      1.0000 0.73840  0.78340  0.78330  Biso   1.000  H
  H60      1.0000 0.72520  0.70060  0.85760  Biso   1.000  H
  C63      1.0000 0.56220  0.64020  0.83390  Biso   1.000  C
  H61      1.0000 0.55070  0.56070  0.79670  Biso   1.000  H
  H62      1.0000 0.55290  0.63670  0.88980  Biso   1.000  H
  C64      1.0000 0.53120  0.74820  0.76390  Biso   1.000  C
  H63      1.0000 0.53490  0.74210  0.70180  Biso   1.000  H
  H64      1.0000 0.54720  0.82830  0.79640  Biso   1.000  H
  O20      1.0000 0.49810  0.37650  0.57870  Biso   1.000  O
  Zn5      1.0000 0.20908  0.36000  0.46452  Biso   1.000  Zn
  O21      1.0000 0.16591  0.26350  0.33200  Biso   1.000  O
  O22      1.0000 0.16911  0.74950  0.02500  Biso   1.000  O
  O23      1.0000 0.23361  0.89840  0.08470  Biso   1.000  O
  O24      1.0000 0.23030  0.11260  0.38840  Biso   1.000  O
  N13      1.0000 0.17275  0.52790  0.45680  Biso   1.000  N
  C65      1.0000 0.15615  0.92940  0.10840  Biso   1.000  C
  C66      1.0000 0.18385  0.00210  0.19520  Biso   1.000  C
  H65      1.0000 0.22150  0.99680  0.23120  Biso   1.000  H
  N14      1.0000 0.14180  0.72290  0.42620  Biso   1.000  N
  C67      1.0000 0.15529  0.08320  0.22850  Biso   1.000  C
  C68      1.0000 0.18890  0.85120  0.06920  Biso   1.000  C
  C69      1.0000 0.18632  0.15990  0.32470  Biso   1.000  C
  N15      1.0000 0.01400  0.03320  0.03640  Biso   1.000  N
  C70      1.0000 0.09970  0.93240  0.05510  Biso   1.000  C
  H66      1.0000 0.08130  0.88000  0.99900  Biso   1.000  H
  C71      1.0000 0.09890  0.09340  0.17250  Biso   1.000  C
  H67      1.0000 0.07990  0.15150  0.19170  Biso   1.000  H
  C72      1.0000 0.16410  0.62830  0.39740  Biso   1.000  C
  C73      1.0000 0.07110  0.01580  0.08740  Biso   1.000  C
  C74      1.0000 0.12350  0.84750  0.37690  Biso   1.000  C
  H68      1.0000 0.14110  0.91470  0.42610  Biso   1.000  H
  H69      1.0000 0.13370  0.85680  0.32250  Biso   1.000  H
  C75      1.0000 0.15530  0.56070  0.52770  Biso   1.000  C
  H70      1.0000 0.15660  0.50830  0.57950  Biso   1.000  H
  C76      1.0000 0.17820  0.63730  0.31100  Biso   1.000  C
  H71      1.0000 0.18290  0.55230  0.29070  Biso   1.000  H
  H72      1.0000 0.14840  0.67720  0.25340  Biso   1.000  H
  C77      1.0000 0.13610  0.68140  0.50970  Biso   1.000  C
  H73      1.0000 0.12200  0.72710  0.54620  Biso   1.000  H
  C78      1.0000 0.23030  0.71430  0.33990  Biso   1.000  C
  H74      1.0000 0.25990  0.67500  0.39700  Biso   1.000  H
  H75      1.0000 0.23840  0.71660  0.28330  Biso   1.000  H
  H76      1.0000 0.22520  0.79940  0.35760  Biso   1.000  H
  C79      1.0000 0.06220  0.85980  0.33390  Biso   1.000  C
  H77      1.0000 0.05070  0.93930  0.29670  Biso   1.000  H
  H78      1.0000 0.05290  0.86330  0.38980  Biso   1.000  H
  C80      1.0000 0.03120  0.75180  0.26390  Biso   1.000  C
  H79      1.0000 0.03490  0.75790  0.20180  Biso   1.000  H
  H80      1.0000 0.04720  0.67170  0.29640  Biso   1.000  H
  O25      1.0000 0.99810  0.12350  0.07870  Biso   1.000  O
  Zn6      1.0000 0.70908  0.86000  0.46452  Biso   1.000  Zn
  O26      1.0000 0.66591  0.76350  0.33200  Biso   1.000  O
  O27      1.0000 0.66911  0.24950  0.02500  Biso   1.000  O
  O28      1.0000 0.73361  0.39840  0.08470  Biso   1.000  O
  O29      1.0000 0.73030  0.61260  0.38840  Biso   1.000  O
  N16      1.0000 0.67275  0.02790  0.45680  Biso   1.000  N
  C81      1.0000 0.65615  0.42940  0.10840  Biso   1.000  C
  C82      1.0000 0.68385  0.50210  0.19520  Biso   1.000  C
  H81      1.0000 0.72150  0.49680  0.23120  Biso   1.000  H
  N17      1.0000 0.64180  0.22290  0.42620  Biso   1.000  N
  C83      1.0000 0.65529  0.58320  0.22850  Biso   1.000  C
  C84      1.0000 0.68890  0.35120  0.06920  Biso   1.000  C
  C85      1.0000 0.68632  0.65990  0.32470  Biso   1.000  C
  N18      1.0000 0.51400  0.53320  0.03640  Biso   1.000  N
  C86      1.0000 0.59970  0.43240  0.05510  Biso   1.000  C
  H82      1.0000 0.58130  0.38000  0.99900  Biso   1.000  H
  C87      1.0000 0.59890  0.59340  0.17250  Biso   1.000  C
  H83      1.0000 0.57990  0.65150  0.19170  Biso   1.000  H
  C88      1.0000 0.66410  0.12830  0.39740  Biso   1.000  C
  C89      1.0000 0.57110  0.51580  0.08740  Biso   1.000  C
  C90      1.0000 0.62350  0.34750  0.37690  Biso   1.000  C
  H84      1.0000 0.64110  0.41470  0.42610  Biso   1.000  H
  H85      1.0000 0.63370  0.35680  0.32250  Biso   1.000  H
  C91      1.0000 0.65530  0.06070  0.52770  Biso   1.000  C
  H86      1.0000 0.65660  0.00830  0.57950  Biso   1.000  H
  C92      1.0000 0.67820  0.13730  0.31100  Biso   1.000  C
  H87      1.0000 0.68290  0.05230  0.29070  Biso   1.000  H
  H88      1.0000 0.64840  0.17720  0.25340  Biso   1.000  H
  C93      1.0000 0.63610  0.18140  0.50970  Biso   1.000  C
  H89      1.0000 0.62200  0.22710  0.54620  Biso   1.000  H
  C94      1.0000 0.73030  0.21430  0.33990  Biso   1.000  C
  H90      1.0000 0.75990  0.17500  0.39700  Biso   1.000  H
  H91      1.0000 0.73840  0.21660  0.28330  Biso   1.000  H
  H92      1.0000 0.72520  0.29940  0.35760  Biso   1.000  H
  C95      1.0000 0.56220  0.35980  0.33390  Biso   1.000  C
  H93      1.0000 0.55070  0.43930  0.29670  Biso   1.000  H
  H94      1.0000 0.55290  0.36330  0.38980  Biso   1.000  H
  C96      1.0000 0.53120  0.25180  0.26390  Biso   1.000  C
  H95      1.0000 0.53490  0.25790  0.20180  Biso   1.000  H
  H96      1.0000 0.54720  0.17170  0.29640  Biso   1.000  H
  O30      1.0000 0.49810  0.62350  0.07870  Biso   1.000  O
  Zn7      1.0000 0.79092  0.36000  0.03548  Biso   1.000  Zn
  O31      1.0000 0.83409  0.26350  0.16800  Biso   1.000  O
  O32      1.0000 0.83089  0.74950  0.47500  Biso   1.000  O
  O33      1.0000 0.76639  0.89840  0.41530  Biso   1.000  O
  O34      1.0000 0.76970  0.11260  0.11160  Biso   1.000  O
  N19      1.0000 0.82725  0.52790  0.04320  Biso   1.000  N
  C97      1.0000 0.84385  0.92940  0.39160  Biso   1.000  C
  C98      1.0000 0.81615  0.00210  0.30480  Biso   1.000  C
  H97      1.0000 0.77850  0.99680  0.26880  Biso   1.000  H
  N20      1.0000 0.85820  0.72290  0.07380  Biso   1.000  N
  C99      1.0000 0.84471  0.08320  0.27150  Biso   1.000  C
  C100     1.0000 0.81110  0.85120  0.43080  Biso   1.000  C
  C101     1.0000 0.81368  0.15990  0.17530  Biso   1.000  C
  N21      1.0000 0.98600  0.03320  0.46360  Biso   1.000  N
  C102     1.0000 0.90030  0.93240  0.44490  Biso   1.000  C
  H98      1.0000 0.91870  0.88000  0.50100  Biso   1.000  H
  C103     1.0000 0.90110  0.09340  0.32750  Biso   1.000  C
  H99      1.0000 0.92010  0.15150  0.30830  Biso   1.000  H
  C104     1.0000 0.83590  0.62830  0.10260  Biso   1.000  C
  C105     1.0000 0.92890  0.01580  0.41260  Biso   1.000  C
  C106     1.0000 0.87650  0.84750  0.12310  Biso   1.000  C
  H100     1.0000 0.85890  0.91470  0.07390  Biso   1.000  H
  H101     1.0000 0.86630  0.85680  0.17750  Biso   1.000  H
  C107     1.0000 0.84470  0.56070  0.97230  Biso   1.000  C
  H102     1.0000 0.84340  0.50830  0.92050  Biso   1.000  H
  C108     1.0000 0.82180  0.63730  0.18900  Biso   1.000  C
  H103     1.0000 0.81710  0.55230  0.20930  Biso   1.000  H
  H104     1.0000 0.85160  0.67720  0.24660  Biso   1.000  H
  C109     1.0000 0.86390  0.68140  0.99030  Biso   1.000  C
  H105     1.0000 0.87800  0.72710  0.95380  Biso   1.000  H
  C110     1.0000 0.76970  0.71430  0.16010  Biso   1.000  C
  H106     1.0000 0.74010  0.67500  0.10300  Biso   1.000  H
  H107     1.0000 0.76160  0.71660  0.21670  Biso   1.000  H
  H108     1.0000 0.77480  0.79940  0.14240  Biso   1.000  H
  C111     1.0000 0.93780  0.85980  0.16610  Biso   1.000  C
  H109     1.0000 0.94930  0.93930  0.20330  Biso   1.000  H
  H110     1.0000 0.94710  0.86330  0.11020  Biso   1.000  H
  C112     1.0000 0.96880  0.75180  0.23610  Biso   1.000  C
  H111     1.0000 0.96510  0.75790  0.29820  Biso   1.000  H
  H112     1.0000 0.95280  0.67170  0.20360  Biso   1.000  H
  O35      1.0000 0.00190  0.12350  0.42130  Biso   1.000  O
  Zn8      1.0000 0.29092  0.86000  0.03548  Biso   1.000  Zn
  O36      1.0000 0.33409  0.76350  0.16800  Biso   1.000  O
  O37      1.0000 0.33089  0.24950  0.47500  Biso   1.000  O
  O38      1.0000 0.26639  0.39840  0.41530  Biso   1.000  O
  O39      1.0000 0.26970  0.61260  0.11160  Biso   1.000  O
  N22      1.0000 0.32725  0.02790  0.04320  Biso   1.000  N
  C113     1.0000 0.34385  0.42940  0.39160  Biso   1.000  C
  C114     1.0000 0.31615  0.50210  0.30480  Biso   1.000  C
  H113     1.0000 0.27850  0.49680  0.26880  Biso   1.000  H
  N23      1.0000 0.35820  0.22290  0.07380  Biso   1.000  N
  C115     1.0000 0.34471  0.58320  0.27150  Biso   1.000  C
  C116     1.0000 0.31110  0.35120  0.43080  Biso   1.000  C
  C117     1.0000 0.31368  0.65990  0.17530  Biso   1.000  C
  N24      1.0000 0.48600  0.53320  0.46360  Biso   1.000  N
  C118     1.0000 0.40030  0.43240  0.44490  Biso   1.000  C
  H114     1.0000 0.41870  0.38000  0.50100  Biso   1.000  H
  C119     1.0000 0.40110  0.59340  0.32750  Biso   1.000  C
  H115     1.0000 0.42010  0.65150  0.30830  Biso   1.000  H
  C120     1.0000 0.33590  0.12830  0.10260  Biso   1.000  C
  C121     1.0000 0.42890  0.51580  0.41260  Biso   1.000  C
  C122     1.0000 0.37650  0.34750  0.12310  Biso   1.000  C
  H116     1.0000 0.35890  0.41470  0.07390  Biso   1.000  H
  H117     1.0000 0.36630  0.35680  0.17750  Biso   1.000  H
  C123     1.0000 0.34470  0.06070  0.97230  Biso   1.000  C
  H118     1.0000 0.34340  0.00830  0.92050  Biso   1.000  H
  C124     1.0000 0.32180  0.13730  0.18900  Biso   1.000  C
  H119     1.0000 0.31710  0.05230  0.20930  Biso   1.000  H
  H120     1.0000 0.35160  0.17720  0.24660  Biso   1.000  H
  C125     1.0000 0.36390  0.18140  0.99030  Biso   1.000  C
  H121     1.0000 0.37800  0.22710  0.95380  Biso   1.000  H
  C126     1.0000 0.26970  0.21430  0.16010  Biso   1.000  C
  H122     1.0000 0.24010  0.17500  0.10300  Biso   1.000  H
  H123     1.0000 0.26160  0.21660  0.21670  Biso   1.000  H
  H124     1.0000 0.27480  0.29940  0.14240  Biso   1.000  H
  C127     1.0000 0.43780  0.35980  0.16610  Biso   1.000  C
  H125     1.0000 0.44930  0.43930  0.20330  Biso   1.000  H
  H126     1.0000 0.44710  0.36330  0.11020  Biso   1.000  H
  C128     1.0000 0.46880  0.25180  0.23610  Biso   1.000  C
  H127     1.0000 0.46510  0.25790  0.29820  Biso   1.000  H
  H128     1.0000 0.45280  0.17170  0.20360  Biso   1.000  H
  O40      1.0000 0.50190  0.62350  0.42130  Biso   1.000  O
