data_image0
_cell_length_a       10.195
_cell_length_b       21.342
_cell_length_c       18.533
_cell_angle_alpha    90
_cell_angle_beta     102.96
_cell_angle_gamma    90

_symmetry_space_group_name_H-M    "P 1"
_symmetry_int_tables_number       1

loop_
  _symmetry_equiv_pos_as_xyz
  'x, y, z'

loop_
  _atom_site_label
  _atom_site_occupancy
  _atom_site_fract_x
  _atom_site_fract_y
  _atom_site_fract_z
  _atom_site_thermal_displace_type
  _atom_site_B_iso_or_equiv
  _atom_site_type_symbol
  Zn1      1.0000 0.34843  0.65082  0.78606  Biso   1.000  Zn
  O1       1.0000 0.35680  0.52900  0.88370  Biso   1.000  O
  O2       1.0000 0.23870  0.61577  0.84980  Biso   1.000  O
  O3       1.0000 0.13060  0.73040  0.29480  Biso   1.000  O
  O4       1.0000 0.23000  0.78911  0.22220  Biso   1.000  O
  O5       1.0000 0.22750  0.55910  0.66010  Biso   1.000  O
  O6       1.0000 0.42470  0.60080  0.71744  Biso   1.000  O
  O7       1.0000 0.61620  0.72447  0.78150  Biso   1.000  O
  O8       1.0000 0.49870  0.68466  0.85940  Biso   1.000  O
  C1       1.0000 0.26350  0.56570  0.88680  Biso   1.000  C
  C2       1.0000 0.10060  0.60000  0.96350  Biso   1.000  C
  H1       1.0000 0.12250  0.64130  0.95560  Biso   1.000  H
  C3       1.0000 0.16670  0.55020  0.93500  Biso   1.000  C
  C4       1.0000 0.13480  0.48970  0.94680  Biso   1.000  C
  H2       1.0000 0.18060  0.45740  0.92950  Biso   1.000  H
  C5       1.0000 0.03240  0.47520  0.98550  Biso   1.000  C
  C6       1.0000 0.00480  0.58710  0.00250  Biso   1.000  C
  H3       1.0000 0.96320  0.62000  0.02160  Biso   1.000  H
  C7       1.0000 0.13420  0.75450  0.23410  Biso   1.000  C
  C8       1.0000 0.35050  0.56810  0.66670  Biso   1.000  C
  C9       1.0000 0.36370  0.53760  0.53860  Biso   1.000  C
  H4       1.0000 0.27690  0.55310  0.52200  Biso   1.000  H
  C10      1.0000 0.42280  0.53900  0.61270  Biso   1.000  C
  C11      1.0000 0.55320  0.51470  0.63880  Biso   1.000  C
  H5       1.0000 0.59260  0.51620  0.68920  Biso   1.000  H
  C12      1.0000 0.62320  0.48850  0.59050  Biso   1.000  C
  H6       1.0000 0.70820  0.47140  0.60830  Biso   1.000  H
  C13      1.0000 0.43490  0.51220  0.48600  Biso   1.000  C
  C14      1.0000 0.60240  0.70970  0.84420  Biso   1.000  C
  C15      1.0000 0.71690  0.72190  0.91070  Biso   1.000  C
  C16      1.0000 0.70580  0.70280  0.97990  Biso   1.000  C
  H7       1.0000 0.62890  0.68160  0.98540  Biso   1.000  H
  C17      1.0000 0.81120  0.71500  0.04370  Biso   1.000  C
  C18      1.0000 0.80370  0.69560  0.11540  Biso   1.000  C
  H8       1.0000 0.72790  0.67400  0.12180  Biso   1.000  H
  C19      1.0000 0.90520  0.70770  0.17560  Biso   1.000  C
  H9       1.0000 0.89830  0.69430  0.22240  Biso   1.000  H
  C20      1.0000 0.02160  0.74090  0.16670  Biso   1.000  C
  C21      1.0000 0.03120  0.76030  0.09830  Biso   1.000  C
  H10      1.0000 0.10730  0.78230  0.09310  Biso   1.000  H
  C22      1.0000 0.92710  0.74780  0.03390  Biso   1.000  C
  C23      1.0000 0.93620  0.76740  0.96180  Biso   1.000  C
  H11      1.0000 0.01190  0.78900  0.95530  Biso   1.000  H
  C24      1.0000 0.83370  0.75440  0.90210  Biso   1.000  C
  H12      1.0000 0.84080  0.76710  0.85510  Biso   1.000  H
  Zn2      1.0000 0.65157  0.15082  0.71394  Biso   1.000  Zn
  O9       1.0000 0.64320  0.02900  0.61630  Biso   1.000  O
  O10      1.0000 0.76130  0.11577  0.65020  Biso   1.000  O
  O11      1.0000 0.86940  0.23040  0.20520  Biso   1.000  O
  O12      1.0000 0.77000  0.28911  0.27780  Biso   1.000  O
  O13      1.0000 0.77250  0.05910  0.83990  Biso   1.000  O
  O14      1.0000 0.57530  0.10080  0.78256  Biso   1.000  O
  O15      1.0000 0.38380  0.22447  0.71850  Biso   1.000  O
  O16      1.0000 0.50130  0.18466  0.64060  Biso   1.000  O
  C25      1.0000 0.73650  0.06570  0.61320  Biso   1.000  C
  C26      1.0000 0.89940  0.10000  0.53650  Biso   1.000  C
  H13      1.0000 0.87750  0.14130  0.54440  Biso   1.000  H
  C27      1.0000 0.83330  0.05020  0.56500  Biso   1.000  C
  C28      1.0000 0.86520  0.98970  0.55320  Biso   1.000  C
  H14      1.0000 0.81940  0.95740  0.57050  Biso   1.000  H
  C29      1.0000 0.96760  0.97520  0.51450  Biso   1.000  C
  C30      1.0000 0.99520  0.08710  0.49750  Biso   1.000  C
  H15      1.0000 0.03680  0.12000  0.47840  Biso   1.000  H
  C31      1.0000 0.86580  0.25450  0.26590  Biso   1.000  C
  C32      1.0000 0.64950  0.06810  0.83330  Biso   1.000  C
  C33      1.0000 0.63630  0.03760  0.96140  Biso   1.000  C
  H16      1.0000 0.72310  0.05310  0.97800  Biso   1.000  H
  C34      1.0000 0.57720  0.03900  0.88730  Biso   1.000  C
  C35      1.0000 0.44680  0.01470  0.86120  Biso   1.000  C
  H17      1.0000 0.40740  0.01620  0.81080  Biso   1.000  H
  C36      1.0000 0.37680  0.98850  0.90950  Biso   1.000  C
  H18      1.0000 0.29180  0.97140  0.89170  Biso   1.000  H
  C37      1.0000 0.56510  0.01220  0.01400  Biso   1.000  C
  C38      1.0000 0.39760  0.20970  0.65580  Biso   1.000  C
  C39      1.0000 0.28310  0.22190  0.58930  Biso   1.000  C
  C40      1.0000 0.29420  0.20280  0.52010  Biso   1.000  C
  H19      1.0000 0.37110  0.18160  0.51460  Biso   1.000  H
  C41      1.0000 0.18880  0.21500  0.45630  Biso   1.000  C
  C42      1.0000 0.19630  0.19560  0.38460  Biso   1.000  C
  H20      1.0000 0.27210  0.17400  0.37820  Biso   1.000  H
  C43      1.0000 0.09480  0.20770  0.32440  Biso   1.000  C
  H21      1.0000 0.10170  0.19430  0.27760  Biso   1.000  H
  C44      1.0000 0.97840  0.24090  0.33330  Biso   1.000  C
  C45      1.0000 0.96880  0.26030  0.40170  Biso   1.000  C
  H22      1.0000 0.89270  0.28230  0.40690  Biso   1.000  H
  C46      1.0000 0.07290  0.24780  0.46610  Biso   1.000  C
  C47      1.0000 0.06380  0.26740  0.53820  Biso   1.000  C
  H23      1.0000 0.98810  0.28900  0.54470  Biso   1.000  H
  C48      1.0000 0.16630  0.25440  0.59790  Biso   1.000  C
  H24      1.0000 0.15920  0.26710  0.64490  Biso   1.000  H
  Zn3      1.0000 0.65157  0.34918  0.21394  Biso   1.000  Zn
  O17      1.0000 0.64320  0.47100  0.11630  Biso   1.000  O
  O18      1.0000 0.76130  0.38423  0.15020  Biso   1.000  O
  O19      1.0000 0.86940  0.26960  0.70520  Biso   1.000  O
  O20      1.0000 0.77000  0.21089  0.77780  Biso   1.000  O
  O21      1.0000 0.77250  0.44090  0.33990  Biso   1.000  O
  O22      1.0000 0.57530  0.39920  0.28256  Biso   1.000  O
  O23      1.0000 0.38380  0.27553  0.21850  Biso   1.000  O
  O24      1.0000 0.50130  0.31534  0.14060  Biso   1.000  O
  C49      1.0000 0.73650  0.43430  0.11320  Biso   1.000  C
  C50      1.0000 0.89940  0.40000  0.03650  Biso   1.000  C
  H25      1.0000 0.87750  0.35870  0.04440  Biso   1.000  H
  C51      1.0000 0.83330  0.44980  0.06500  Biso   1.000  C
  C52      1.0000 0.86520  0.51030  0.05320  Biso   1.000  C
  H26      1.0000 0.81940  0.54260  0.07050  Biso   1.000  H
  C53      1.0000 0.96760  0.52480  0.01450  Biso   1.000  C
  C54      1.0000 0.99520  0.41290  0.99750  Biso   1.000  C
  H27      1.0000 0.03680  0.38000  0.97840  Biso   1.000  H
  C55      1.0000 0.86580  0.24550  0.76590  Biso   1.000  C
  C56      1.0000 0.64950  0.43190  0.33330  Biso   1.000  C
  C57      1.0000 0.63630  0.46240  0.46140  Biso   1.000  C
  H28      1.0000 0.72310  0.44690  0.47800  Biso   1.000  H
  C58      1.0000 0.57720  0.46100  0.38730  Biso   1.000  C
  C59      1.0000 0.44680  0.48530  0.36120  Biso   1.000  C
  H29      1.0000 0.40740  0.48380  0.31080  Biso   1.000  H
  C60      1.0000 0.37680  0.51150  0.40950  Biso   1.000  C
  H30      1.0000 0.29180  0.52860  0.39170  Biso   1.000  H
  C61      1.0000 0.56510  0.48780  0.51400  Biso   1.000  C
  C62      1.0000 0.39760  0.29030  0.15580  Biso   1.000  C
  C63      1.0000 0.28310  0.27810  0.08930  Biso   1.000  C
  C64      1.0000 0.29420  0.29720  0.02010  Biso   1.000  C
  H31      1.0000 0.37110  0.31840  0.01460  Biso   1.000  H
  C65      1.0000 0.18880  0.28500  0.95630  Biso   1.000  C
  C66      1.0000 0.19630  0.30440  0.88460  Biso   1.000  C
  H32      1.0000 0.27210  0.32600  0.87820  Biso   1.000  H
  C67      1.0000 0.09480  0.29230  0.82440  Biso   1.000  C
  H33      1.0000 0.10170  0.30570  0.77760  Biso   1.000  H
  C68      1.0000 0.97840  0.25910  0.83330  Biso   1.000  C
  C69      1.0000 0.96880  0.23970  0.90170  Biso   1.000  C
  H34      1.0000 0.89270  0.21770  0.90690  Biso   1.000  H
  C70      1.0000 0.07290  0.25220  0.96610  Biso   1.000  C
  C71      1.0000 0.06380  0.23260  0.03820  Biso   1.000  C
  H35      1.0000 0.98810  0.21100  0.04470  Biso   1.000  H
  C72      1.0000 0.16630  0.24560  0.09790  Biso   1.000  C
  H36      1.0000 0.15920  0.23290  0.14490  Biso   1.000  H
  Zn4      1.0000 0.34843  0.84918  0.28606  Biso   1.000  Zn
  O25      1.0000 0.35680  0.97100  0.38370  Biso   1.000  O
  O26      1.0000 0.23870  0.88423  0.34980  Biso   1.000  O
  O27      1.0000 0.13060  0.76960  0.79480  Biso   1.000  O
  O28      1.0000 0.23000  0.71089  0.72220  Biso   1.000  O
  O29      1.0000 0.22750  0.94090  0.16010  Biso   1.000  O
  O30      1.0000 0.42470  0.89920  0.21744  Biso   1.000  O
  O31      1.0000 0.61620  0.77553  0.28150  Biso   1.000  O
  O32      1.0000 0.49870  0.81534  0.35940  Biso   1.000  O
  C73      1.0000 0.26350  0.93430  0.38680  Biso   1.000  C
  C74      1.0000 0.10060  0.90000  0.46350  Biso   1.000  C
  H37      1.0000 0.12250  0.85870  0.45560  Biso   1.000  H
  C75      1.0000 0.16670  0.94980  0.43500  Biso   1.000  C
  C76      1.0000 0.13480  0.01030  0.44680  Biso   1.000  C
  H38      1.0000 0.18060  0.04260  0.42950  Biso   1.000  H
  C77      1.0000 0.03240  0.02480  0.48550  Biso   1.000  C
  C78      1.0000 0.00480  0.91290  0.50250  Biso   1.000  C
  H39      1.0000 0.96320  0.88000  0.52160  Biso   1.000  H
  C79      1.0000 0.13420  0.74550  0.73410  Biso   1.000  C
  C80      1.0000 0.35050  0.93190  0.16670  Biso   1.000  C
  C81      1.0000 0.36370  0.96240  0.03860  Biso   1.000  C
  H40      1.0000 0.27690  0.94690  0.02200  Biso   1.000  H
  C82      1.0000 0.42280  0.96100  0.11270  Biso   1.000  C
  C83      1.0000 0.55320  0.98530  0.13880  Biso   1.000  C
  H41      1.0000 0.59260  0.98380  0.18920  Biso   1.000  H
  C84      1.0000 0.62320  0.01150  0.09050  Biso   1.000  C
  H42      1.0000 0.70820  0.02860  0.10830  Biso   1.000  H
  C85      1.0000 0.43490  0.98780  0.98600  Biso   1.000  C
  C86      1.0000 0.60240  0.79030  0.34420  Biso   1.000  C
  C87      1.0000 0.71690  0.77810  0.41070  Biso   1.000  C
  C88      1.0000 0.70580  0.79720  0.47990  Biso   1.000  C
  H43      1.0000 0.62890  0.81840  0.48540  Biso   1.000  H
  C89      1.0000 0.81120  0.78500  0.54370  Biso   1.000  C
  C90      1.0000 0.80370  0.80440  0.61540  Biso   1.000  C
  H44      1.0000 0.72790  0.82600  0.62180  Biso   1.000  H
  C91      1.0000 0.90520  0.79230  0.67560  Biso   1.000  C
  H45      1.0000 0.89830  0.80570  0.72240  Biso   1.000  H
  C92      1.0000 0.02160  0.75910  0.66670  Biso   1.000  C
  C93      1.0000 0.03120  0.73970  0.59830  Biso   1.000  C
  H46      1.0000 0.10730  0.71770  0.59310  Biso   1.000  H
  C94      1.0000 0.92710  0.75220  0.53390  Biso   1.000  C
  C95      1.0000 0.93620  0.73260  0.46180  Biso   1.000  C
  H47      1.0000 0.01190  0.71100  0.45530  Biso   1.000  H
  C96      1.0000 0.83370  0.74560  0.40210  Biso   1.000  C
  H48      1.0000 0.84080  0.73290  0.35510  Biso   1.000  H
