data_ESEQUO_clean
_audit_creation_date              2014-07-02
_audit_creation_method            'Materials Studio'
_symmetry_space_group_name_H-M    'P1'
_symmetry_Int_Tables_number       1
_symmetry_cell_setting            triclinic
loop_
_symmetry_equiv_pos_as_xyz
  x,y,z
_cell_length_a                    9.9780
_cell_length_b                    11.2230
_cell_length_c                    11.2830
_cell_angle_alpha                 102.2600
_cell_angle_beta                  113.5200
_cell_angle_gamma                 92.7300
loop_
_atom_site_label
_atom_site_type_symbol
_atom_site_fract_x
_atom_site_fract_y
_atom_site_fract_z
_atom_site_U_iso_or_equiv
_atom_site_adp_type
_atom_site_occupancy
Co1    Co    0.16449   0.31664   0.24362   0.01267  Uiso   1.00
Co2    Co    0.83551   0.68336   0.75638   0.01267  Uiso   1.00
Co3    Co    0.50000   0.50000   0.50000   0.01267  Uiso   1.00
H1     H     0.32640   0.82230   0.39100   0.01267  Uiso   1.00
H2     H     0.72430   0.99530   0.67700   0.01267  Uiso   1.00
H3     H     0.17590   0.59700   0.50870   0.01267  Uiso   1.00
H4     H     0.20570   0.61660   0.38710   0.01267  Uiso   1.00
H5     H     0.95280   0.57490   0.31490   0.01267  Uiso   1.00
H6     H     0.96750   0.45560   0.36830   0.01267  Uiso   1.00
H7     H     0.16650   0.16420   0.67400   0.01267  Uiso   1.00
H8     H     0.90730   0.01380   0.27610   0.01267  Uiso   1.00
H9     H     0.35480   0.41600   0.76870   0.01267  Uiso   1.00
H10    H     0.73120   0.62170   0.07410   0.01267  Uiso   1.00
H11    H     0.67360   0.17770   0.60900   0.01267  Uiso   1.00
H12    H     0.27570   0.00470   0.32300   0.01267  Uiso   1.00
H13    H     0.82410   0.40300   0.49130   0.01267  Uiso   1.00
H14    H     0.79430   0.38340   0.61290   0.01267  Uiso   1.00
H15    H     0.04720   0.42510   0.68510   0.01267  Uiso   1.00
H16    H     0.03250   0.54440   0.63170   0.01267  Uiso   1.00
H17    H     0.83350   0.83580   0.32600   0.01267  Uiso   1.00
H18    H     0.09270   0.98620   0.72390   0.01267  Uiso   1.00
H19    H     0.64520   0.58400   0.23130   0.01267  Uiso   1.00
H20    H     0.26880   0.37830   0.92590   0.01267  Uiso   1.00
C1     C     0.39980   0.89690   0.43730   0.01267  Uiso   1.00
C2     C     0.63010   0.99640   0.60290   0.01267  Uiso   1.00
C3     C     0.52950   0.89260   0.54040   0.01267  Uiso   1.00
C4     C     0.56310   0.77480   0.58090   0.01267  Uiso   1.00
C5     C     0.16850   0.55630   0.42090   0.01267  Uiso   1.00
C6     C     0.00900   0.50700   0.32850   0.01267  Uiso   1.00
C7     C     0.09370   0.21880   0.43850   0.01267  Uiso   1.00
C8     C     0.04300   0.10560   0.46990   0.01267  Uiso   1.00
C9     C     0.09730   0.09610   0.60180   0.01267  Uiso   1.00
C10    C     0.94580   0.00820   0.36910   0.01267  Uiso   1.00
C11    C     0.60380   0.54620   0.80600   0.01267  Uiso   1.00
C12    C     0.55220   0.52120   0.90770   0.01267  Uiso   1.00
C13    C     0.41530   0.45050   0.86440   0.01267  Uiso   1.00
C14    C     0.63530   0.57080   0.04320   0.01267  Uiso   1.00
C15    C     0.60020   0.10310   0.56270   0.01267  Uiso   1.00
C16    C     0.36990   0.00360   0.39710   0.01267  Uiso   1.00
C17    C     0.47050   0.10740   0.45960   0.01267  Uiso   1.00
C18    C     0.43690   0.22520   0.41910   0.01267  Uiso   1.00
C19    C     0.83150   0.44370   0.57910   0.01267  Uiso   1.00
C20    C     0.99100   0.49300   0.67150   0.01267  Uiso   1.00
C21    C     0.90630   0.78120   0.56150   0.01267  Uiso   1.00
C22    C     0.95700   0.89440   0.53010   0.01267  Uiso   1.00
C23    C     0.90270   0.90390   0.39820   0.01267  Uiso   1.00
C24    C     0.05420   0.99180   0.63090   0.01267  Uiso   1.00
C25    C     0.39620   0.45380   0.19400   0.01267  Uiso   1.00
C26    C     0.44780   0.47880   0.09230   0.01267  Uiso   1.00
C27    C     0.58470   0.54950   0.13560   0.01267  Uiso   1.00
C28    C     0.36470   0.42920   0.95680   0.01267  Uiso   1.00
O1     O     0.48220   0.67780   0.50080   0.01267  Uiso   1.00
O2     O     0.50870   0.52470   0.68880   0.01267  Uiso   1.00
O3     O     0.25660   0.45750   0.43150   0.01267  Uiso   1.00
O4     O     0.99900   0.43600   0.20260   0.01267  Uiso   1.00
O5     O     0.17960   0.30520   0.53440   0.01267  Uiso   1.00
O6     O     0.04830   0.21910   0.31670   0.01267  Uiso   1.00
O7     O     0.73910   0.58780   0.84710   0.01267  Uiso   1.00
O8     O     0.66920   0.78300   0.69230   0.01267  Uiso   1.00
O9     O     0.51780   0.32220   0.49920   0.01267  Uiso   1.00
O10    O     0.49130   0.47530   0.31120   0.01267  Uiso   1.00
O11    O     0.74340   0.54250   0.56850   0.01267  Uiso   1.00
O12    O     0.00100   0.56400   0.79740   0.01267  Uiso   1.00
O13    O     0.82040   0.69480   0.46560   0.01267  Uiso   1.00
O14    O     0.95170   0.78090   0.68330   0.01267  Uiso   1.00
O15    O     0.26090   0.41220   0.15290   0.01267  Uiso   1.00
O16    O     0.33080   0.21700   0.30770   0.01267  Uiso   1.00
