data_image0
_cell_length_a       18.8175
_cell_length_b       18.8175
_cell_length_c       19.0483
_cell_angle_alpha    90
_cell_angle_beta     90
_cell_angle_gamma    120

_symmetry_space_group_name_H-M    "P 1"
_symmetry_int_tables_number       1

loop_
  _symmetry_equiv_pos_as_xyz
  'x, y, z'

loop_
  _atom_site_label
  _atom_site_occupancy
  _atom_site_fract_x
  _atom_site_fract_y
  _atom_site_fract_z
  _atom_site_thermal_displace_type
  _atom_site_B_iso_or_equiv
  _atom_site_type_symbol
  Cd1      1.0000 0.67081  0.05418  0.37694  Biso   1.000  Cd
  N1       1.0000 0.68890  0.06490  0.25837  Biso   1.000  N
  N2       1.0000 0.57020  0.07140  0.33504  Biso   1.000  N
  C1       1.0000 0.61940  0.05680  0.22524  Biso   1.000  C
  C2       1.0000 0.73330  0.05490  0.20889  Biso   1.000  C
  C3       1.0000 0.55770  0.06400  0.26800  Biso   1.000  C
  H1       1.0000 0.52900  0.07500  0.36000  Biso   1.000  H
  C4       1.0000 0.62580  0.04090  0.15491  Biso   1.000  C
  N3       1.0000 0.69800  0.04060  0.14545  Biso   1.000  N
  C5       1.0000 0.81540  0.06450  0.22180  Biso   1.000  C
  O1       1.0000 0.49690  0.06300  0.23535  Biso   1.000  O
  C6       1.0000 0.57240  0.02380  0.09151  Biso   1.000  C
  H2       1.0000 0.82700  0.04700  0.18700  Biso   1.000  H
  H3       1.0000 0.81900  0.04100  0.26100  Biso   1.000  H
  H4       1.0000 0.87800  0.13200  0.22500  Biso   1.000  H
  O2       1.0000 0.59590  0.00830  0.03460  Biso   1.000  O
  N4       1.0000 0.50410  0.02500  0.09720  Biso   1.000  N
  H5       1.0000 0.47500  0.00300  0.14000  Biso   1.000  H
  H6       1.0000 0.47200  0.00700  0.06700  Biso   1.000  H
  Cd2      1.0000 0.33748  0.38751  0.71027  Biso   1.000  Cd
  N5       1.0000 0.35557  0.39823  0.59170  Biso   1.000  N
  N6       1.0000 0.23687  0.40473  0.66837  Biso   1.000  N
  C7       1.0000 0.28607  0.39013  0.55857  Biso   1.000  C
  C8       1.0000 0.39997  0.38823  0.54222  Biso   1.000  C
  C9       1.0000 0.22437  0.39733  0.60133  Biso   1.000  C
  H7       1.0000 0.19567  0.40833  0.69333  Biso   1.000  H
  C10      1.0000 0.29247  0.37423  0.48824  Biso   1.000  C
  N7       1.0000 0.36467  0.37393  0.47878  Biso   1.000  N
  C11      1.0000 0.48207  0.39783  0.55513  Biso   1.000  C
  O3       1.0000 0.16357  0.39633  0.56868  Biso   1.000  O
  C12      1.0000 0.23907  0.35713  0.42484  Biso   1.000  C
  H8       1.0000 0.49367  0.38033  0.52033  Biso   1.000  H
  H9       1.0000 0.48567  0.37433  0.59433  Biso   1.000  H
  H10      1.0000 0.54467  0.46533  0.55833  Biso   1.000  H
  O4       1.0000 0.26257  0.34163  0.36793  Biso   1.000  O
  N8       1.0000 0.17077  0.35833  0.43053  Biso   1.000  N
  H11      1.0000 0.14167  0.33633  0.47333  Biso   1.000  H
  H12      1.0000 0.13867  0.34033  0.40033  Biso   1.000  H
  Cd3      1.0000 0.00414  0.72085  0.04361  Biso   1.000  Cd
  N9       1.0000 0.02223  0.73157  0.92504  Biso   1.000  N
  N10      1.0000 0.90353  0.73807  0.00171  Biso   1.000  N
  C13      1.0000 0.95273  0.72347  0.89191  Biso   1.000  C
  C14      1.0000 0.06663  0.72157  0.87556  Biso   1.000  C
  C15      1.0000 0.89103  0.73067  0.93467  Biso   1.000  C
  H13      1.0000 0.86233  0.74167  0.02667  Biso   1.000  H
  C16      1.0000 0.95913  0.70757  0.82158  Biso   1.000  C
  N11      1.0000 0.03133  0.70727  0.81212  Biso   1.000  N
  C17      1.0000 0.14873  0.73117  0.88847  Biso   1.000  C
  O5       1.0000 0.83023  0.72967  0.90202  Biso   1.000  O
  C18      1.0000 0.90573  0.69047  0.75818  Biso   1.000  C
  H14      1.0000 0.16033  0.71367  0.85367  Biso   1.000  H
  H15      1.0000 0.15233  0.70767  0.92767  Biso   1.000  H
  H16      1.0000 0.21133  0.79867  0.89167  Biso   1.000  H
  O6       1.0000 0.92923  0.67497  0.70127  Biso   1.000  O
  N12      1.0000 0.83743  0.69167  0.76387  Biso   1.000  N
  H17      1.0000 0.80833  0.66967  0.80667  Biso   1.000  H
  H18      1.0000 0.80533  0.67367  0.73367  Biso   1.000  H
  Cd4      1.0000 0.94582  0.61663  0.37694  Biso   1.000  Cd
  N13      1.0000 0.93510  0.62400  0.25837  Biso   1.000  N
  N14      1.0000 0.92860  0.49880  0.33504  Biso   1.000  N
  C19      1.0000 0.94320  0.56260  0.22524  Biso   1.000  C
  C20      1.0000 0.94510  0.67840  0.20889  Biso   1.000  C
  C21      1.0000 0.93600  0.49370  0.26800  Biso   1.000  C
  H19      1.0000 0.92500  0.45400  0.36000  Biso   1.000  H
  C22      1.0000 0.95910  0.58490  0.15491  Biso   1.000  C
  N15      1.0000 0.95940  0.65740  0.14545  Biso   1.000  N
  C23      1.0000 0.93550  0.75090  0.22180  Biso   1.000  C
  O7       1.0000 0.93700  0.43390  0.23535  Biso   1.000  O
  C24      1.0000 0.97620  0.54860  0.09151  Biso   1.000  C
  H20      1.0000 0.95300  0.78000  0.18700  Biso   1.000  H
  H21      1.0000 0.95900  0.77800  0.26100  Biso   1.000  H
  H22      1.0000 0.86800  0.74600  0.22500  Biso   1.000  H
  O8       1.0000 0.99170  0.58760  0.03460  Biso   1.000  O
  N16      1.0000 0.97500  0.47910  0.09720  Biso   1.000  N
  H23      1.0000 0.99700  0.47200  0.14000  Biso   1.000  H
  H24      1.0000 0.99300  0.46500  0.06700  Biso   1.000  H
  Cd5      1.0000 0.61249  0.94996  0.71027  Biso   1.000  Cd
  N17      1.0000 0.60177  0.95733  0.59170  Biso   1.000  N
  N18      1.0000 0.59527  0.83213  0.66837  Biso   1.000  N
  C25      1.0000 0.60987  0.89593  0.55857  Biso   1.000  C
  C26      1.0000 0.61177  0.01173  0.54222  Biso   1.000  C
  C27      1.0000 0.60267  0.82703  0.60133  Biso   1.000  C
  H25      1.0000 0.59167  0.78733  0.69333  Biso   1.000  H
  C28      1.0000 0.62577  0.91823  0.48824  Biso   1.000  C
  N19      1.0000 0.62607  0.99073  0.47878  Biso   1.000  N
  C29      1.0000 0.60217  0.08423  0.55513  Biso   1.000  C
  O9       1.0000 0.60367  0.76723  0.56868  Biso   1.000  O
  C30      1.0000 0.64287  0.88193  0.42484  Biso   1.000  C
  H26      1.0000 0.61967  0.11333  0.52033  Biso   1.000  H
  H27      1.0000 0.62567  0.11133  0.59433  Biso   1.000  H
  H28      1.0000 0.53467  0.07933  0.55833  Biso   1.000  H
  O10      1.0000 0.65837  0.92093  0.36793  Biso   1.000  O
  N20      1.0000 0.64167  0.81243  0.43053  Biso   1.000  N
  H29      1.0000 0.66367  0.80533  0.47333  Biso   1.000  H
  H30      1.0000 0.65967  0.79833  0.40033  Biso   1.000  H
  Cd6      1.0000 0.27915  0.28330  0.04361  Biso   1.000  Cd
  N21      1.0000 0.26843  0.29067  0.92504  Biso   1.000  N
  N22      1.0000 0.26193  0.16547  0.00171  Biso   1.000  N
  C31      1.0000 0.27653  0.22927  0.89191  Biso   1.000  C
  C32      1.0000 0.27843  0.34507  0.87556  Biso   1.000  C
  C33      1.0000 0.26933  0.16037  0.93467  Biso   1.000  C
  H31      1.0000 0.25833  0.12067  0.02667  Biso   1.000  H
  C34      1.0000 0.29243  0.25157  0.82158  Biso   1.000  C
  N23      1.0000 0.29273  0.32407  0.81212  Biso   1.000  N
  C35      1.0000 0.26883  0.41757  0.88847  Biso   1.000  C
  O11      1.0000 0.27033  0.10057  0.90202  Biso   1.000  O
  C36      1.0000 0.30953  0.21527  0.75818  Biso   1.000  C
  H32      1.0000 0.28633  0.44667  0.85367  Biso   1.000  H
  H33      1.0000 0.29233  0.44467  0.92767  Biso   1.000  H
  H34      1.0000 0.20133  0.41267  0.89167  Biso   1.000  H
  O12      1.0000 0.32503  0.25427  0.70127  Biso   1.000  O
  N24      1.0000 0.30833  0.14577  0.76387  Biso   1.000  N
  H35      1.0000 0.33033  0.13867  0.80667  Biso   1.000  H
  H36      1.0000 0.32633  0.13167  0.73367  Biso   1.000  H
  Cd7      1.0000 0.38337  0.32919  0.37694  Biso   1.000  Cd
  N25      1.0000 0.37600  0.31110  0.25837  Biso   1.000  N
  N26      1.0000 0.50120  0.42980  0.33504  Biso   1.000  N
  C37      1.0000 0.43740  0.38060  0.22524  Biso   1.000  C
  C38      1.0000 0.32160  0.26670  0.20889  Biso   1.000  C
  C39      1.0000 0.50630  0.44230  0.26800  Biso   1.000  C
  H37      1.0000 0.54600  0.47100  0.36000  Biso   1.000  H
  C40      1.0000 0.41510  0.37420  0.15491  Biso   1.000  C
  N27      1.0000 0.34260  0.30200  0.14545  Biso   1.000  N
  C41      1.0000 0.24910  0.18460  0.22180  Biso   1.000  C
  O13      1.0000 0.56610  0.50310  0.23535  Biso   1.000  O
  C42      1.0000 0.45140  0.42760  0.09151  Biso   1.000  C
  H38      1.0000 0.22000  0.17300  0.18700  Biso   1.000  H
  H39      1.0000 0.22200  0.18100  0.26100  Biso   1.000  H
  H40      1.0000 0.25400  0.12200  0.22500  Biso   1.000  H
  O14      1.0000 0.41240  0.40410  0.03460  Biso   1.000  O
  N28      1.0000 0.52090  0.49590  0.09720  Biso   1.000  N
  H41      1.0000 0.52800  0.52500  0.14000  Biso   1.000  H
  H42      1.0000 0.53500  0.52800  0.06700  Biso   1.000  H
  Cd8      1.0000 0.05004  0.66252  0.71027  Biso   1.000  Cd
  N29      1.0000 0.04267  0.64443  0.59170  Biso   1.000  N
  N30      1.0000 0.16787  0.76313  0.66837  Biso   1.000  N
  C43      1.0000 0.10407  0.71393  0.55857  Biso   1.000  C
  C44      1.0000 0.98827  0.60003  0.54222  Biso   1.000  C
  C45      1.0000 0.17297  0.77563  0.60133  Biso   1.000  C
  H43      1.0000 0.21267  0.80433  0.69333  Biso   1.000  H
  C46      1.0000 0.08177  0.70753  0.48824  Biso   1.000  C
  N31      1.0000 0.00927  0.63533  0.47878  Biso   1.000  N
  C47      1.0000 0.91577  0.51793  0.55513  Biso   1.000  C
  O15      1.0000 0.23277  0.83643  0.56868  Biso   1.000  O
  C48      1.0000 0.11807  0.76093  0.42484  Biso   1.000  C
  H44      1.0000 0.88667  0.50633  0.52033  Biso   1.000  H
  H45      1.0000 0.88867  0.51433  0.59433  Biso   1.000  H
  H46      1.0000 0.92067  0.45533  0.55833  Biso   1.000  H
  O16      1.0000 0.07907  0.73743  0.36793  Biso   1.000  O
  N32      1.0000 0.18757  0.82923  0.43053  Biso   1.000  N
  H47      1.0000 0.19467  0.85833  0.47333  Biso   1.000  H
  H48      1.0000 0.20167  0.86133  0.40033  Biso   1.000  H
  Cd9      1.0000 0.71670  0.99586  0.04361  Biso   1.000  Cd
  N33      1.0000 0.70933  0.97777  0.92504  Biso   1.000  N
  N34      1.0000 0.83453  0.09647  0.00171  Biso   1.000  N
  C49      1.0000 0.77073  0.04727  0.89191  Biso   1.000  C
  C50      1.0000 0.65493  0.93337  0.87556  Biso   1.000  C
  C51      1.0000 0.83963  0.10897  0.93467  Biso   1.000  C
  H49      1.0000 0.87933  0.13767  0.02667  Biso   1.000  H
  C52      1.0000 0.74843  0.04087  0.82158  Biso   1.000  C
  N35      1.0000 0.67593  0.96867  0.81212  Biso   1.000  N
  C53      1.0000 0.58243  0.85127  0.88847  Biso   1.000  C
  O17      1.0000 0.89943  0.16977  0.90202  Biso   1.000  O
  C54      1.0000 0.78473  0.09427  0.75818  Biso   1.000  C
  H50      1.0000 0.55333  0.83967  0.85367  Biso   1.000  H
  H51      1.0000 0.55533  0.84767  0.92767  Biso   1.000  H
  H52      1.0000 0.58733  0.78867  0.89167  Biso   1.000  H
  O18      1.0000 0.74573  0.07077  0.70127  Biso   1.000  O
  N36      1.0000 0.85423  0.16257  0.76387  Biso   1.000  N
  H53      1.0000 0.86133  0.19167  0.80667  Biso   1.000  H
  H54      1.0000 0.86833  0.19467  0.73367  Biso   1.000  H
  Cd10     1.0000 0.32919  0.94582  0.62306  Biso   1.000  Cd
  N37      1.0000 0.31110  0.93510  0.74163  Biso   1.000  N
  N38      1.0000 0.42980  0.92860  0.66496  Biso   1.000  N
  C55      1.0000 0.38060  0.94320  0.77476  Biso   1.000  C
  C56      1.0000 0.26670  0.94510  0.79111  Biso   1.000  C
  C57      1.0000 0.44230  0.93600  0.73200  Biso   1.000  C
  H55      1.0000 0.47100  0.92500  0.64000  Biso   1.000  H
  C58      1.0000 0.37420  0.95910  0.84509  Biso   1.000  C
  N39      1.0000 0.30200  0.95940  0.85455  Biso   1.000  N
  C59      1.0000 0.18460  0.93550  0.77820  Biso   1.000  C
  O19      1.0000 0.50310  0.93700  0.76465  Biso   1.000  O
  C60      1.0000 0.42760  0.97620  0.90849  Biso   1.000  C
  H56      1.0000 0.17300  0.95300  0.81300  Biso   1.000  H
  H57      1.0000 0.18100  0.95900  0.73900  Biso   1.000  H
  H58      1.0000 0.12200  0.86800  0.77500  Biso   1.000  H
  O20      1.0000 0.40410  0.99170  0.96540  Biso   1.000  O
  N40      1.0000 0.49590  0.97500  0.90280  Biso   1.000  N
  H59      1.0000 0.52500  0.99700  0.86000  Biso   1.000  H
  H60      1.0000 0.52800  0.99300  0.93300  Biso   1.000  H
  Cd11     1.0000 0.99586  0.27915  0.95639  Biso   1.000  Cd
  N41      1.0000 0.97777  0.26843  0.07496  Biso   1.000  N
  N42      1.0000 0.09647  0.26193  0.99829  Biso   1.000  N
  C61      1.0000 0.04727  0.27653  0.10809  Biso   1.000  C
  C62      1.0000 0.93337  0.27843  0.12444  Biso   1.000  C
  C63      1.0000 0.10897  0.26933  0.06533  Biso   1.000  C
  H61      1.0000 0.13767  0.25833  0.97333  Biso   1.000  H
  C64      1.0000 0.04087  0.29243  0.17842  Biso   1.000  C
  N43      1.0000 0.96867  0.29273  0.18788  Biso   1.000  N
  C65      1.0000 0.85127  0.26883  0.11153  Biso   1.000  C
  O21      1.0000 0.16977  0.27033  0.09798  Biso   1.000  O
  C66      1.0000 0.09427  0.30953  0.24182  Biso   1.000  C
  H62      1.0000 0.83967  0.28633  0.14633  Biso   1.000  H
  H63      1.0000 0.84767  0.29233  0.07233  Biso   1.000  H
  H64      1.0000 0.78867  0.20133  0.10833  Biso   1.000  H
  O22      1.0000 0.07077  0.32503  0.29873  Biso   1.000  O
  N44      1.0000 0.16257  0.30833  0.23613  Biso   1.000  N
  H65      1.0000 0.19167  0.33033  0.19333  Biso   1.000  H
  H66      1.0000 0.19467  0.32633  0.26633  Biso   1.000  H
  Cd12     1.0000 0.66252  0.61249  0.28973  Biso   1.000  Cd
  N45      1.0000 0.64443  0.60177  0.40830  Biso   1.000  N
  N46      1.0000 0.76313  0.59527  0.33163  Biso   1.000  N
  C67      1.0000 0.71393  0.60987  0.44143  Biso   1.000  C
  C68      1.0000 0.60003  0.61177  0.45778  Biso   1.000  C
  C69      1.0000 0.77563  0.60267  0.39867  Biso   1.000  C
  H67      1.0000 0.80433  0.59167  0.30667  Biso   1.000  H
  C70      1.0000 0.70753  0.62577  0.51176  Biso   1.000  C
  N47      1.0000 0.63533  0.62607  0.52122  Biso   1.000  N
  C71      1.0000 0.51793  0.60217  0.44487  Biso   1.000  C
  O23      1.0000 0.83643  0.60367  0.43132  Biso   1.000  O
  C72      1.0000 0.76093  0.64287  0.57516  Biso   1.000  C
  H68      1.0000 0.50633  0.61967  0.47967  Biso   1.000  H
  H69      1.0000 0.51433  0.62567  0.40567  Biso   1.000  H
  H70      1.0000 0.45533  0.53467  0.44167  Biso   1.000  H
  O24      1.0000 0.73743  0.65837  0.63207  Biso   1.000  O
  N48      1.0000 0.82923  0.64167  0.56947  Biso   1.000  N
  H71      1.0000 0.85833  0.66367  0.52667  Biso   1.000  H
  H72      1.0000 0.86133  0.65967  0.59967  Biso   1.000  H
  Cd13     1.0000 0.05418  0.38337  0.62306  Biso   1.000  Cd
  N49      1.0000 0.06490  0.37600  0.74163  Biso   1.000  N
  N50      1.0000 0.07140  0.50120  0.66496  Biso   1.000  N
  C73      1.0000 0.05680  0.43740  0.77476  Biso   1.000  C
  C74      1.0000 0.05490  0.32160  0.79111  Biso   1.000  C
  C75      1.0000 0.06400  0.50630  0.73200  Biso   1.000  C
  H73      1.0000 0.07500  0.54600  0.64000  Biso   1.000  H
  C76      1.0000 0.04090  0.41510  0.84509  Biso   1.000  C
  N51      1.0000 0.04060  0.34260  0.85455  Biso   1.000  N
  C77      1.0000 0.06450  0.24910  0.77820  Biso   1.000  C
  O25      1.0000 0.06300  0.56610  0.76465  Biso   1.000  O
  C78      1.0000 0.02380  0.45140  0.90849  Biso   1.000  C
  H74      1.0000 0.04700  0.22000  0.81300  Biso   1.000  H
  H75      1.0000 0.04100  0.22200  0.73900  Biso   1.000  H
  H76      1.0000 0.13200  0.25400  0.77500  Biso   1.000  H
  O26      1.0000 0.00830  0.41240  0.96540  Biso   1.000  O
  N52      1.0000 0.02500  0.52090  0.90280  Biso   1.000  N
  H77      1.0000 0.00300  0.52800  0.86000  Biso   1.000  H
  H78      1.0000 0.00700  0.53500  0.93300  Biso   1.000  H
  Cd14     1.0000 0.72085  0.71670  0.95639  Biso   1.000  Cd
  N53      1.0000 0.73157  0.70933  0.07496  Biso   1.000  N
  N54      1.0000 0.73807  0.83453  0.99829  Biso   1.000  N
  C79      1.0000 0.72347  0.77073  0.10809  Biso   1.000  C
  C80      1.0000 0.72157  0.65493  0.12444  Biso   1.000  C
  C81      1.0000 0.73067  0.83963  0.06533  Biso   1.000  C
  H79      1.0000 0.74167  0.87933  0.97333  Biso   1.000  H
  C82      1.0000 0.70757  0.74843  0.17842  Biso   1.000  C
  N55      1.0000 0.70727  0.67593  0.18788  Biso   1.000  N
  C83      1.0000 0.73117  0.58243  0.11153  Biso   1.000  C
  O27      1.0000 0.72967  0.89943  0.09798  Biso   1.000  O
  C84      1.0000 0.69047  0.78473  0.24182  Biso   1.000  C
  H80      1.0000 0.71367  0.55333  0.14633  Biso   1.000  H
  H81      1.0000 0.70767  0.55533  0.07233  Biso   1.000  H
  H82      1.0000 0.79867  0.58733  0.10833  Biso   1.000  H
  O28      1.0000 0.67497  0.74573  0.29873  Biso   1.000  O
  N56      1.0000 0.69167  0.85423  0.23613  Biso   1.000  N
  H83      1.0000 0.66967  0.86133  0.19333  Biso   1.000  H
  H84      1.0000 0.67367  0.86833  0.26633  Biso   1.000  H
  Cd15     1.0000 0.38751  0.05004  0.28973  Biso   1.000  Cd
  N57      1.0000 0.39823  0.04267  0.40830  Biso   1.000  N
  N58      1.0000 0.40473  0.16787  0.33163  Biso   1.000  N
  C85      1.0000 0.39013  0.10407  0.44143  Biso   1.000  C
  C86      1.0000 0.38823  0.98827  0.45778  Biso   1.000  C
  C87      1.0000 0.39733  0.17297  0.39867  Biso   1.000  C
  H85      1.0000 0.40833  0.21267  0.30667  Biso   1.000  H
  C88      1.0000 0.37423  0.08177  0.51176  Biso   1.000  C
  N59      1.0000 0.37393  0.00927  0.52122  Biso   1.000  N
  C89      1.0000 0.39783  0.91577  0.44487  Biso   1.000  C
  O29      1.0000 0.39633  0.23277  0.43132  Biso   1.000  O
  C90      1.0000 0.35713  0.11807  0.57516  Biso   1.000  C
  H86      1.0000 0.38033  0.88667  0.47967  Biso   1.000  H
  H87      1.0000 0.37433  0.88867  0.40567  Biso   1.000  H
  H88      1.0000 0.46533  0.92067  0.44167  Biso   1.000  H
  O30      1.0000 0.34163  0.07907  0.63207  Biso   1.000  O
  N60      1.0000 0.35833  0.18757  0.56947  Biso   1.000  N
  H89      1.0000 0.33633  0.19467  0.52667  Biso   1.000  H
  H90      1.0000 0.34033  0.20167  0.59967  Biso   1.000  H
  Cd16     1.0000 0.61663  0.67081  0.62306  Biso   1.000  Cd
  N61      1.0000 0.62400  0.68890  0.74163  Biso   1.000  N
  N62      1.0000 0.49880  0.57020  0.66496  Biso   1.000  N
  C91      1.0000 0.56260  0.61940  0.77476  Biso   1.000  C
  C92      1.0000 0.67840  0.73330  0.79111  Biso   1.000  C
  C93      1.0000 0.49370  0.55770  0.73200  Biso   1.000  C
  H91      1.0000 0.45400  0.52900  0.64000  Biso   1.000  H
  C94      1.0000 0.58490  0.62580  0.84509  Biso   1.000  C
  N63      1.0000 0.65740  0.69800  0.85455  Biso   1.000  N
  C95      1.0000 0.75090  0.81540  0.77820  Biso   1.000  C
  O31      1.0000 0.43390  0.49690  0.76465  Biso   1.000  O
  C96      1.0000 0.54860  0.57240  0.90849  Biso   1.000  C
  H92      1.0000 0.78000  0.82700  0.81300  Biso   1.000  H
  H93      1.0000 0.77800  0.81900  0.73900  Biso   1.000  H
  H94      1.0000 0.74600  0.87800  0.77500  Biso   1.000  H
  O32      1.0000 0.58760  0.59590  0.96540  Biso   1.000  O
  N64      1.0000 0.47910  0.50410  0.90280  Biso   1.000  N
  H95      1.0000 0.47200  0.47500  0.86000  Biso   1.000  H
  H96      1.0000 0.46500  0.47200  0.93300  Biso   1.000  H
  Cd17     1.0000 0.28330  0.00414  0.95639  Biso   1.000  Cd
  N65      1.0000 0.29067  0.02223  0.07496  Biso   1.000  N
  N66      1.0000 0.16547  0.90353  0.99829  Biso   1.000  N
  C97      1.0000 0.22927  0.95273  0.10809  Biso   1.000  C
  C98      1.0000 0.34507  0.06663  0.12444  Biso   1.000  C
  C99      1.0000 0.16037  0.89103  0.06533  Biso   1.000  C
  H97      1.0000 0.12067  0.86233  0.97333  Biso   1.000  H
  C100     1.0000 0.25157  0.95913  0.17842  Biso   1.000  C
  N67      1.0000 0.32407  0.03133  0.18788  Biso   1.000  N
  C101     1.0000 0.41757  0.14873  0.11153  Biso   1.000  C
  O33      1.0000 0.10057  0.83023  0.09798  Biso   1.000  O
  C102     1.0000 0.21527  0.90573  0.24182  Biso   1.000  C
  H98      1.0000 0.44667  0.16033  0.14633  Biso   1.000  H
  H99      1.0000 0.44467  0.15233  0.07233  Biso   1.000  H
  H100     1.0000 0.41267  0.21133  0.10833  Biso   1.000  H
  O34      1.0000 0.25427  0.92923  0.29873  Biso   1.000  O
  N68      1.0000 0.14577  0.83743  0.23613  Biso   1.000  N
  H101     1.0000 0.13867  0.80833  0.19333  Biso   1.000  H
  H102     1.0000 0.13167  0.80533  0.26633  Biso   1.000  H
  Cd18     1.0000 0.94996  0.33748  0.28973  Biso   1.000  Cd
  N69      1.0000 0.95733  0.35557  0.40830  Biso   1.000  N
  N70      1.0000 0.83213  0.23687  0.33163  Biso   1.000  N
  C103     1.0000 0.89593  0.28607  0.44143  Biso   1.000  C
  C104     1.0000 0.01173  0.39997  0.45778  Biso   1.000  C
  C105     1.0000 0.82703  0.22437  0.39867  Biso   1.000  C
  H103     1.0000 0.78733  0.19567  0.30667  Biso   1.000  H
  C106     1.0000 0.91823  0.29247  0.51176  Biso   1.000  C
  N71      1.0000 0.99073  0.36467  0.52122  Biso   1.000  N
  C107     1.0000 0.08423  0.48207  0.44487  Biso   1.000  C
  O35      1.0000 0.76723  0.16357  0.43132  Biso   1.000  O
  C108     1.0000 0.88193  0.23907  0.57516  Biso   1.000  C
  H104     1.0000 0.11333  0.49367  0.47967  Biso   1.000  H
  H105     1.0000 0.11133  0.48567  0.40567  Biso   1.000  H
  H106     1.0000 0.07933  0.54467  0.44167  Biso   1.000  H
  O36      1.0000 0.92093  0.26257  0.63207  Biso   1.000  O
  N72      1.0000 0.81243  0.17077  0.56947  Biso   1.000  N
  H107     1.0000 0.80533  0.14167  0.52667  Biso   1.000  H
  H108     1.0000 0.79833  0.13867  0.59967  Biso   1.000  H
