data_image0
_cell_length_a       9.974
_cell_length_b       9.1804
_cell_length_c       27.5385
_cell_angle_alpha    90
_cell_angle_beta     90
_cell_angle_gamma    90

_symmetry_space_group_name_H-M    "P 1"
_symmetry_int_tables_number       1

loop_
  _symmetry_equiv_pos_as_xyz
  'x, y, z'

loop_
  _atom_site_label
  _atom_site_occupancy
  _atom_site_fract_x
  _atom_site_fract_y
  _atom_site_fract_z
  _atom_site_thermal_displace_type
  _atom_site_B_iso_or_equiv
  _atom_site_type_symbol
  Zn1      1.0000 0.62128  0.32750  0.05796  Biso   1.000  Zn
  Zn2      1.0000 0.43416  0.67979  0.96054  Biso   1.000  Zn
  P1       1.0000 0.72228  0.57882  0.98473  Biso   1.000  P
  P2       1.0000 0.32699  0.41845  0.03494  Biso   1.000  P
  O1       1.0000 0.62160  0.69980  0.97481  Biso   1.000  O
  O2       1.0000 0.69920  0.50250  0.03279  Biso   1.000  O
  O3       1.0000 0.86480  0.63380  0.98406  Biso   1.000  O
  O4       1.0000 0.70690  0.45940  0.94419  Biso   1.000  O
  H1       1.0000 0.66470  0.49330  0.92120  Biso   1.000  H
  O5       1.0000 0.43830  0.30560  0.04014  Biso   1.000  O
  O6       1.0000 0.19140  0.35130  0.02861  Biso   1.000  O
  O7       1.0000 0.34960  0.52130  0.99314  Biso   1.000  O
  O8       1.0000 0.32470  0.51300  0.08314  Biso   1.000  O
  H2       1.0000 0.31260  0.45950  0.10660  Biso   1.000  H
  O9       1.0000 0.63230  0.36050  0.12794  Biso   1.000  O
  O10      1.0000 0.60590  0.34500  0.39213  Biso   1.000  O
  O11      1.0000 0.77980  0.19660  0.15260  Biso   1.000  O
  O12      1.0000 0.42380  0.45850  0.36508  Biso   1.000  O
  C1       1.0000 0.69550  0.29530  0.16010  Biso   1.000  C
  C2       1.0000 0.66320  0.33490  0.21210  Biso   1.000  C
  C3       1.0000 0.72970  0.27060  0.25010  Biso   1.000  C
  H3       1.0000 0.80040  0.20760  0.24350  Biso   1.000  H
  C4       1.0000 0.69470  0.29660  0.29740  Biso   1.000  C
  H4       1.0000 0.74450  0.25580  0.32260  Biso   1.000  H
  C5       1.0000 0.58590  0.38340  0.30770  Biso   1.000  C
  C6       1.0000 0.51840  0.45190  0.26980  Biso   1.000  C
  H5       1.0000 0.44700  0.51390  0.27650  Biso   1.000  H
  C7       1.0000 0.55760  0.42790  0.22270  Biso   1.000  C
  H6       1.0000 0.51260  0.47460  0.19750  Biso   1.000  H
  C8       1.0000 0.53390  0.39890  0.35890  Biso   1.000  C
  Zn3      1.0000 0.37872  0.67250  0.55796  Biso   1.000  Zn
  Zn4      1.0000 0.56584  0.32021  0.46054  Biso   1.000  Zn
  P3       1.0000 0.27772  0.42118  0.48473  Biso   1.000  P
  P4       1.0000 0.67301  0.58155  0.53494  Biso   1.000  P
  O13      1.0000 0.37840  0.30020  0.47481  Biso   1.000  O
  O14      1.0000 0.30080  0.49750  0.53279  Biso   1.000  O
  O15      1.0000 0.13520  0.36620  0.48406  Biso   1.000  O
  O16      1.0000 0.29310  0.54060  0.44419  Biso   1.000  O
  H7       1.0000 0.33530  0.50670  0.42120  Biso   1.000  H
  O17      1.0000 0.56170  0.69440  0.54014  Biso   1.000  O
  O18      1.0000 0.80860  0.64870  0.52861  Biso   1.000  O
  O19      1.0000 0.65040  0.47870  0.49314  Biso   1.000  O
  O20      1.0000 0.67530  0.48700  0.58314  Biso   1.000  O
  H8       1.0000 0.68740  0.54050  0.60660  Biso   1.000  H
  O21      1.0000 0.36770  0.63950  0.62794  Biso   1.000  O
  O22      1.0000 0.39410  0.65500  0.89213  Biso   1.000  O
  O23      1.0000 0.22020  0.80340  0.65260  Biso   1.000  O
  O24      1.0000 0.57620  0.54150  0.86508  Biso   1.000  O
  C9       1.0000 0.30450  0.70470  0.66010  Biso   1.000  C
  C10      1.0000 0.33680  0.66510  0.71210  Biso   1.000  C
  C11      1.0000 0.27030  0.72940  0.75010  Biso   1.000  C
  H9       1.0000 0.19960  0.79240  0.74350  Biso   1.000  H
  C12      1.0000 0.30530  0.70340  0.79740  Biso   1.000  C
  H10      1.0000 0.25550  0.74420  0.82260  Biso   1.000  H
  C13      1.0000 0.41410  0.61660  0.80770  Biso   1.000  C
  C14      1.0000 0.48160  0.54810  0.76980  Biso   1.000  C
  H11      1.0000 0.55300  0.48610  0.77650  Biso   1.000  H
  C15      1.0000 0.44240  0.57210  0.72270  Biso   1.000  C
  H12      1.0000 0.48740  0.52540  0.69750  Biso   1.000  H
  C16      1.0000 0.46610  0.60110  0.85890  Biso   1.000  C
  Zn5      1.0000 0.12128  0.17250  0.05796  Biso   1.000  Zn
  Zn6      1.0000 0.93416  0.82021  0.96054  Biso   1.000  Zn
  P5       1.0000 0.22228  0.92118  0.98473  Biso   1.000  P
  P6       1.0000 0.82699  0.08155  0.03494  Biso   1.000  P
  O25      1.0000 0.12160  0.80020  0.97481  Biso   1.000  O
  O26      1.0000 0.19920  0.99750  0.03279  Biso   1.000  O
  O27      1.0000 0.36480  0.86620  0.98406  Biso   1.000  O
  O28      1.0000 0.20690  0.04060  0.94419  Biso   1.000  O
  H13      1.0000 0.16470  0.00670  0.92120  Biso   1.000  H
  O29      1.0000 0.93830  0.19440  0.04014  Biso   1.000  O
  O30      1.0000 0.69140  0.14870  0.02861  Biso   1.000  O
  O31      1.0000 0.84960  0.97870  0.99314  Biso   1.000  O
  O32      1.0000 0.82470  0.98700  0.08314  Biso   1.000  O
  H14      1.0000 0.81260  0.04050  0.10660  Biso   1.000  H
  O33      1.0000 0.13230  0.13950  0.12794  Biso   1.000  O
  O34      1.0000 0.10590  0.15500  0.39213  Biso   1.000  O
  O35      1.0000 0.27980  0.30340  0.15260  Biso   1.000  O
  O36      1.0000 0.92380  0.04150  0.36508  Biso   1.000  O
  C17      1.0000 0.19550  0.20470  0.16010  Biso   1.000  C
  C18      1.0000 0.16320  0.16510  0.21210  Biso   1.000  C
  C19      1.0000 0.22970  0.22940  0.25010  Biso   1.000  C
  H15      1.0000 0.30040  0.29240  0.24350  Biso   1.000  H
  C20      1.0000 0.19470  0.20340  0.29740  Biso   1.000  C
  H16      1.0000 0.24450  0.24420  0.32260  Biso   1.000  H
  C21      1.0000 0.08590  0.11660  0.30770  Biso   1.000  C
  C22      1.0000 0.01840  0.04810  0.26980  Biso   1.000  C
  H17      1.0000 0.94700  0.98610  0.27650  Biso   1.000  H
  C23      1.0000 0.05760  0.07210  0.22270  Biso   1.000  C
  H18      1.0000 0.01260  0.02540  0.19750  Biso   1.000  H
  C24      1.0000 0.03390  0.10110  0.35890  Biso   1.000  C
  Zn7      1.0000 0.87872  0.82750  0.55796  Biso   1.000  Zn
  Zn8      1.0000 0.06584  0.17979  0.46054  Biso   1.000  Zn
  P7       1.0000 0.77772  0.07882  0.48473  Biso   1.000  P
  P8       1.0000 0.17301  0.91845  0.53494  Biso   1.000  P
  O37      1.0000 0.87840  0.19980  0.47481  Biso   1.000  O
  O38      1.0000 0.80080  0.00250  0.53279  Biso   1.000  O
  O39      1.0000 0.63520  0.13380  0.48406  Biso   1.000  O
  O40      1.0000 0.79310  0.95940  0.44419  Biso   1.000  O
  H19      1.0000 0.83530  0.99330  0.42120  Biso   1.000  H
  O41      1.0000 0.06170  0.80560  0.54014  Biso   1.000  O
  O42      1.0000 0.30860  0.85130  0.52861  Biso   1.000  O
  O43      1.0000 0.15040  0.02130  0.49314  Biso   1.000  O
  O44      1.0000 0.17530  0.01300  0.58314  Biso   1.000  O
  H20      1.0000 0.18740  0.95950  0.60660  Biso   1.000  H
  O45      1.0000 0.86770  0.86050  0.62794  Biso   1.000  O
  O46      1.0000 0.89410  0.84500  0.89213  Biso   1.000  O
  O47      1.0000 0.72020  0.69660  0.65260  Biso   1.000  O
  O48      1.0000 0.07620  0.95850  0.86508  Biso   1.000  O
  C25      1.0000 0.80450  0.79530  0.66010  Biso   1.000  C
  C26      1.0000 0.83680  0.83490  0.71210  Biso   1.000  C
  C27      1.0000 0.77030  0.77060  0.75010  Biso   1.000  C
  H21      1.0000 0.69960  0.70760  0.74350  Biso   1.000  H
  C28      1.0000 0.80530  0.79660  0.79740  Biso   1.000  C
  H22      1.0000 0.75550  0.75580  0.82260  Biso   1.000  H
  C29      1.0000 0.91410  0.88340  0.80770  Biso   1.000  C
  C30      1.0000 0.98160  0.95190  0.76980  Biso   1.000  C
  H23      1.0000 0.05300  0.01390  0.77650  Biso   1.000  H
  C31      1.0000 0.94240  0.92790  0.72270  Biso   1.000  C
  H24      1.0000 0.98740  0.97460  0.69750  Biso   1.000  H
  C32      1.0000 0.96610  0.89890  0.85890  Biso   1.000  C
