data_image0
_cell_length_a       17.8491
_cell_length_b       12.6534
_cell_length_c       11.1984
_cell_angle_alpha    90
_cell_angle_beta     94.865
_cell_angle_gamma    90

_symmetry_space_group_name_H-M    "P 1"
_symmetry_int_tables_number       1

loop_
  _symmetry_equiv_pos_as_xyz
  'x, y, z'

loop_
  _atom_site_label
  _atom_site_occupancy
  _atom_site_fract_x
  _atom_site_fract_y
  _atom_site_fract_z
  _atom_site_thermal_displace_type
  _atom_site_B_iso_or_equiv
  _atom_site_type_symbol
  Co1      1.0000 0.42123  0.55902  0.50044  Biso   1.000  Co
  N1       1.0000 0.87397  0.93480  0.16210  Biso   1.000  N
  N2       1.0000 0.91073  0.98300  0.25580  Biso   1.000  N
  N3       1.0000 0.87738  0.97050  0.35590  Biso   1.000  N
  C1       1.0000 0.81170  0.88750  0.20510  Biso   1.000  C
  C2       1.0000 0.81490  0.91040  0.32790  Biso   1.000  C
  C3       1.0000 0.75980  0.87310  0.40030  Biso   1.000  C
  H1       1.0000 0.76210  0.88790  0.48280  Biso   1.000  H
  C4       1.0000 0.70300  0.81440  0.34500  Biso   1.000  C
  H2       1.0000 0.66550  0.78800  0.39110  Biso   1.000  H
  C5       1.0000 0.69830  0.79150  0.22020  Biso   1.000  C
  C6       1.0000 0.75280  0.82700  0.14920  Biso   1.000  C
  H3       1.0000 0.75050  0.81130  0.06690  Biso   1.000  H
  C7       1.0000 0.63310  0.72600  0.16860  Biso   1.000  C
  O1       1.0000 0.52009  0.58010  0.43200  Biso   1.000  O
  H4       1.0000 0.54300  0.64100  0.46500  Biso   1.000  H
  O2       1.0000 0.63617  0.68970  0.06330  Biso   1.000  O
  O3       1.0000 0.58104  0.71170  0.23490  Biso   1.000  O
  Co2      1.0000 0.92123  0.05902  0.50044  Biso   1.000  Co
  N4       1.0000 0.37397  0.43480  0.16210  Biso   1.000  N
  N5       1.0000 0.41073  0.48300  0.25580  Biso   1.000  N
  N6       1.0000 0.37738  0.47050  0.35590  Biso   1.000  N
  C8       1.0000 0.31170  0.38750  0.20510  Biso   1.000  C
  C9       1.0000 0.31490  0.41040  0.32790  Biso   1.000  C
  C10      1.0000 0.25980  0.37310  0.40030  Biso   1.000  C
  H5       1.0000 0.26210  0.38790  0.48280  Biso   1.000  H
  C11      1.0000 0.20300  0.31440  0.34500  Biso   1.000  C
  H6       1.0000 0.16550  0.28800  0.39110  Biso   1.000  H
  C12      1.0000 0.19830  0.29150  0.22020  Biso   1.000  C
  C13      1.0000 0.25280  0.32700  0.14920  Biso   1.000  C
  H7       1.0000 0.25050  0.31130  0.06690  Biso   1.000  H
  C14      1.0000 0.13310  0.22600  0.16860  Biso   1.000  C
  O4       1.0000 0.02009  0.08010  0.43200  Biso   1.000  O
  H8       1.0000 0.04300  0.14100  0.46500  Biso   1.000  H
  O5       1.0000 0.13617  0.18970  0.06330  Biso   1.000  O
  O6       1.0000 0.08104  0.21170  0.23490  Biso   1.000  O
  Co3      1.0000 0.57877  0.55902  0.99956  Biso   1.000  Co
  N7       1.0000 0.12603  0.93480  0.33790  Biso   1.000  N
  N8       1.0000 0.08927  0.98300  0.24420  Biso   1.000  N
  N9       1.0000 0.12262  0.97050  0.14410  Biso   1.000  N
  C15      1.0000 0.18830  0.88750  0.29490  Biso   1.000  C
  C16      1.0000 0.18510  0.91040  0.17210  Biso   1.000  C
  C17      1.0000 0.24020  0.87310  0.09970  Biso   1.000  C
  H9       1.0000 0.23790  0.88790  0.01720  Biso   1.000  H
  C18      1.0000 0.29700  0.81440  0.15500  Biso   1.000  C
  H10      1.0000 0.33450  0.78800  0.10890  Biso   1.000  H
  C19      1.0000 0.30170  0.79150  0.27980  Biso   1.000  C
  C20      1.0000 0.24720  0.82700  0.35080  Biso   1.000  C
  H11      1.0000 0.24950  0.81130  0.43310  Biso   1.000  H
  C21      1.0000 0.36690  0.72600  0.33140  Biso   1.000  C
  O7       1.0000 0.47991  0.58010  0.06800  Biso   1.000  O
  H12      1.0000 0.45700  0.64100  0.03500  Biso   1.000  H
  O8       1.0000 0.36383  0.68970  0.43670  Biso   1.000  O
  O9       1.0000 0.41896  0.71170  0.26510  Biso   1.000  O
  Co4      1.0000 0.07877  0.05902  0.99956  Biso   1.000  Co
  N10      1.0000 0.62603  0.43480  0.33790  Biso   1.000  N
  N11      1.0000 0.58927  0.48300  0.24420  Biso   1.000  N
  N12      1.0000 0.62262  0.47050  0.14410  Biso   1.000  N
  C22      1.0000 0.68830  0.38750  0.29490  Biso   1.000  C
  C23      1.0000 0.68510  0.41040  0.17210  Biso   1.000  C
  C24      1.0000 0.74020  0.37310  0.09970  Biso   1.000  C
  H13      1.0000 0.73790  0.38790  0.01720  Biso   1.000  H
  C25      1.0000 0.79700  0.31440  0.15500  Biso   1.000  C
  H14      1.0000 0.83450  0.28800  0.10890  Biso   1.000  H
  C26      1.0000 0.80170  0.29150  0.27980  Biso   1.000  C
  C27      1.0000 0.74720  0.32700  0.35080  Biso   1.000  C
  H15      1.0000 0.74950  0.31130  0.43310  Biso   1.000  H
  C28      1.0000 0.86690  0.22600  0.33140  Biso   1.000  C
  O10      1.0000 0.97991  0.08010  0.06800  Biso   1.000  O
  H16      1.0000 0.95700  0.14100  0.03500  Biso   1.000  H
  O11      1.0000 0.86383  0.18970  0.43670  Biso   1.000  O
  O12      1.0000 0.91896  0.21170  0.26510  Biso   1.000  O
  Co5      1.0000 0.57877  0.44098  0.49956  Biso   1.000  Co
  N13      1.0000 0.12603  0.06520  0.83790  Biso   1.000  N
  N14      1.0000 0.08927  0.01700  0.74420  Biso   1.000  N
  N15      1.0000 0.12262  0.02950  0.64410  Biso   1.000  N
  C29      1.0000 0.18830  0.11250  0.79490  Biso   1.000  C
  C30      1.0000 0.18510  0.08960  0.67210  Biso   1.000  C
  C31      1.0000 0.24020  0.12690  0.59970  Biso   1.000  C
  H17      1.0000 0.23790  0.11210  0.51720  Biso   1.000  H
  C32      1.0000 0.29700  0.18560  0.65500  Biso   1.000  C
  H18      1.0000 0.33450  0.21200  0.60890  Biso   1.000  H
  C33      1.0000 0.30170  0.20850  0.77980  Biso   1.000  C
  C34      1.0000 0.24720  0.17300  0.85080  Biso   1.000  C
  H19      1.0000 0.24950  0.18870  0.93310  Biso   1.000  H
  C35      1.0000 0.36690  0.27400  0.83140  Biso   1.000  C
  O13      1.0000 0.47991  0.41990  0.56800  Biso   1.000  O
  H20      1.0000 0.45700  0.35900  0.53500  Biso   1.000  H
  O14      1.0000 0.36383  0.31030  0.93670  Biso   1.000  O
  O15      1.0000 0.41896  0.28830  0.76510  Biso   1.000  O
  Co6      1.0000 0.07877  0.94098  0.49956  Biso   1.000  Co
  N16      1.0000 0.62603  0.56520  0.83790  Biso   1.000  N
  N17      1.0000 0.58927  0.51700  0.74420  Biso   1.000  N
  N18      1.0000 0.62262  0.52950  0.64410  Biso   1.000  N
  C36      1.0000 0.68830  0.61250  0.79490  Biso   1.000  C
  C37      1.0000 0.68510  0.58960  0.67210  Biso   1.000  C
  C38      1.0000 0.74020  0.62690  0.59970  Biso   1.000  C
  H21      1.0000 0.73790  0.61210  0.51720  Biso   1.000  H
  C39      1.0000 0.79700  0.68560  0.65500  Biso   1.000  C
  H22      1.0000 0.83450  0.71200  0.60890  Biso   1.000  H
  C40      1.0000 0.80170  0.70850  0.77980  Biso   1.000  C
  C41      1.0000 0.74720  0.67300  0.85080  Biso   1.000  C
  H23      1.0000 0.74950  0.68870  0.93310  Biso   1.000  H
  C42      1.0000 0.86690  0.77400  0.83140  Biso   1.000  C
  O16      1.0000 0.97991  0.91990  0.56800  Biso   1.000  O
  H24      1.0000 0.95700  0.85900  0.53500  Biso   1.000  H
  O17      1.0000 0.86383  0.81030  0.93670  Biso   1.000  O
  O18      1.0000 0.91896  0.78830  0.76510  Biso   1.000  O
  Co7      1.0000 0.42123  0.44098  0.00044  Biso   1.000  Co
  N19      1.0000 0.87397  0.06520  0.66210  Biso   1.000  N
  N20      1.0000 0.91073  0.01700  0.75580  Biso   1.000  N
  N21      1.0000 0.87738  0.02950  0.85590  Biso   1.000  N
  C43      1.0000 0.81170  0.11250  0.70510  Biso   1.000  C
  C44      1.0000 0.81490  0.08960  0.82790  Biso   1.000  C
  C45      1.0000 0.75980  0.12690  0.90030  Biso   1.000  C
  H25      1.0000 0.76210  0.11210  0.98280  Biso   1.000  H
  C46      1.0000 0.70300  0.18560  0.84500  Biso   1.000  C
  H26      1.0000 0.66550  0.21200  0.89110  Biso   1.000  H
  C47      1.0000 0.69830  0.20850  0.72020  Biso   1.000  C
  C48      1.0000 0.75280  0.17300  0.64920  Biso   1.000  C
  H27      1.0000 0.75050  0.18870  0.56690  Biso   1.000  H
  C49      1.0000 0.63310  0.27400  0.66860  Biso   1.000  C
  O19      1.0000 0.52009  0.41990  0.93200  Biso   1.000  O
  H28      1.0000 0.54300  0.35900  0.96500  Biso   1.000  H
  O20      1.0000 0.63617  0.31030  0.56330  Biso   1.000  O
  O21      1.0000 0.58104  0.28830  0.73490  Biso   1.000  O
  Co8      1.0000 0.92123  0.94098  0.00044  Biso   1.000  Co
  N22      1.0000 0.37397  0.56520  0.66210  Biso   1.000  N
  N23      1.0000 0.41073  0.51700  0.75580  Biso   1.000  N
  N24      1.0000 0.37738  0.52950  0.85590  Biso   1.000  N
  C50      1.0000 0.31170  0.61250  0.70510  Biso   1.000  C
  C51      1.0000 0.31490  0.58960  0.82790  Biso   1.000  C
  C52      1.0000 0.25980  0.62690  0.90030  Biso   1.000  C
  H29      1.0000 0.26210  0.61210  0.98280  Biso   1.000  H
  C53      1.0000 0.20300  0.68560  0.84500  Biso   1.000  C
  H30      1.0000 0.16550  0.71200  0.89110  Biso   1.000  H
  C54      1.0000 0.19830  0.70850  0.72020  Biso   1.000  C
  C55      1.0000 0.25280  0.67300  0.64920  Biso   1.000  C
  H31      1.0000 0.25050  0.68870  0.56690  Biso   1.000  H
  C56      1.0000 0.13310  0.77400  0.66860  Biso   1.000  C
  O22      1.0000 0.02009  0.91990  0.93200  Biso   1.000  O
  H32      1.0000 0.04300  0.85900  0.96500  Biso   1.000  H
  O23      1.0000 0.13617  0.81030  0.56330  Biso   1.000  O
  O24      1.0000 0.08104  0.78830  0.73490  Biso   1.000  O
  Co9      1.0000 0.50000  0.59553  0.25000  Biso   1.000  Co
  Co10     1.0000 0.00000  0.09553  0.25000  Biso   1.000  Co
  Co11     1.0000 0.50000  0.40447  0.75000  Biso   1.000  Co
  Co12     1.0000 0.00000  0.90447  0.75000  Biso   1.000  Co
