data_image0
_cell_length_a       17.8524
_cell_length_b       12.6177
_cell_length_c       11.1881
_cell_angle_alpha    90
_cell_angle_beta     94.8199
_cell_angle_gamma    90

_symmetry_space_group_name_H-M    "P 1"
_symmetry_int_tables_number       1

loop_
  _symmetry_equiv_pos_as_xyz
  'x, y, z'

loop_
  _atom_site_label
  _atom_site_occupancy
  _atom_site_fract_x
  _atom_site_fract_y
  _atom_site_fract_z
  _atom_site_thermal_displace_type
  _atom_site_B_iso_or_equiv
  _atom_site_type_symbol
  Co1      1.0000 0.42134  0.55927  0.50055  Biso   1.000  Co
  N1       1.0000 0.87396  0.93470  0.16240  Biso   1.000  N
  N2       1.0000 0.91092  0.98310  0.25600  Biso   1.000  N
  N3       1.0000 0.87723  0.97030  0.35630  Biso   1.000  N
  C1       1.0000 0.81180  0.88760  0.20530  Biso   1.000  C
  C2       1.0000 0.81480  0.91090  0.32810  Biso   1.000  C
  C3       1.0000 0.75980  0.87350  0.40070  Biso   1.000  C
  H1       1.0000 0.76220  0.88830  0.48330  Biso   1.000  H
  C4       1.0000 0.70270  0.81480  0.34520  Biso   1.000  C
  H2       1.0000 0.66510  0.78850  0.39110  Biso   1.000  H
  C5       1.0000 0.69840  0.79200  0.22030  Biso   1.000  C
  C6       1.0000 0.75300  0.82740  0.14910  Biso   1.000  C
  H3       1.0000 0.75080  0.81180  0.06670  Biso   1.000  H
  C7       1.0000 0.63300  0.72660  0.16830  Biso   1.000  C
  O1       1.0000 0.52029  0.58060  0.43190  Biso   1.000  O
  H4       1.0000 0.54500  0.64000  0.46700  Biso   1.000  H
  O2       1.0000 0.63584  0.69030  0.06290  Biso   1.000  O
  O3       1.0000 0.58098  0.71240  0.23500  Biso   1.000  O
  Co2      1.0000 0.92134  0.05927  0.50055  Biso   1.000  Co
  N4       1.0000 0.37396  0.43470  0.16240  Biso   1.000  N
  N5       1.0000 0.41092  0.48310  0.25600  Biso   1.000  N
  N6       1.0000 0.37723  0.47030  0.35630  Biso   1.000  N
  C8       1.0000 0.31180  0.38760  0.20530  Biso   1.000  C
  C9       1.0000 0.31480  0.41090  0.32810  Biso   1.000  C
  C10      1.0000 0.25980  0.37350  0.40070  Biso   1.000  C
  H5       1.0000 0.26220  0.38830  0.48330  Biso   1.000  H
  C11      1.0000 0.20270  0.31480  0.34520  Biso   1.000  C
  H6       1.0000 0.16510  0.28850  0.39110  Biso   1.000  H
  C12      1.0000 0.19840  0.29200  0.22030  Biso   1.000  C
  C13      1.0000 0.25300  0.32740  0.14910  Biso   1.000  C
  H7       1.0000 0.25080  0.31180  0.06670  Biso   1.000  H
  C14      1.0000 0.13300  0.22660  0.16830  Biso   1.000  C
  O4       1.0000 0.02029  0.08060  0.43190  Biso   1.000  O
  H8       1.0000 0.04500  0.14000  0.46700  Biso   1.000  H
  O5       1.0000 0.13584  0.19030  0.06290  Biso   1.000  O
  O6       1.0000 0.08098  0.21240  0.23500  Biso   1.000  O
  Co3      1.0000 0.57866  0.55927  0.99945  Biso   1.000  Co
  N7       1.0000 0.12604  0.93470  0.33760  Biso   1.000  N
  N8       1.0000 0.08908  0.98310  0.24400  Biso   1.000  N
  N9       1.0000 0.12277  0.97030  0.14370  Biso   1.000  N
  C15      1.0000 0.18820  0.88760  0.29470  Biso   1.000  C
  C16      1.0000 0.18520  0.91090  0.17190  Biso   1.000  C
  C17      1.0000 0.24020  0.87350  0.09930  Biso   1.000  C
  H9       1.0000 0.23780  0.88830  0.01670  Biso   1.000  H
  C18      1.0000 0.29730  0.81480  0.15480  Biso   1.000  C
  H10      1.0000 0.33490  0.78850  0.10890  Biso   1.000  H
  C19      1.0000 0.30160  0.79200  0.27970  Biso   1.000  C
  C20      1.0000 0.24700  0.82740  0.35090  Biso   1.000  C
  H11      1.0000 0.24920  0.81180  0.43330  Biso   1.000  H
  C21      1.0000 0.36700  0.72660  0.33170  Biso   1.000  C
  O7       1.0000 0.47971  0.58060  0.06810  Biso   1.000  O
  H12      1.0000 0.45500  0.64000  0.03300  Biso   1.000  H
  O8       1.0000 0.36416  0.69030  0.43710  Biso   1.000  O
  O9       1.0000 0.41902  0.71240  0.26500  Biso   1.000  O
  Co4      1.0000 0.07866  0.05927  0.99945  Biso   1.000  Co
  N10      1.0000 0.62604  0.43470  0.33760  Biso   1.000  N
  N11      1.0000 0.58908  0.48310  0.24400  Biso   1.000  N
  N12      1.0000 0.62277  0.47030  0.14370  Biso   1.000  N
  C22      1.0000 0.68820  0.38760  0.29470  Biso   1.000  C
  C23      1.0000 0.68520  0.41090  0.17190  Biso   1.000  C
  C24      1.0000 0.74020  0.37350  0.09930  Biso   1.000  C
  H13      1.0000 0.73780  0.38830  0.01670  Biso   1.000  H
  C25      1.0000 0.79730  0.31480  0.15480  Biso   1.000  C
  H14      1.0000 0.83490  0.28850  0.10890  Biso   1.000  H
  C26      1.0000 0.80160  0.29200  0.27970  Biso   1.000  C
  C27      1.0000 0.74700  0.32740  0.35090  Biso   1.000  C
  H15      1.0000 0.74920  0.31180  0.43330  Biso   1.000  H
  C28      1.0000 0.86700  0.22660  0.33170  Biso   1.000  C
  O10      1.0000 0.97971  0.08060  0.06810  Biso   1.000  O
  H16      1.0000 0.95500  0.14000  0.03300  Biso   1.000  H
  O11      1.0000 0.86416  0.19030  0.43710  Biso   1.000  O
  O12      1.0000 0.91902  0.21240  0.26500  Biso   1.000  O
  Co5      1.0000 0.57866  0.44073  0.49945  Biso   1.000  Co
  N13      1.0000 0.12604  0.06530  0.83760  Biso   1.000  N
  N14      1.0000 0.08908  0.01690  0.74400  Biso   1.000  N
  N15      1.0000 0.12277  0.02970  0.64370  Biso   1.000  N
  C29      1.0000 0.18820  0.11240  0.79470  Biso   1.000  C
  C30      1.0000 0.18520  0.08910  0.67190  Biso   1.000  C
  C31      1.0000 0.24020  0.12650  0.59930  Biso   1.000  C
  H17      1.0000 0.23780  0.11170  0.51670  Biso   1.000  H
  C32      1.0000 0.29730  0.18520  0.65480  Biso   1.000  C
  H18      1.0000 0.33490  0.21150  0.60890  Biso   1.000  H
  C33      1.0000 0.30160  0.20800  0.77970  Biso   1.000  C
  C34      1.0000 0.24700  0.17260  0.85090  Biso   1.000  C
  H19      1.0000 0.24920  0.18820  0.93330  Biso   1.000  H
  C35      1.0000 0.36700  0.27340  0.83170  Biso   1.000  C
  O13      1.0000 0.47971  0.41940  0.56810  Biso   1.000  O
  H20      1.0000 0.45500  0.36000  0.53300  Biso   1.000  H
  O14      1.0000 0.36416  0.30970  0.93710  Biso   1.000  O
  O15      1.0000 0.41902  0.28760  0.76500  Biso   1.000  O
  Co6      1.0000 0.07866  0.94073  0.49945  Biso   1.000  Co
  N16      1.0000 0.62604  0.56530  0.83760  Biso   1.000  N
  N17      1.0000 0.58908  0.51690  0.74400  Biso   1.000  N
  N18      1.0000 0.62277  0.52970  0.64370  Biso   1.000  N
  C36      1.0000 0.68820  0.61240  0.79470  Biso   1.000  C
  C37      1.0000 0.68520  0.58910  0.67190  Biso   1.000  C
  C38      1.0000 0.74020  0.62650  0.59930  Biso   1.000  C
  H21      1.0000 0.73780  0.61170  0.51670  Biso   1.000  H
  C39      1.0000 0.79730  0.68520  0.65480  Biso   1.000  C
  H22      1.0000 0.83490  0.71150  0.60890  Biso   1.000  H
  C40      1.0000 0.80160  0.70800  0.77970  Biso   1.000  C
  C41      1.0000 0.74700  0.67260  0.85090  Biso   1.000  C
  H23      1.0000 0.74920  0.68820  0.93330  Biso   1.000  H
  C42      1.0000 0.86700  0.77340  0.83170  Biso   1.000  C
  O16      1.0000 0.97971  0.91940  0.56810  Biso   1.000  O
  H24      1.0000 0.95500  0.86000  0.53300  Biso   1.000  H
  O17      1.0000 0.86416  0.80970  0.93710  Biso   1.000  O
  O18      1.0000 0.91902  0.78760  0.76500  Biso   1.000  O
  Co7      1.0000 0.42134  0.44073  0.00055  Biso   1.000  Co
  N19      1.0000 0.87396  0.06530  0.66240  Biso   1.000  N
  N20      1.0000 0.91092  0.01690  0.75600  Biso   1.000  N
  N21      1.0000 0.87723  0.02970  0.85630  Biso   1.000  N
  C43      1.0000 0.81180  0.11240  0.70530  Biso   1.000  C
  C44      1.0000 0.81480  0.08910  0.82810  Biso   1.000  C
  C45      1.0000 0.75980  0.12650  0.90070  Biso   1.000  C
  H25      1.0000 0.76220  0.11170  0.98330  Biso   1.000  H
  C46      1.0000 0.70270  0.18520  0.84520  Biso   1.000  C
  H26      1.0000 0.66510  0.21150  0.89110  Biso   1.000  H
  C47      1.0000 0.69840  0.20800  0.72030  Biso   1.000  C
  C48      1.0000 0.75300  0.17260  0.64910  Biso   1.000  C
  H27      1.0000 0.75080  0.18820  0.56670  Biso   1.000  H
  C49      1.0000 0.63300  0.27340  0.66830  Biso   1.000  C
  O19      1.0000 0.52029  0.41940  0.93190  Biso   1.000  O
  H28      1.0000 0.54500  0.36000  0.96700  Biso   1.000  H
  O20      1.0000 0.63584  0.30970  0.56290  Biso   1.000  O
  O21      1.0000 0.58098  0.28760  0.73500  Biso   1.000  O
  Co8      1.0000 0.92134  0.94073  0.00055  Biso   1.000  Co
  N22      1.0000 0.37396  0.56530  0.66240  Biso   1.000  N
  N23      1.0000 0.41092  0.51690  0.75600  Biso   1.000  N
  N24      1.0000 0.37723  0.52970  0.85630  Biso   1.000  N
  C50      1.0000 0.31180  0.61240  0.70530  Biso   1.000  C
  C51      1.0000 0.31480  0.58910  0.82810  Biso   1.000  C
  C52      1.0000 0.25980  0.62650  0.90070  Biso   1.000  C
  H29      1.0000 0.26220  0.61170  0.98330  Biso   1.000  H
  C53      1.0000 0.20270  0.68520  0.84520  Biso   1.000  C
  H30      1.0000 0.16510  0.71150  0.89110  Biso   1.000  H
  C54      1.0000 0.19840  0.70800  0.72030  Biso   1.000  C
  C55      1.0000 0.25300  0.67260  0.64910  Biso   1.000  C
  H31      1.0000 0.25080  0.68820  0.56670  Biso   1.000  H
  C56      1.0000 0.13300  0.77340  0.66830  Biso   1.000  C
  O22      1.0000 0.02029  0.91940  0.93190  Biso   1.000  O
  H32      1.0000 0.04500  0.86000  0.96700  Biso   1.000  H
  O23      1.0000 0.13584  0.80970  0.56290  Biso   1.000  O
  O24      1.0000 0.08098  0.78760  0.73500  Biso   1.000  O
  Co9      1.0000 0.50000  0.59577  0.25000  Biso   1.000  Co
  Co10     1.0000 0.00000  0.09577  0.25000  Biso   1.000  Co
  Co11     1.0000 0.50000  0.40423  0.75000  Biso   1.000  Co
  Co12     1.0000 0.00000  0.90423  0.75000  Biso   1.000  Co
