data_image0
_cell_length_a       10.9188
_cell_length_b       10.9634
_cell_length_c       11.0564
_cell_angle_alpha    83.336
_cell_angle_beta     87.083
_cell_angle_gamma    70.191

_symmetry_space_group_name_H-M    "P 1"
_symmetry_int_tables_number       1

loop_
  _symmetry_equiv_pos_as_xyz
  'x, y, z'

loop_
  _atom_site_label
  _atom_site_occupancy
  _atom_site_fract_x
  _atom_site_fract_y
  _atom_site_fract_z
  _atom_site_thermal_displace_type
  _atom_site_B_iso_or_equiv
  _atom_site_type_symbol
  Co1      1.0000 0.09333  0.89525  0.25072  Biso   1.000  Co
  Co2      1.0000 0.85068  0.01668  0.48226  Biso   1.000  Co
  Co3      1.0000 0.97107  0.86351  0.00171  Biso   1.000  Co
  N1       1.0000 0.80030  0.93740  0.33490  Biso   1.000  N
  N2       1.0000 0.88190  0.93200  0.23900  Biso   1.000  N
  N3       1.0000 0.83450  0.90240  0.14090  Biso   1.000  N
  N4       1.0000 0.07620  0.17760  0.16360  Biso   1.000  N
  N5       1.0000 0.09360  0.08640  0.25710  Biso   1.000  N
  N6       1.0000 0.11370  0.12460  0.36110  Biso   1.000  N
  C1       1.0000 0.69580  0.91030  0.29660  Biso   1.000  C
  C2       1.0000 0.71770  0.88910  0.17360  Biso   1.000  C
  C3       1.0000 0.62560  0.86240  0.10560  Biso   1.000  C
  H1       1.0000 0.63960  0.84970  0.02180  Biso   1.000  H
  C4       1.0000 0.51530  0.85550  0.16610  Biso   1.000  C
  H2       1.0000 0.45210  0.83570  0.12360  Biso   1.000  H
  C5       1.0000 0.49270  0.87720  0.29070  Biso   1.000  C
  C6       1.0000 0.58110  0.90500  0.35830  Biso   1.000  C
  H3       1.0000 0.56550  0.91970  0.44150  Biso   1.000  H
  C7       1.0000 0.36430  0.87390  0.34770  Biso   1.000  C
  C8       1.0000 0.08630  0.28580  0.21040  Biso   1.000  C
  C9       1.0000 0.10840  0.25200  0.33500  Biso   1.000  C
  C10      1.0000 0.12110  0.33990  0.41200  Biso   1.000  C
  H4       1.0000 0.13580  0.31640  0.49680  Biso   1.000  H
  C11      1.0000 0.11090  0.46230  0.35720  Biso   1.000  C
  H5       1.0000 0.11810  0.52540  0.40600  Biso   1.000  H
  C12      1.0000 0.09000  0.49740  0.23070  Biso   1.000  C
  C13      1.0000 0.07790  0.41080  0.15540  Biso   1.000  C
  H6       1.0000 0.06440  0.43410  0.07040  Biso   1.000  H
  C14      1.0000 0.08230  0.63410  0.18000  Biso   1.000  C
  O1       1.0000 0.10150  0.92990  0.06660  Biso   1.000  O
  H7       1.0000 0.18200  0.87900  0.03500  Biso   1.000  H
  O2       1.0000 0.04600  0.90020  0.42960  Biso   1.000  O
  H8       1.0000 0.06400  0.81400  0.47000  Biso   1.000  H
  O3       1.0000 0.33770  0.90880  0.45420  Biso   1.000  O
  O4       1.0000 0.29470  0.83520  0.28500  Biso   1.000  O
  O5       1.0000 0.04840  0.67060  0.07020  Biso   1.000  O
  O6       1.0000 0.10810  0.70140  0.25250  Biso   1.000  O
  Co4      1.0000 0.90667  0.10475  0.74928  Biso   1.000  Co
  Co5      1.0000 0.14932  0.98332  0.51774  Biso   1.000  Co
  Co6      1.0000 0.02893  0.13649  0.99829  Biso   1.000  Co
  N7       1.0000 0.19970  0.06260  0.66510  Biso   1.000  N
  N8       1.0000 0.11810  0.06800  0.76100  Biso   1.000  N
  N9       1.0000 0.16550  0.09760  0.85910  Biso   1.000  N
  N10      1.0000 0.92380  0.82240  0.83640  Biso   1.000  N
  N11      1.0000 0.90640  0.91360  0.74290  Biso   1.000  N
  N12      1.0000 0.88630  0.87540  0.63890  Biso   1.000  N
  C15      1.0000 0.30420  0.08970  0.70340  Biso   1.000  C
  C16      1.0000 0.28230  0.11090  0.82640  Biso   1.000  C
  C17      1.0000 0.37440  0.13760  0.89440  Biso   1.000  C
  H9       1.0000 0.36040  0.15030  0.97820  Biso   1.000  H
  C18      1.0000 0.48470  0.14450  0.83390  Biso   1.000  C
  H10      1.0000 0.54790  0.16430  0.87640  Biso   1.000  H
  C19      1.0000 0.50730  0.12280  0.70930  Biso   1.000  C
  C20      1.0000 0.41890  0.09500  0.64170  Biso   1.000  C
  H11      1.0000 0.43450  0.08030  0.55850  Biso   1.000  H
  C21      1.0000 0.63570  0.12610  0.65230  Biso   1.000  C
  C22      1.0000 0.91370  0.71420  0.78960  Biso   1.000  C
  C23      1.0000 0.89160  0.74800  0.66500  Biso   1.000  C
  C24      1.0000 0.87890  0.66010  0.58800  Biso   1.000  C
  H12      1.0000 0.86420  0.68360  0.50320  Biso   1.000  H
  C25      1.0000 0.88910  0.53770  0.64280  Biso   1.000  C
  H13      1.0000 0.88190  0.47460  0.59400  Biso   1.000  H
  C26      1.0000 0.91000  0.50260  0.76930  Biso   1.000  C
  C27      1.0000 0.92210  0.58920  0.84460  Biso   1.000  C
  H14      1.0000 0.93560  0.56590  0.92960  Biso   1.000  H
  C28      1.0000 0.91770  0.36590  0.82000  Biso   1.000  C
  O7       1.0000 0.89850  0.07010  0.93340  Biso   1.000  O
  H15      1.0000 0.81800  0.12100  0.96500  Biso   1.000  H
  O8       1.0000 0.95400  0.09980  0.57040  Biso   1.000  O
  H16      1.0000 0.93600  0.18600  0.53000  Biso   1.000  H
  O9       1.0000 0.66230  0.09120  0.54580  Biso   1.000  O
  O10      1.0000 0.70530  0.16480  0.71500  Biso   1.000  O
  O11      1.0000 0.95160  0.32940  0.92980  Biso   1.000  O
  O12      1.0000 0.89190  0.29860  0.74750  Biso   1.000  O
