data_image0
_cell_length_a       11.0437
_cell_length_b       11.0107
_cell_length_c       11.0222
_cell_angle_alpha    83.364
_cell_angle_beta     85.871
_cell_angle_gamma    77.346

_symmetry_space_group_name_H-M    "P 1"
_symmetry_int_tables_number       1

loop_
  _symmetry_equiv_pos_as_xyz
  'x, y, z'

loop_
  _atom_site_label
  _atom_site_occupancy
  _atom_site_fract_x
  _atom_site_fract_y
  _atom_site_fract_z
  _atom_site_thermal_displace_type
  _atom_site_B_iso_or_equiv
  _atom_site_type_symbol
  Co1      1.0000 0.08690  0.90366  0.25111  Biso   1.000  Co
  Co2      1.0000 0.97180  0.85856  0.00277  Biso   1.000  Co
  Co3      1.0000 0.85370  0.99996  0.48949  Biso   1.000  Co
  O1       1.0000 0.09250  0.94120  0.06590  Biso   1.000  O
  O2       1.0000 0.04800  0.90350  0.43180  Biso   1.000  O
  O3       1.0000 0.33000  0.93690  0.43780  Biso   1.000  O
  O4       1.0000 0.27900  0.86410  0.26920  Biso   1.000  O
  O5       1.0000 0.03860  0.67430  0.07560  Biso   1.000  O
  O6       1.0000 0.10310  0.71110  0.25190  Biso   1.000  O
  N1       1.0000 0.84250  0.89510  0.14280  Biso   1.000  N
  N2       1.0000 0.89000  0.91520  0.24440  Biso   1.000  N
  N3       1.0000 0.80470  0.92520  0.33540  Biso   1.000  N
  N4       1.0000 0.07430  0.18620  0.16150  Biso   1.000  N
  N5       1.0000 0.09520  0.09480  0.25420  Biso   1.000  N
  N6       1.0000 0.11570  0.13630  0.35670  Biso   1.000  N
  C1       1.0000 0.69570  0.91020  0.29420  Biso   1.000  C
  C2       1.0000 0.71930  0.89240  0.16840  Biso   1.000  C
  C3       1.0000 0.50200  0.88060  0.15540  Biso   1.000  C
  H1       1.0000 0.43780  0.87210  0.10940  Biso   1.000  H
  C4       1.0000 0.62080  0.87860  0.10040  Biso   1.000  C
  H2       1.0000 0.63480  0.86810  0.01770  Biso   1.000  H
  C5       1.0000 0.48100  0.89560  0.28160  Biso   1.000  C
  C6       1.0000 0.57770  0.91220  0.34930  Biso   1.000  C
  H3       1.0000 0.56310  0.92470  0.43160  Biso   1.000  H
  C7       1.0000 0.35700  0.89900  0.33210  Biso   1.000  C
  C8       1.0000 0.07900  0.29570  0.20900  Biso   1.000  C
  C9       1.0000 0.10300  0.26430  0.33140  Biso   1.000  C
  C10      1.0000 0.11300  0.35390  0.41020  Biso   1.000  C
  H4       1.0000 0.12120  0.33360  0.49380  Biso   1.000  H
  C11      1.0000 0.10800  0.47320  0.35490  Biso   1.000  C
  H5       1.0000 0.11950  0.53480  0.40130  Biso   1.000  H
  C12      1.0000 0.08600  0.50350  0.23440  Biso   1.000  C
  C13      1.0000 0.07000  0.41920  0.15740  Biso   1.000  C
  H6       1.0000 0.05380  0.44310  0.07550  Biso   1.000  H
  C14      1.0000 0.07400  0.64160  0.18310  Biso   1.000  C
  H7       1.0000 0.18100  0.91900  0.04300  Biso   1.000  H
  H8       1.0000 0.96800  0.88300  0.44800  Biso   1.000  H
  Co4      1.0000 0.91310  0.09634  0.74889  Biso   1.000  Co
  Co5      1.0000 0.02820  0.14144  0.99723  Biso   1.000  Co
  Co6      1.0000 0.14630  0.00004  0.51051  Biso   1.000  Co
  O7       1.0000 0.90750  0.05880  0.93410  Biso   1.000  O
  O8       1.0000 0.95200  0.09650  0.56820  Biso   1.000  O
  O9       1.0000 0.67000  0.06310  0.56220  Biso   1.000  O
  O10      1.0000 0.72100  0.13590  0.73080  Biso   1.000  O
  O11      1.0000 0.96140  0.32570  0.92440  Biso   1.000  O
  O12      1.0000 0.89690  0.28890  0.74810  Biso   1.000  O
  N7       1.0000 0.15750  0.10490  0.85720  Biso   1.000  N
  N8       1.0000 0.11000  0.08480  0.75560  Biso   1.000  N
  N9       1.0000 0.19530  0.07480  0.66460  Biso   1.000  N
  N10      1.0000 0.92570  0.81380  0.83850  Biso   1.000  N
  N11      1.0000 0.90480  0.90520  0.74580  Biso   1.000  N
  N12      1.0000 0.88430  0.86370  0.64330  Biso   1.000  N
  C15      1.0000 0.30430  0.08980  0.70580  Biso   1.000  C
  C16      1.0000 0.28070  0.10760  0.83160  Biso   1.000  C
  C17      1.0000 0.49800  0.11940  0.84460  Biso   1.000  C
  H9       1.0000 0.56220  0.12790  0.89060  Biso   1.000  H
  C18      1.0000 0.37920  0.12140  0.89960  Biso   1.000  C
  H10      1.0000 0.36520  0.13190  0.98230  Biso   1.000  H
  C19      1.0000 0.51900  0.10440  0.71840  Biso   1.000  C
  C20      1.0000 0.42230  0.08780  0.65070  Biso   1.000  C
  H11      1.0000 0.43690  0.07530  0.56840  Biso   1.000  H
  C21      1.0000 0.64300  0.10100  0.66790  Biso   1.000  C
  C22      1.0000 0.92100  0.70430  0.79100  Biso   1.000  C
  C23      1.0000 0.89700  0.73570  0.66860  Biso   1.000  C
  C24      1.0000 0.88700  0.64610  0.58980  Biso   1.000  C
  H12      1.0000 0.87880  0.66640  0.50620  Biso   1.000  H
  C25      1.0000 0.89200  0.52680  0.64510  Biso   1.000  C
  H13      1.0000 0.88050  0.46520  0.59870  Biso   1.000  H
  C26      1.0000 0.91400  0.49650  0.76560  Biso   1.000  C
  C27      1.0000 0.93000  0.58080  0.84260  Biso   1.000  C
  H14      1.0000 0.94620  0.55690  0.92450  Biso   1.000  H
  C28      1.0000 0.92600  0.35840  0.81690  Biso   1.000  C
  H15      1.0000 0.81900  0.08100  0.95700  Biso   1.000  H
  H16      1.0000 0.03200  0.11700  0.55200  Biso   1.000  H
