data_image0
_cell_length_a       10.9638
_cell_length_b       10.9718
_cell_length_c       10.9814
_cell_angle_alpha    83.227
_cell_angle_beta     85.937
_cell_angle_gamma    81.093

_symmetry_space_group_name_H-M    "P 1"
_symmetry_int_tables_number       1

loop_
  _symmetry_equiv_pos_as_xyz
  'x, y, z'

loop_
  _atom_site_label
  _atom_site_occupancy
  _atom_site_fract_x
  _atom_site_fract_y
  _atom_site_fract_z
  _atom_site_thermal_displace_type
  _atom_site_B_iso_or_equiv
  _atom_site_type_symbol
  Co1      1.0000 0.08070  0.90650  0.25070  Biso   1.000  Co
  Co2      1.0000 0.85550  0.99570  0.49000  Biso   1.000  Co
  Co3      1.0000 0.96480  0.85920  0.00480  Biso   1.000  Co
  C1       1.0000 0.68850  0.91600  0.29400  Biso   1.000  C
  C2       1.0000 0.70970  0.90300  0.17040  Biso   1.000  C
  C3       1.0000 0.61580  0.89200  0.09640  Biso   1.000  C
  H1       1.0000 0.63200  0.88060  0.01380  Biso   1.000  H
  C4       1.0000 0.49730  0.89700  0.14960  Biso   1.000  C
  H2       1.0000 0.43220  0.88960  0.10240  Biso   1.000  H
  C5       1.0000 0.47490  0.91300  0.27320  Biso   1.000  C
  C6       1.0000 0.56840  0.92900  0.34530  Biso   1.000  C
  H3       1.0000 0.55130  0.94780  0.42570  Biso   1.000  H
  C7       1.0000 0.34340  0.91900  0.33280  Biso   1.000  C
  C8       1.0000 0.06470  0.29500  0.21320  Biso   1.000  C
  C9       1.0000 0.09310  0.26500  0.33580  Biso   1.000  C
  C10      1.0000 0.10350  0.35300  0.41260  Biso   1.000  C
  H4       1.0000 0.12400  0.33060  0.49370  Biso   1.000  H
  C11      1.0000 0.08260  0.47700  0.36530  Biso   1.000  C
  H5       1.0000 0.08670  0.53930  0.41540  Biso   1.000  H
  C12      1.0000 0.05560  0.50900  0.24260  Biso   1.000  C
  C13      1.0000 0.04180  0.41900  0.16840  Biso   1.000  C
  H6       1.0000 0.01710  0.44150  0.08860  Biso   1.000  H
  C14      1.0000 0.05040  0.64200  0.18910  Biso   1.000  C
  N1       1.0000 0.79850  0.92700  0.33750  Biso   1.000  N
  N2       1.0000 0.88100  0.91700  0.24460  Biso   1.000  N
  N3       1.0000 0.83060  0.90200  0.14190  Biso   1.000  N
  N4       1.0000 0.06180  0.18900  0.16600  Biso   1.000  N
  N5       1.0000 0.08940  0.10000  0.25570  Biso   1.000  N
  N6       1.0000 0.11120  0.14100  0.35910  Biso   1.000  N
  O1       1.0000 0.09430  0.93700  0.06430  Biso   1.000  O
  H7       1.0000 0.16900  0.88800  0.03500  Biso   1.000  H
  O2       1.0000 0.04000  0.89900  0.43200  Biso   1.000  O
  H8       1.0000 0.10200  0.84100  0.47600  Biso   1.000  H
  O3       1.0000 0.31780  0.95100  0.43400  Biso   1.000  O
  O4       1.0000 0.27240  0.86900  0.26670  Biso   1.000  O
  O5       1.0000 0.01190  0.67600  0.08220  Biso   1.000  O
  O6       1.0000 0.08190  0.71100  0.25810  Biso   1.000  O
  Co4      1.0000 0.91930  0.09350  0.74930  Biso   1.000  Co
  Co5      1.0000 0.14450  0.00430  0.51000  Biso   1.000  Co
  Co6      1.0000 0.03520  0.14080  0.99520  Biso   1.000  Co
  C15      1.0000 0.31150  0.08400  0.70600  Biso   1.000  C
  C16      1.0000 0.29030  0.09700  0.82960  Biso   1.000  C
  C17      1.0000 0.38420  0.10800  0.90360  Biso   1.000  C
  H9       1.0000 0.36800  0.11940  0.98620  Biso   1.000  H
  C18      1.0000 0.50270  0.10300  0.85040  Biso   1.000  C
  H10      1.0000 0.56780  0.11040  0.89760  Biso   1.000  H
  C19      1.0000 0.52510  0.08700  0.72680  Biso   1.000  C
  C20      1.0000 0.43160  0.07100  0.65470  Biso   1.000  C
  H11      1.0000 0.44870  0.05220  0.57430  Biso   1.000  H
  C21      1.0000 0.65660  0.08100  0.66720  Biso   1.000  C
  C22      1.0000 0.93530  0.70500  0.78680  Biso   1.000  C
  C23      1.0000 0.90690  0.73500  0.66420  Biso   1.000  C
  C24      1.0000 0.89650  0.64700  0.58740  Biso   1.000  C
  H12      1.0000 0.87600  0.66940  0.50630  Biso   1.000  H
  C25      1.0000 0.91740  0.52300  0.63470  Biso   1.000  C
  H13      1.0000 0.91330  0.46070  0.58460  Biso   1.000  H
  C26      1.0000 0.94440  0.49100  0.75740  Biso   1.000  C
  C27      1.0000 0.95820  0.58100  0.83160  Biso   1.000  C
  H14      1.0000 0.98290  0.55850  0.91140  Biso   1.000  H
  C28      1.0000 0.94960  0.35800  0.81090  Biso   1.000  C
  N7       1.0000 0.20150  0.07300  0.66250  Biso   1.000  N
  N8       1.0000 0.11900  0.08300  0.75540  Biso   1.000  N
  N9       1.0000 0.16940  0.09800  0.85810  Biso   1.000  N
  N10      1.0000 0.93820  0.81100  0.83400  Biso   1.000  N
  N11      1.0000 0.91060  0.90000  0.74430  Biso   1.000  N
  N12      1.0000 0.88880  0.85900  0.64090  Biso   1.000  N
  O7       1.0000 0.90570  0.06300  0.93570  Biso   1.000  O
  H15      1.0000 0.83100  0.11200  0.96500  Biso   1.000  H
  O8       1.0000 0.96000  0.10100  0.56800  Biso   1.000  O
  H16      1.0000 0.89800  0.15900  0.52400  Biso   1.000  H
  O9       1.0000 0.68220  0.04900  0.56600  Biso   1.000  O
  O10      1.0000 0.72760  0.13100  0.73330  Biso   1.000  O
  O11      1.0000 0.98810  0.32400  0.91780  Biso   1.000  O
  O12      1.0000 0.91810  0.28900  0.74190  Biso   1.000  O
