data_image0
_cell_length_a       10.9204
_cell_length_b       10.9603
_cell_length_c       11.0587
_cell_angle_alpha    83.328
_cell_angle_beta     87.023
_cell_angle_gamma    70.33

_symmetry_space_group_name_H-M    "P 1"
_symmetry_int_tables_number       1

loop_
  _symmetry_equiv_pos_as_xyz
  'x, y, z'

loop_
  _atom_site_label
  _atom_site_occupancy
  _atom_site_fract_x
  _atom_site_fract_y
  _atom_site_fract_z
  _atom_site_thermal_displace_type
  _atom_site_B_iso_or_equiv
  _atom_site_type_symbol
  Co1      1.0000 0.09325  0.89520  0.25067  Biso   1.000  Co
  Co2      1.0000 0.85082  0.01647  0.48239  Biso   1.000  Co
  Co3      1.0000 0.97085  0.86353  0.00176  Biso   1.000  Co
  N1       1.0000 0.80030  0.93710  0.33480  Biso   1.000  N
  N2       1.0000 0.88150  0.93130  0.23920  Biso   1.000  N
  N3       1.0000 0.83470  0.90310  0.14120  Biso   1.000  N
  N4       1.0000 0.07570  0.17800  0.16320  Biso   1.000  N
  N5       1.0000 0.09400  0.08520  0.25710  Biso   1.000  N
  N6       1.0000 0.11420  0.12560  0.36090  Biso   1.000  N
  C1       1.0000 0.69620  0.91060  0.29680  Biso   1.000  C
  C2       1.0000 0.71830  0.88870  0.17340  Biso   1.000  C
  C3       1.0000 0.62590  0.86120  0.10680  Biso   1.000  C
  H1       1.0000 0.63990  0.84720  0.02330  Biso   1.000  H
  C4       1.0000 0.51570  0.85550  0.16700  Biso   1.000  C
  H2       1.0000 0.45240  0.83600  0.12440  Biso   1.000  H
  C5       1.0000 0.49250  0.87770  0.29110  Biso   1.000  C
  C6       1.0000 0.58100  0.90430  0.35790  Biso   1.000  C
  H3       1.0000 0.56580  0.91780  0.44150  Biso   1.000  H
  C7       1.0000 0.36450  0.87460  0.34710  Biso   1.000  C
  C8       1.0000 0.08630  0.28550  0.20990  Biso   1.000  C
  C9       1.0000 0.10810  0.25170  0.33540  Biso   1.000  C
  C10      1.0000 0.12110  0.34060  0.41140  Biso   1.000  C
  H4       1.0000 0.13680  0.31710  0.49600  Biso   1.000  H
  C11      1.0000 0.11000  0.46280  0.35770  Biso   1.000  C
  H5       1.0000 0.11610  0.52590  0.40700  Biso   1.000  H
  C12      1.0000 0.08960  0.49860  0.23050  Biso   1.000  C
  C13      1.0000 0.07770  0.41020  0.15610  Biso   1.000  C
  H6       1.0000 0.06420  0.43330  0.07110  Biso   1.000  H
  C14      1.0000 0.08190  0.63400  0.18000  Biso   1.000  C
  O1       1.0000 0.10090  0.92990  0.06600  Biso   1.000  O
  H7       1.0000 0.18700  0.88300  0.04700  Biso   1.000  H
  O2       1.0000 0.04570  0.90010  0.42960  Biso   1.000  O
  H8       1.0000 0.04600  0.81900  0.46700  Biso   1.000  H
  O3       1.0000 0.33760  0.90970  0.45380  Biso   1.000  O
  O4       1.0000 0.29440  0.83570  0.28550  Biso   1.000  O
  O5       1.0000 0.04710  0.67110  0.06980  Biso   1.000  O
  O6       1.0000 0.10790  0.70200  0.25250  Biso   1.000  O
  Co4      1.0000 0.90675  0.10480  0.74933  Biso   1.000  Co
  Co5      1.0000 0.14918  0.98353  0.51761  Biso   1.000  Co
  Co6      1.0000 0.02915  0.13647  0.99824  Biso   1.000  Co
  N7       1.0000 0.19970  0.06290  0.66520  Biso   1.000  N
  N8       1.0000 0.11850  0.06870  0.76080  Biso   1.000  N
  N9       1.0000 0.16530  0.09690  0.85880  Biso   1.000  N
  N10      1.0000 0.92430  0.82200  0.83680  Biso   1.000  N
  N11      1.0000 0.90600  0.91480  0.74290  Biso   1.000  N
  N12      1.0000 0.88580  0.87440  0.63910  Biso   1.000  N
  C15      1.0000 0.30380  0.08940  0.70320  Biso   1.000  C
  C16      1.0000 0.28170  0.11130  0.82660  Biso   1.000  C
  C17      1.0000 0.37410  0.13880  0.89320  Biso   1.000  C
  H9       1.0000 0.36010  0.15280  0.97670  Biso   1.000  H
  C18      1.0000 0.48430  0.14450  0.83300  Biso   1.000  C
  H10      1.0000 0.54760  0.16400  0.87560  Biso   1.000  H
  C19      1.0000 0.50750  0.12230  0.70890  Biso   1.000  C
  C20      1.0000 0.41900  0.09570  0.64210  Biso   1.000  C
  H11      1.0000 0.43420  0.08220  0.55850  Biso   1.000  H
  C21      1.0000 0.63550  0.12540  0.65290  Biso   1.000  C
  C22      1.0000 0.91370  0.71450  0.79010  Biso   1.000  C
  C23      1.0000 0.89190  0.74830  0.66460  Biso   1.000  C
  C24      1.0000 0.87890  0.65940  0.58860  Biso   1.000  C
  H12      1.0000 0.86320  0.68290  0.50400  Biso   1.000  H
  C25      1.0000 0.89000  0.53720  0.64230  Biso   1.000  C
  H13      1.0000 0.88390  0.47410  0.59300  Biso   1.000  H
  C26      1.0000 0.91040  0.50140  0.76950  Biso   1.000  C
  C27      1.0000 0.92230  0.58980  0.84390  Biso   1.000  C
  H14      1.0000 0.93580  0.56670  0.92890  Biso   1.000  H
  C28      1.0000 0.91810  0.36600  0.82000  Biso   1.000  C
  O7       1.0000 0.89910  0.07010  0.93400  Biso   1.000  O
  H15      1.0000 0.81300  0.11700  0.95300  Biso   1.000  H
  O8       1.0000 0.95430  0.09990  0.57040  Biso   1.000  O
  H16      1.0000 0.95400  0.18100  0.53300  Biso   1.000  H
  O9       1.0000 0.66240  0.09030  0.54620  Biso   1.000  O
  O10      1.0000 0.70560  0.16430  0.71450  Biso   1.000  O
  O11      1.0000 0.95290  0.32890  0.93020  Biso   1.000  O
  O12      1.0000 0.89210  0.29800  0.74750  Biso   1.000  O
