data_image0
_cell_length_a       10.9919
_cell_length_b       10.9843
_cell_length_c       10.9893
_cell_angle_alpha    83.024
_cell_angle_beta     85.221
_cell_angle_gamma    81.104

_symmetry_space_group_name_H-M    "P 1"
_symmetry_int_tables_number       1

loop_
  _symmetry_equiv_pos_as_xyz
  'x, y, z'

loop_
  _atom_site_label
  _atom_site_occupancy
  _atom_site_fract_x
  _atom_site_fract_y
  _atom_site_fract_z
  _atom_site_thermal_displace_type
  _atom_site_B_iso_or_equiv
  _atom_site_type_symbol
  Co1      1.0000 0.08360  0.90702  0.25115  Biso   1.000  Co
  Co2      1.0000 0.97040  0.85751  0.00286  Biso   1.000  Co
  Co3      1.0000 0.85480  0.99607  0.49096  Biso   1.000  Co
  N1       1.0000 0.83750  0.89420  0.14170  Biso   1.000  N
  N2       1.0000 0.88500  0.91290  0.24670  Biso   1.000  N
  N3       1.0000 0.79950  0.92650  0.33790  Biso   1.000  N
  N4       1.0000 0.07180  0.18960  0.16040  Biso   1.000  N
  N5       1.0000 0.09380  0.10030  0.25130  Biso   1.000  N
  N6       1.0000 0.11340  0.14070  0.35590  Biso   1.000  N
  C1       1.0000 0.69090  0.91700  0.29340  Biso   1.000  C
  C2       1.0000 0.71460  0.89890  0.16900  Biso   1.000  C
  C3       1.0000 0.62090  0.88720  0.09800  Biso   1.000  C
  H1       1.0000 0.63730  0.87650  0.01530  Biso   1.000  H
  C4       1.0000 0.50300  0.89130  0.15020  Biso   1.000  C
  H2       1.0000 0.43910  0.88120  0.10340  Biso   1.000  H
  C5       1.0000 0.47800  0.91070  0.27430  Biso   1.000  C
  C6       1.0000 0.57210  0.92570  0.34550  Biso   1.000  C
  H3       1.0000 0.55510  0.94140  0.42690  Biso   1.000  H
  C7       1.0000 0.36000  0.91180  0.32460  Biso   1.000  C
  C8       1.0000 0.07900  0.29720  0.21100  Biso   1.000  C
  C9       1.0000 0.10900  0.26660  0.33010  Biso   1.000  C
  C10      1.0000 0.11000  0.35560  0.40900  Biso   1.000  C
  H4       1.0000 0.11670  0.33410  0.49290  Biso   1.000  H
  C11      1.0000 0.09900  0.47620  0.35840  Biso   1.000  C
  H5       1.0000 0.10750  0.53760  0.40730  Biso   1.000  H
  C12      1.0000 0.07600  0.50910  0.23610  Biso   1.000  C
  C13      1.0000 0.06200  0.42220  0.16000  Biso   1.000  C
  H6       1.0000 0.04320  0.44490  0.07870  Biso   1.000  H
  C14      1.0000 0.05900  0.64510  0.18490  Biso   1.000  C
  O1       1.0000 0.08580  0.94680  0.06570  Biso   1.000  O
  H7       1.0000 0.17400  0.93900  0.04900  Biso   1.000  H
  O2       1.0000 0.04390  0.90440  0.43210  Biso   1.000  O
  H8       1.0000 0.09300  0.82600  0.46000  Biso   1.000  H
  O3       1.0000 0.32470  0.95000  0.43430  Biso   1.000  O
  O4       1.0000 0.28200  0.87340  0.26550  Biso   1.000  O
  O5       1.0000 0.02490  0.67610  0.08060  Biso   1.000  O
  O6       1.0000 0.09370  0.71530  0.25600  Biso   1.000  O
  Co4      1.0000 0.91640  0.09298  0.74885  Biso   1.000  Co
  Co5      1.0000 0.02960  0.14249  0.99714  Biso   1.000  Co
  Co6      1.0000 0.14520  0.00393  0.50904  Biso   1.000  Co
  N7       1.0000 0.16250  0.10580  0.85830  Biso   1.000  N
  N8       1.0000 0.11500  0.08710  0.75330  Biso   1.000  N
  N9       1.0000 0.20050  0.07350  0.66210  Biso   1.000  N
  N10      1.0000 0.92820  0.81040  0.83960  Biso   1.000  N
  N11      1.0000 0.90620  0.89970  0.74870  Biso   1.000  N
  N12      1.0000 0.88660  0.85930  0.64410  Biso   1.000  N
  C15      1.0000 0.30910  0.08300  0.70660  Biso   1.000  C
  C16      1.0000 0.28540  0.10110  0.83100  Biso   1.000  C
  C17      1.0000 0.37910  0.11280  0.90200  Biso   1.000  C
  H9       1.0000 0.36270  0.12350  0.98470  Biso   1.000  H
  C18      1.0000 0.49700  0.10870  0.84980  Biso   1.000  C
  H10      1.0000 0.56090  0.11880  0.89660  Biso   1.000  H
  C19      1.0000 0.52200  0.08930  0.72570  Biso   1.000  C
  C20      1.0000 0.42790  0.07430  0.65450  Biso   1.000  C
  H11      1.0000 0.44490  0.05860  0.57310  Biso   1.000  H
  C21      1.0000 0.64000  0.08820  0.67540  Biso   1.000  C
  C22      1.0000 0.92100  0.70280  0.78900  Biso   1.000  C
  C23      1.0000 0.89100  0.73340  0.66990  Biso   1.000  C
  C24      1.0000 0.89000  0.64440  0.59100  Biso   1.000  C
  H12      1.0000 0.88330  0.66590  0.50710  Biso   1.000  H
  C25      1.0000 0.90100  0.52380  0.64160  Biso   1.000  C
  H13      1.0000 0.89250  0.46240  0.59270  Biso   1.000  H
  C26      1.0000 0.92400  0.49090  0.76390  Biso   1.000  C
  C27      1.0000 0.93800  0.57780  0.84000  Biso   1.000  C
  H14      1.0000 0.95680  0.55510  0.92130  Biso   1.000  H
  C28      1.0000 0.94100  0.35490  0.81510  Biso   1.000  C
  O7       1.0000 0.91420  0.05320  0.93430  Biso   1.000  O
  H15      1.0000 0.82600  0.06100  0.95100  Biso   1.000  H
  O8       1.0000 0.95610  0.09560  0.56790  Biso   1.000  O
  H16      1.0000 0.90700  0.17400  0.54000  Biso   1.000  H
  O9       1.0000 0.67530  0.05000  0.56570  Biso   1.000  O
  O10      1.0000 0.71800  0.12660  0.73450  Biso   1.000  O
  O11      1.0000 0.97510  0.32390  0.91940  Biso   1.000  O
  O12      1.0000 0.90630  0.28470  0.74400  Biso   1.000  O
