data_image0
_cell_length_a       16.894
_cell_length_b       14.014
_cell_length_c       11.0033
_cell_angle_alpha    90
_cell_angle_beta     98.287
_cell_angle_gamma    90

_symmetry_space_group_name_H-M    "P 1"
_symmetry_int_tables_number       1

loop_
  _symmetry_equiv_pos_as_xyz
  'x, y, z'

loop_
  _atom_site_label
  _atom_site_occupancy
  _atom_site_fract_x
  _atom_site_fract_y
  _atom_site_fract_z
  _atom_site_thermal_displace_type
  _atom_site_B_iso_or_equiv
  _atom_site_type_symbol
  Co1      1.0000 0.92339  0.93220  0.00590  Biso   1.000  Co
  N1       1.0000 0.86580  0.94100  0.16180  Biso   1.000  N
  N2       1.0000 0.90510  0.99620  0.25260  Biso   1.000  N
  N3       1.0000 0.87340  0.98090  0.35800  Biso   1.000  N
  C1       1.0000 0.80790  0.89030  0.21060  Biso   1.000  C
  C2       1.0000 0.81390  0.91540  0.33300  Biso   1.000  C
  C3       1.0000 0.76420  0.87510  0.40850  Biso   1.000  C
  H1       1.0000 0.76850  0.89050  0.49140  Biso   1.000  H
  C4       1.0000 0.70810  0.81140  0.35440  Biso   1.000  C
  H2       1.0000 0.67140  0.78590  0.40100  Biso   1.000  H
  C5       1.0000 0.70440  0.78390  0.23300  Biso   1.000  C
  C6       1.0000 0.75560  0.82130  0.16000  Biso   1.000  C
  H3       1.0000 0.75500  0.80080  0.07950  Biso   1.000  H
  C7       1.0000 0.63790  0.71390  0.17990  Biso   1.000  C
  O1       1.0000 0.97560  0.07030  0.06630  Biso   1.000  O
  H4       1.0000 0.94700  0.12900  0.04800  Biso   1.000  H
  O2       1.0000 0.64180  0.68260  0.07470  Biso   1.000  O
  O3       1.0000 0.58570  0.69600  0.24650  Biso   1.000  O
  Co2      1.0000 0.42339  0.43220  0.00590  Biso   1.000  Co
  N4       1.0000 0.36580  0.44100  0.16180  Biso   1.000  N
  N5       1.0000 0.40510  0.49620  0.25260  Biso   1.000  N
  N6       1.0000 0.37340  0.48090  0.35800  Biso   1.000  N
  C8       1.0000 0.30790  0.39030  0.21060  Biso   1.000  C
  C9       1.0000 0.31390  0.41540  0.33300  Biso   1.000  C
  C10      1.0000 0.26420  0.37510  0.40850  Biso   1.000  C
  H5       1.0000 0.26850  0.39050  0.49140  Biso   1.000  H
  C11      1.0000 0.20810  0.31140  0.35440  Biso   1.000  C
  H6       1.0000 0.17140  0.28590  0.40100  Biso   1.000  H
  C12      1.0000 0.20440  0.28390  0.23300  Biso   1.000  C
  C13      1.0000 0.25560  0.32130  0.16000  Biso   1.000  C
  H7       1.0000 0.25500  0.30080  0.07950  Biso   1.000  H
  C14      1.0000 0.13790  0.21390  0.17990  Biso   1.000  C
  O4       1.0000 0.47560  0.57030  0.06630  Biso   1.000  O
  H8       1.0000 0.44700  0.62900  0.04800  Biso   1.000  H
  O5       1.0000 0.14180  0.18260  0.07470  Biso   1.000  O
  O6       1.0000 0.08570  0.19600  0.24650  Biso   1.000  O
  Co3      1.0000 0.07661  0.93220  0.49410  Biso   1.000  Co
  N7       1.0000 0.13420  0.94100  0.33820  Biso   1.000  N
  N8       1.0000 0.09490  0.99620  0.24740  Biso   1.000  N
  N9       1.0000 0.12660  0.98090  0.14200  Biso   1.000  N
  C15      1.0000 0.19210  0.89030  0.28940  Biso   1.000  C
  C16      1.0000 0.18610  0.91540  0.16700  Biso   1.000  C
  C17      1.0000 0.23580  0.87510  0.09150  Biso   1.000  C
  H9       1.0000 0.23150  0.89050  0.00860  Biso   1.000  H
  C18      1.0000 0.29190  0.81140  0.14560  Biso   1.000  C
  H10      1.0000 0.32860  0.78590  0.09900  Biso   1.000  H
  C19      1.0000 0.29560  0.78390  0.26700  Biso   1.000  C
  C20      1.0000 0.24440  0.82130  0.34000  Biso   1.000  C
  H11      1.0000 0.24500  0.80080  0.42050  Biso   1.000  H
  C21      1.0000 0.36210  0.71390  0.32010  Biso   1.000  C
  O7       1.0000 0.02440  0.07030  0.43370  Biso   1.000  O
  H12      1.0000 0.05300  0.12900  0.45200  Biso   1.000  H
  O8       1.0000 0.35820  0.68260  0.42530  Biso   1.000  O
  O9       1.0000 0.41430  0.69600  0.25350  Biso   1.000  O
  Co4      1.0000 0.57661  0.43220  0.49410  Biso   1.000  Co
  N10      1.0000 0.63420  0.44100  0.33820  Biso   1.000  N
  N11      1.0000 0.59490  0.49620  0.24740  Biso   1.000  N
  N12      1.0000 0.62660  0.48090  0.14200  Biso   1.000  N
  C22      1.0000 0.69210  0.39030  0.28940  Biso   1.000  C
  C23      1.0000 0.68610  0.41540  0.16700  Biso   1.000  C
  C24      1.0000 0.73580  0.37510  0.09150  Biso   1.000  C
  H13      1.0000 0.73150  0.39050  0.00860  Biso   1.000  H
  C25      1.0000 0.79190  0.31140  0.14560  Biso   1.000  C
  H14      1.0000 0.82860  0.28590  0.09900  Biso   1.000  H
  C26      1.0000 0.79560  0.28390  0.26700  Biso   1.000  C
  C27      1.0000 0.74440  0.32130  0.34000  Biso   1.000  C
  H15      1.0000 0.74500  0.30080  0.42050  Biso   1.000  H
  C28      1.0000 0.86210  0.21390  0.32010  Biso   1.000  C
  O10      1.0000 0.52440  0.57030  0.43370  Biso   1.000  O
  H16      1.0000 0.55300  0.62900  0.45200  Biso   1.000  H
  O11      1.0000 0.85820  0.18260  0.42530  Biso   1.000  O
  O12      1.0000 0.91430  0.19600  0.25350  Biso   1.000  O
  Co5      1.0000 0.07661  0.06780  0.99410  Biso   1.000  Co
  N13      1.0000 0.13420  0.05900  0.83820  Biso   1.000  N
  N14      1.0000 0.09490  0.00380  0.74740  Biso   1.000  N
  N15      1.0000 0.12660  0.01910  0.64200  Biso   1.000  N
  C29      1.0000 0.19210  0.10970  0.78940  Biso   1.000  C
  C30      1.0000 0.18610  0.08460  0.66700  Biso   1.000  C
  C31      1.0000 0.23580  0.12490  0.59150  Biso   1.000  C
  H17      1.0000 0.23150  0.10950  0.50860  Biso   1.000  H
  C32      1.0000 0.29190  0.18860  0.64560  Biso   1.000  C
  H18      1.0000 0.32860  0.21410  0.59900  Biso   1.000  H
  C33      1.0000 0.29560  0.21610  0.76700  Biso   1.000  C
  C34      1.0000 0.24440  0.17870  0.84000  Biso   1.000  C
  H19      1.0000 0.24500  0.19920  0.92050  Biso   1.000  H
  C35      1.0000 0.36210  0.28610  0.82010  Biso   1.000  C
  O13      1.0000 0.02440  0.92970  0.93370  Biso   1.000  O
  H20      1.0000 0.05300  0.87100  0.95200  Biso   1.000  H
  O14      1.0000 0.35820  0.31740  0.92530  Biso   1.000  O
  O15      1.0000 0.41430  0.30400  0.75350  Biso   1.000  O
  Co6      1.0000 0.57661  0.56780  0.99410  Biso   1.000  Co
  N16      1.0000 0.63420  0.55900  0.83820  Biso   1.000  N
  N17      1.0000 0.59490  0.50380  0.74740  Biso   1.000  N
  N18      1.0000 0.62660  0.51910  0.64200  Biso   1.000  N
  C36      1.0000 0.69210  0.60970  0.78940  Biso   1.000  C
  C37      1.0000 0.68610  0.58460  0.66700  Biso   1.000  C
  C38      1.0000 0.73580  0.62490  0.59150  Biso   1.000  C
  H21      1.0000 0.73150  0.60950  0.50860  Biso   1.000  H
  C39      1.0000 0.79190  0.68860  0.64560  Biso   1.000  C
  H22      1.0000 0.82860  0.71410  0.59900  Biso   1.000  H
  C40      1.0000 0.79560  0.71610  0.76700  Biso   1.000  C
  C41      1.0000 0.74440  0.67870  0.84000  Biso   1.000  C
  H23      1.0000 0.74500  0.69920  0.92050  Biso   1.000  H
  C42      1.0000 0.86210  0.78610  0.82010  Biso   1.000  C
  O16      1.0000 0.52440  0.42970  0.93370  Biso   1.000  O
  H24      1.0000 0.55300  0.37100  0.95200  Biso   1.000  H
  O17      1.0000 0.85820  0.81740  0.92530  Biso   1.000  O
  O18      1.0000 0.91430  0.80400  0.75350  Biso   1.000  O
  Co7      1.0000 0.92339  0.06780  0.50590  Biso   1.000  Co
  N19      1.0000 0.86580  0.05900  0.66180  Biso   1.000  N
  N20      1.0000 0.90510  0.00380  0.75260  Biso   1.000  N
  N21      1.0000 0.87340  0.01910  0.85800  Biso   1.000  N
  C43      1.0000 0.80790  0.10970  0.71060  Biso   1.000  C
  C44      1.0000 0.81390  0.08460  0.83300  Biso   1.000  C
  C45      1.0000 0.76420  0.12490  0.90850  Biso   1.000  C
  H25      1.0000 0.76850  0.10950  0.99140  Biso   1.000  H
  C46      1.0000 0.70810  0.18860  0.85440  Biso   1.000  C
  H26      1.0000 0.67140  0.21410  0.90100  Biso   1.000  H
  C47      1.0000 0.70440  0.21610  0.73300  Biso   1.000  C
  C48      1.0000 0.75560  0.17870  0.66000  Biso   1.000  C
  H27      1.0000 0.75500  0.19920  0.57950  Biso   1.000  H
  C49      1.0000 0.63790  0.28610  0.67990  Biso   1.000  C
  O19      1.0000 0.97560  0.92970  0.56630  Biso   1.000  O
  H28      1.0000 0.94700  0.87100  0.54800  Biso   1.000  H
  O20      1.0000 0.64180  0.31740  0.57470  Biso   1.000  O
  O21      1.0000 0.58570  0.30400  0.74650  Biso   1.000  O
  Co8      1.0000 0.42339  0.56780  0.50590  Biso   1.000  Co
  N22      1.0000 0.36580  0.55900  0.66180  Biso   1.000  N
  N23      1.0000 0.40510  0.50380  0.75260  Biso   1.000  N
  N24      1.0000 0.37340  0.51910  0.85800  Biso   1.000  N
  C50      1.0000 0.30790  0.60970  0.71060  Biso   1.000  C
  C51      1.0000 0.31390  0.58460  0.83300  Biso   1.000  C
  C52      1.0000 0.26420  0.62490  0.90850  Biso   1.000  C
  H29      1.0000 0.26850  0.60950  0.99140  Biso   1.000  H
  C53      1.0000 0.20810  0.68860  0.85440  Biso   1.000  C
  H30      1.0000 0.17140  0.71410  0.90100  Biso   1.000  H
  C54      1.0000 0.20440  0.71610  0.73300  Biso   1.000  C
  C55      1.0000 0.25560  0.67870  0.66000  Biso   1.000  C
  H31      1.0000 0.25500  0.69920  0.57950  Biso   1.000  H
  C56      1.0000 0.13790  0.78610  0.67990  Biso   1.000  C
  O22      1.0000 0.47560  0.42970  0.56630  Biso   1.000  O
  H32      1.0000 0.44700  0.37100  0.54800  Biso   1.000  H
  O23      1.0000 0.14180  0.81740  0.57470  Biso   1.000  O
  O24      1.0000 0.08570  0.80400  0.74650  Biso   1.000  O
  Co9      1.0000 0.00000  0.09140  0.25000  Biso   1.000  Co
  Co10     1.0000 0.50000  0.59140  0.25000  Biso   1.000  Co
  Co11     1.0000 0.00000  0.90860  0.75000  Biso   1.000  Co
  Co12     1.0000 0.50000  0.40860  0.75000  Biso   1.000  Co
