data_image0
_cell_length_a       16.8014
_cell_length_b       14.173
_cell_length_c       33.1813
_cell_angle_alpha    90
_cell_angle_beta     96.641
_cell_angle_gamma    90

_symmetry_space_group_name_H-M    "P 1"
_symmetry_int_tables_number       1

loop_
  _symmetry_equiv_pos_as_xyz
  'x, y, z'

loop_
  _atom_site_label
  _atom_site_occupancy
  _atom_site_fract_x
  _atom_site_fract_y
  _atom_site_fract_z
  _atom_site_thermal_displace_type
  _atom_site_B_iso_or_equiv
  _atom_site_type_symbol
  Co1      1.0000 0.00688  0.09479  0.41734  Biso   1.000  Co
  Co2      1.0000 0.92549  0.07049  0.50288  Biso   1.000  Co
  Co3      1.0000 0.91897  0.95850  0.33322  Biso   1.000  Co
  Co4      1.0000 0.09000  0.06817  0.33554  Biso   1.000  Co
  C1       1.0000 0.18820  0.13680  0.26390  Biso   1.000  C
  C2       1.0000 0.18690  0.11180  0.22380  Biso   1.000  C
  C3       1.0000 0.23720  0.15120  0.19630  Biso   1.000  C
  H1       1.0000 0.23480  0.13390  0.16920  Biso   1.000  H
  C4       1.0000 0.29070  0.21870  0.21470  Biso   1.000  C
  H2       1.0000 0.32460  0.25040  0.19900  Biso   1.000  H
  C5       1.0000 0.29410  0.24000  0.25700  Biso   1.000  C
  C6       1.0000 0.24280  0.20070  0.28160  Biso   1.000  C
  H3       1.0000 0.24500  0.21650  0.30890  Biso   1.000  H
  C7       1.0000 0.35990  0.30900  0.27390  Biso   1.000  C
  C8       1.0000 0.31590  0.39770  0.40410  Biso   1.000  C
  C9       1.0000 0.31640  0.41950  0.44440  Biso   1.000  C
  C10      1.0000 0.26740  0.38010  0.46990  Biso   1.000  C
  H4       1.0000 0.27050  0.39610  0.49720  Biso   1.000  H
  C11      1.0000 0.21240  0.31410  0.45220  Biso   1.000  C
  H5       1.0000 0.17570  0.28760  0.46780  Biso   1.000  H
  C12      1.0000 0.21080  0.28690  0.41200  Biso   1.000  C
  C13      1.0000 0.26050  0.32800  0.38810  Biso   1.000  C
  H6       1.0000 0.25850  0.31040  0.36100  Biso   1.000  H
  C14      1.0000 0.14840  0.21530  0.39490  Biso   1.000  C
  C15      1.0000 0.19660  0.91680  0.39140  Biso   1.000  C
  C16      1.0000 0.19890  0.88980  0.43160  Biso   1.000  C
  C17      1.0000 0.30630  0.81480  0.38410  Biso   1.000  C
  H7       1.0000 0.34410  0.78890  0.36900  Biso   1.000  H
  C18      1.0000 0.30810  0.79200  0.42680  Biso   1.000  C
  C19      1.0000 0.25190  0.82750  0.44920  Biso   1.000  C
  H8       1.0000 0.25040  0.80890  0.47590  Biso   1.000  H
  C20      1.0000 0.24970  0.87360  0.36640  Biso   1.000  C
  H9       1.0000 0.24540  0.88560  0.33860  Biso   1.000  H
  C21      1.0000 0.37130  0.72200  0.44430  Biso   1.000  C
  N1       1.0000 0.12940  0.08150  0.28000  Biso   1.000  N
  N2       1.0000 0.09440  0.03070  0.24950  Biso   1.000  N
  N3       1.0000 0.12540  0.04780  0.21540  Biso   1.000  N
  N4       1.0000 0.37230  0.45100  0.38750  Biso   1.000  N
  N5       1.0000 0.40560  0.50360  0.41840  Biso   1.000  N
  N6       1.0000 0.37380  0.49150  0.45340  Biso   1.000  N
  N7       1.0000 0.13740  0.97850  0.38120  Biso   1.000  N
  N8       1.0000 0.10170  0.98970  0.41500  Biso   1.000  N
  N9       1.0000 0.13670  0.94110  0.44650  Biso   1.000  N
  O1       1.0000 0.02370  0.94060  0.31170  Biso   1.000  O
  O2       1.0000 0.98540  0.08630  0.35560  Biso   1.000  O
  O3       1.0000 0.02930  0.06880  0.47760  Biso   1.000  O
  O4       1.0000 0.35370  0.34640  0.30800  Biso   1.000  O
  O5       1.0000 0.41430  0.32620  0.25200  Biso   1.000  O
  O6       1.0000 0.15320  0.18300  0.36030  Biso   1.000  O
  O7       1.0000 0.09830  0.19400  0.41830  Biso   1.000  O
  O8       1.0000 0.36550  0.68760  0.47850  Biso   1.000  O
  O9       1.0000 0.42770  0.70720  0.42270  Biso   1.000  O
  H10      1.0000 0.06900  0.10300  0.49500  Biso   1.000  H
  H11      1.0000 0.02700  0.87700  0.32200  Biso   1.000  H
  H12      1.0000 0.95600  0.14300  0.34700  Biso   1.000  H
  Co5      1.0000 0.50688  0.59479  0.41734  Biso   1.000  Co
  Co6      1.0000 0.42549  0.57049  0.50288  Biso   1.000  Co
  Co7      1.0000 0.41897  0.45850  0.33322  Biso   1.000  Co
  Co8      1.0000 0.59000  0.56817  0.33554  Biso   1.000  Co
  C22      1.0000 0.68820  0.63680  0.26390  Biso   1.000  C
  C23      1.0000 0.68690  0.61180  0.22380  Biso   1.000  C
  C24      1.0000 0.73720  0.65120  0.19630  Biso   1.000  C
  H13      1.0000 0.73480  0.63390  0.16920  Biso   1.000  H
  C25      1.0000 0.79070  0.71870  0.21470  Biso   1.000  C
  H14      1.0000 0.82460  0.75040  0.19900  Biso   1.000  H
  C26      1.0000 0.79410  0.74000  0.25700  Biso   1.000  C
  C27      1.0000 0.74280  0.70070  0.28160  Biso   1.000  C
  H15      1.0000 0.74500  0.71650  0.30890  Biso   1.000  H
  C28      1.0000 0.85990  0.80900  0.27390  Biso   1.000  C
  C29      1.0000 0.81590  0.89770  0.40410  Biso   1.000  C
  C30      1.0000 0.81640  0.91950  0.44440  Biso   1.000  C
  C31      1.0000 0.76740  0.88010  0.46990  Biso   1.000  C
  H16      1.0000 0.77050  0.89610  0.49720  Biso   1.000  H
  C32      1.0000 0.71240  0.81410  0.45220  Biso   1.000  C
  H17      1.0000 0.67570  0.78760  0.46780  Biso   1.000  H
  C33      1.0000 0.71080  0.78690  0.41200  Biso   1.000  C
  C34      1.0000 0.76050  0.82800  0.38810  Biso   1.000  C
  H18      1.0000 0.75850  0.81040  0.36100  Biso   1.000  H
  C35      1.0000 0.64840  0.71530  0.39490  Biso   1.000  C
  C36      1.0000 0.69660  0.41680  0.39140  Biso   1.000  C
  C37      1.0000 0.69890  0.38980  0.43160  Biso   1.000  C
  C38      1.0000 0.80630  0.31480  0.38410  Biso   1.000  C
  H19      1.0000 0.84410  0.28890  0.36900  Biso   1.000  H
  C39      1.0000 0.80810  0.29200  0.42680  Biso   1.000  C
  C40      1.0000 0.75190  0.32750  0.44920  Biso   1.000  C
  H20      1.0000 0.75040  0.30890  0.47590  Biso   1.000  H
  C41      1.0000 0.74970  0.37360  0.36640  Biso   1.000  C
  H21      1.0000 0.74540  0.38560  0.33860  Biso   1.000  H
  C42      1.0000 0.87130  0.22200  0.44430  Biso   1.000  C
  N10      1.0000 0.62940  0.58150  0.28000  Biso   1.000  N
  N11      1.0000 0.59440  0.53070  0.24950  Biso   1.000  N
  N12      1.0000 0.62540  0.54780  0.21540  Biso   1.000  N
  N13      1.0000 0.87230  0.95100  0.38750  Biso   1.000  N
  N14      1.0000 0.90560  0.00360  0.41840  Biso   1.000  N
  N15      1.0000 0.87380  0.99150  0.45340  Biso   1.000  N
  N16      1.0000 0.63740  0.47850  0.38120  Biso   1.000  N
  N17      1.0000 0.60170  0.48970  0.41500  Biso   1.000  N
  N18      1.0000 0.63670  0.44110  0.44650  Biso   1.000  N
  O10      1.0000 0.52370  0.44060  0.31170  Biso   1.000  O
  O11      1.0000 0.48540  0.58630  0.35560  Biso   1.000  O
  O12      1.0000 0.52930  0.56880  0.47760  Biso   1.000  O
  O13      1.0000 0.85370  0.84640  0.30800  Biso   1.000  O
  O14      1.0000 0.91430  0.82620  0.25200  Biso   1.000  O
  O15      1.0000 0.65320  0.68300  0.36030  Biso   1.000  O
  O16      1.0000 0.59830  0.69400  0.41830  Biso   1.000  O
  O17      1.0000 0.86550  0.18760  0.47850  Biso   1.000  O
  O18      1.0000 0.92770  0.20720  0.42270  Biso   1.000  O
  H22      1.0000 0.56900  0.60300  0.49500  Biso   1.000  H
  H23      1.0000 0.52700  0.37700  0.32200  Biso   1.000  H
  H24      1.0000 0.45600  0.64300  0.34700  Biso   1.000  H
  Co9      1.0000 0.99312  0.09479  0.08266  Biso   1.000  Co
  Co10     1.0000 0.07451  0.07049  0.99712  Biso   1.000  Co
  Co11     1.0000 0.08103  0.95850  0.16678  Biso   1.000  Co
  Co12     1.0000 0.91000  0.06817  0.16446  Biso   1.000  Co
  C43      1.0000 0.81180  0.13680  0.23610  Biso   1.000  C
  C44      1.0000 0.81310  0.11180  0.27620  Biso   1.000  C
  C45      1.0000 0.76280  0.15120  0.30370  Biso   1.000  C
  H25      1.0000 0.76520  0.13390  0.33080  Biso   1.000  H
  C46      1.0000 0.70930  0.21870  0.28530  Biso   1.000  C
  H26      1.0000 0.67540  0.25040  0.30100  Biso   1.000  H
  C47      1.0000 0.70590  0.24000  0.24300  Biso   1.000  C
  C48      1.0000 0.75720  0.20070  0.21840  Biso   1.000  C
  H27      1.0000 0.75500  0.21650  0.19110  Biso   1.000  H
  C49      1.0000 0.64010  0.30900  0.22610  Biso   1.000  C
  C50      1.0000 0.68410  0.39770  0.09590  Biso   1.000  C
  C51      1.0000 0.68360  0.41950  0.05560  Biso   1.000  C
  C52      1.0000 0.73260  0.38010  0.03010  Biso   1.000  C
  H28      1.0000 0.72950  0.39610  0.00280  Biso   1.000  H
  C53      1.0000 0.78760  0.31410  0.04780  Biso   1.000  C
  H29      1.0000 0.82430  0.28760  0.03220  Biso   1.000  H
  C54      1.0000 0.78920  0.28690  0.08800  Biso   1.000  C
  C55      1.0000 0.73950  0.32800  0.11190  Biso   1.000  C
  H30      1.0000 0.74150  0.31040  0.13900  Biso   1.000  H
  C56      1.0000 0.85160  0.21530  0.10510  Biso   1.000  C
  C57      1.0000 0.80340  0.91680  0.10860  Biso   1.000  C
  C58      1.0000 0.80110  0.88980  0.06840  Biso   1.000  C
  C59      1.0000 0.69370  0.81480  0.11590  Biso   1.000  C
  H31      1.0000 0.65590  0.78890  0.13100  Biso   1.000  H
  C60      1.0000 0.69190  0.79200  0.07320  Biso   1.000  C
  C61      1.0000 0.74810  0.82750  0.05080  Biso   1.000  C
  H32      1.0000 0.74960  0.80890  0.02410  Biso   1.000  H
  C62      1.0000 0.75030  0.87360  0.13360  Biso   1.000  C
  H33      1.0000 0.75460  0.88560  0.16140  Biso   1.000  H
  C63      1.0000 0.62870  0.72200  0.05570  Biso   1.000  C
  N19      1.0000 0.87060  0.08150  0.22000  Biso   1.000  N
  N20      1.0000 0.90560  0.03070  0.25050  Biso   1.000  N
  N21      1.0000 0.87460  0.04780  0.28460  Biso   1.000  N
  N22      1.0000 0.62770  0.45100  0.11250  Biso   1.000  N
  N23      1.0000 0.59440  0.50360  0.08160  Biso   1.000  N
  N24      1.0000 0.62620  0.49150  0.04660  Biso   1.000  N
  N25      1.0000 0.86260  0.97850  0.11880  Biso   1.000  N
  N26      1.0000 0.89830  0.98970  0.08500  Biso   1.000  N
  N27      1.0000 0.86330  0.94110  0.05350  Biso   1.000  N
  O19      1.0000 0.97630  0.94060  0.18830  Biso   1.000  O
  O20      1.0000 0.01460  0.08630  0.14440  Biso   1.000  O
  O21      1.0000 0.97070  0.06880  0.02240  Biso   1.000  O
  O22      1.0000 0.64630  0.34640  0.19200  Biso   1.000  O
  O23      1.0000 0.58570  0.32620  0.24800  Biso   1.000  O
  O24      1.0000 0.84680  0.18300  0.13970  Biso   1.000  O
  O25      1.0000 0.90170  0.19400  0.08170  Biso   1.000  O
  O26      1.0000 0.63450  0.68760  0.02150  Biso   1.000  O
  O27      1.0000 0.57230  0.70720  0.07730  Biso   1.000  O
  H34      1.0000 0.93100  0.10300  0.00500  Biso   1.000  H
  H35      1.0000 0.97300  0.87700  0.17800  Biso   1.000  H
  H36      1.0000 0.04400  0.14300  0.15300  Biso   1.000  H
  Co13     1.0000 0.49312  0.59479  0.08266  Biso   1.000  Co
  Co14     1.0000 0.57451  0.57049  0.99712  Biso   1.000  Co
  Co15     1.0000 0.58103  0.45850  0.16678  Biso   1.000  Co
  Co16     1.0000 0.41000  0.56817  0.16446  Biso   1.000  Co
  C64      1.0000 0.31180  0.63680  0.23610  Biso   1.000  C
  C65      1.0000 0.31310  0.61180  0.27620  Biso   1.000  C
  C66      1.0000 0.26280  0.65120  0.30370  Biso   1.000  C
  H37      1.0000 0.26520  0.63390  0.33080  Biso   1.000  H
  C67      1.0000 0.20930  0.71870  0.28530  Biso   1.000  C
  H38      1.0000 0.17540  0.75040  0.30100  Biso   1.000  H
  C68      1.0000 0.20590  0.74000  0.24300  Biso   1.000  C
  C69      1.0000 0.25720  0.70070  0.21840  Biso   1.000  C
  H39      1.0000 0.25500  0.71650  0.19110  Biso   1.000  H
  C70      1.0000 0.14010  0.80900  0.22610  Biso   1.000  C
  C71      1.0000 0.18410  0.89770  0.09590  Biso   1.000  C
  C72      1.0000 0.18360  0.91950  0.05560  Biso   1.000  C
  C73      1.0000 0.23260  0.88010  0.03010  Biso   1.000  C
  H40      1.0000 0.22950  0.89610  0.00280  Biso   1.000  H
  C74      1.0000 0.28760  0.81410  0.04780  Biso   1.000  C
  H41      1.0000 0.32430  0.78760  0.03220  Biso   1.000  H
  C75      1.0000 0.28920  0.78690  0.08800  Biso   1.000  C
  C76      1.0000 0.23950  0.82800  0.11190  Biso   1.000  C
  H42      1.0000 0.24150  0.81040  0.13900  Biso   1.000  H
  C77      1.0000 0.35160  0.71530  0.10510  Biso   1.000  C
  C78      1.0000 0.30340  0.41680  0.10860  Biso   1.000  C
  C79      1.0000 0.30110  0.38980  0.06840  Biso   1.000  C
  C80      1.0000 0.19370  0.31480  0.11590  Biso   1.000  C
  H43      1.0000 0.15590  0.28890  0.13100  Biso   1.000  H
  C81      1.0000 0.19190  0.29200  0.07320  Biso   1.000  C
  C82      1.0000 0.24810  0.32750  0.05080  Biso   1.000  C
  H44      1.0000 0.24960  0.30890  0.02410  Biso   1.000  H
  C83      1.0000 0.25030  0.37360  0.13360  Biso   1.000  C
  H45      1.0000 0.25460  0.38560  0.16140  Biso   1.000  H
  C84      1.0000 0.12870  0.22200  0.05570  Biso   1.000  C
  N28      1.0000 0.37060  0.58150  0.22000  Biso   1.000  N
  N29      1.0000 0.40560  0.53070  0.25050  Biso   1.000  N
  N30      1.0000 0.37460  0.54780  0.28460  Biso   1.000  N
  N31      1.0000 0.12770  0.95100  0.11250  Biso   1.000  N
  N32      1.0000 0.09440  0.00360  0.08160  Biso   1.000  N
  N33      1.0000 0.12620  0.99150  0.04660  Biso   1.000  N
  N34      1.0000 0.36260  0.47850  0.11880  Biso   1.000  N
  N35      1.0000 0.39830  0.48970  0.08500  Biso   1.000  N
  N36      1.0000 0.36330  0.44110  0.05350  Biso   1.000  N
  O28      1.0000 0.47630  0.44060  0.18830  Biso   1.000  O
  O29      1.0000 0.51460  0.58630  0.14440  Biso   1.000  O
  O30      1.0000 0.47070  0.56880  0.02240  Biso   1.000  O
  O31      1.0000 0.14630  0.84640  0.19200  Biso   1.000  O
  O32      1.0000 0.08570  0.82620  0.24800  Biso   1.000  O
  O33      1.0000 0.34680  0.68300  0.13970  Biso   1.000  O
  O34      1.0000 0.40170  0.69400  0.08170  Biso   1.000  O
  O35      1.0000 0.13450  0.18760  0.02150  Biso   1.000  O
  O36      1.0000 0.07230  0.20720  0.07730  Biso   1.000  O
  H46      1.0000 0.43100  0.60300  0.00500  Biso   1.000  H
  H47      1.0000 0.47300  0.37700  0.17800  Biso   1.000  H
  H48      1.0000 0.54400  0.64300  0.15300  Biso   1.000  H
  Co17     1.0000 0.99312  0.90521  0.58266  Biso   1.000  Co
  Co18     1.0000 0.07451  0.92951  0.49712  Biso   1.000  Co
  Co19     1.0000 0.08103  0.04150  0.66678  Biso   1.000  Co
  Co20     1.0000 0.91000  0.93183  0.66446  Biso   1.000  Co
  C85      1.0000 0.81180  0.86320  0.73610  Biso   1.000  C
  C86      1.0000 0.81310  0.88820  0.77620  Biso   1.000  C
  C87      1.0000 0.76280  0.84880  0.80370  Biso   1.000  C
  H49      1.0000 0.76520  0.86610  0.83080  Biso   1.000  H
  C88      1.0000 0.70930  0.78130  0.78530  Biso   1.000  C
  H50      1.0000 0.67540  0.74960  0.80100  Biso   1.000  H
  C89      1.0000 0.70590  0.76000  0.74300  Biso   1.000  C
  C90      1.0000 0.75720  0.79930  0.71840  Biso   1.000  C
  H51      1.0000 0.75500  0.78350  0.69110  Biso   1.000  H
  C91      1.0000 0.64010  0.69100  0.72610  Biso   1.000  C
  C92      1.0000 0.68410  0.60230  0.59590  Biso   1.000  C
  C93      1.0000 0.68360  0.58050  0.55560  Biso   1.000  C
  C94      1.0000 0.73260  0.61990  0.53010  Biso   1.000  C
  H52      1.0000 0.72950  0.60390  0.50280  Biso   1.000  H
  C95      1.0000 0.78760  0.68590  0.54780  Biso   1.000  C
  H53      1.0000 0.82430  0.71240  0.53220  Biso   1.000  H
  C96      1.0000 0.78920  0.71310  0.58800  Biso   1.000  C
  C97      1.0000 0.73950  0.67200  0.61190  Biso   1.000  C
  H54      1.0000 0.74150  0.68960  0.63900  Biso   1.000  H
  C98      1.0000 0.85160  0.78470  0.60510  Biso   1.000  C
  C99      1.0000 0.80340  0.08320  0.60860  Biso   1.000  C
  C100     1.0000 0.80110  0.11020  0.56840  Biso   1.000  C
  C101     1.0000 0.69370  0.18520  0.61590  Biso   1.000  C
  H55      1.0000 0.65590  0.21110  0.63100  Biso   1.000  H
  C102     1.0000 0.69190  0.20800  0.57320  Biso   1.000  C
  C103     1.0000 0.74810  0.17250  0.55080  Biso   1.000  C
  H56      1.0000 0.74960  0.19110  0.52410  Biso   1.000  H
  C104     1.0000 0.75030  0.12640  0.63360  Biso   1.000  C
  H57      1.0000 0.75460  0.11440  0.66140  Biso   1.000  H
  C105     1.0000 0.62870  0.27800  0.55570  Biso   1.000  C
  N37      1.0000 0.87060  0.91850  0.72000  Biso   1.000  N
  N38      1.0000 0.90560  0.96930  0.75050  Biso   1.000  N
  N39      1.0000 0.87460  0.95220  0.78460  Biso   1.000  N
  N40      1.0000 0.62770  0.54900  0.61250  Biso   1.000  N
  N41      1.0000 0.59440  0.49640  0.58160  Biso   1.000  N
  N42      1.0000 0.62620  0.50850  0.54660  Biso   1.000  N
  N43      1.0000 0.86260  0.02150  0.61880  Biso   1.000  N
  N44      1.0000 0.89830  0.01030  0.58500  Biso   1.000  N
  N45      1.0000 0.86330  0.05890  0.55350  Biso   1.000  N
  O37      1.0000 0.97630  0.05940  0.68830  Biso   1.000  O
  O38      1.0000 0.01460  0.91370  0.64440  Biso   1.000  O
  O39      1.0000 0.97070  0.93120  0.52240  Biso   1.000  O
  O40      1.0000 0.64630  0.65360  0.69200  Biso   1.000  O
  O41      1.0000 0.58570  0.67380  0.74800  Biso   1.000  O
  O42      1.0000 0.84680  0.81700  0.63970  Biso   1.000  O
  O43      1.0000 0.90170  0.80600  0.58170  Biso   1.000  O
  O44      1.0000 0.63450  0.31240  0.52150  Biso   1.000  O
  O45      1.0000 0.57230  0.29280  0.57730  Biso   1.000  O
  H58      1.0000 0.93100  0.89700  0.50500  Biso   1.000  H
  H59      1.0000 0.97300  0.12300  0.67800  Biso   1.000  H
  H60      1.0000 0.04400  0.85700  0.65300  Biso   1.000  H
  Co21     1.0000 0.49312  0.40521  0.58266  Biso   1.000  Co
  Co22     1.0000 0.57451  0.42951  0.49712  Biso   1.000  Co
  Co23     1.0000 0.58103  0.54150  0.66678  Biso   1.000  Co
  Co24     1.0000 0.41000  0.43183  0.66446  Biso   1.000  Co
  C106     1.0000 0.31180  0.36320  0.73610  Biso   1.000  C
  C107     1.0000 0.31310  0.38820  0.77620  Biso   1.000  C
  C108     1.0000 0.26280  0.34880  0.80370  Biso   1.000  C
  H61      1.0000 0.26520  0.36610  0.83080  Biso   1.000  H
  C109     1.0000 0.20930  0.28130  0.78530  Biso   1.000  C
  H62      1.0000 0.17540  0.24960  0.80100  Biso   1.000  H
  C110     1.0000 0.20590  0.26000  0.74300  Biso   1.000  C
  C111     1.0000 0.25720  0.29930  0.71840  Biso   1.000  C
  H63      1.0000 0.25500  0.28350  0.69110  Biso   1.000  H
  C112     1.0000 0.14010  0.19100  0.72610  Biso   1.000  C
  C113     1.0000 0.18410  0.10230  0.59590  Biso   1.000  C
  C114     1.0000 0.18360  0.08050  0.55560  Biso   1.000  C
  C115     1.0000 0.23260  0.11990  0.53010  Biso   1.000  C
  H64      1.0000 0.22950  0.10390  0.50280  Biso   1.000  H
  C116     1.0000 0.28760  0.18590  0.54780  Biso   1.000  C
  H65      1.0000 0.32430  0.21240  0.53220  Biso   1.000  H
  C117     1.0000 0.28920  0.21310  0.58800  Biso   1.000  C
  C118     1.0000 0.23950  0.17200  0.61190  Biso   1.000  C
  H66      1.0000 0.24150  0.18960  0.63900  Biso   1.000  H
  C119     1.0000 0.35160  0.28470  0.60510  Biso   1.000  C
  C120     1.0000 0.30340  0.58320  0.60860  Biso   1.000  C
  C121     1.0000 0.30110  0.61020  0.56840  Biso   1.000  C
  C122     1.0000 0.19370  0.68520  0.61590  Biso   1.000  C
  H67      1.0000 0.15590  0.71110  0.63100  Biso   1.000  H
  C123     1.0000 0.19190  0.70800  0.57320  Biso   1.000  C
  C124     1.0000 0.24810  0.67250  0.55080  Biso   1.000  C
  H68      1.0000 0.24960  0.69110  0.52410  Biso   1.000  H
  C125     1.0000 0.25030  0.62640  0.63360  Biso   1.000  C
  H69      1.0000 0.25460  0.61440  0.66140  Biso   1.000  H
  C126     1.0000 0.12870  0.77800  0.55570  Biso   1.000  C
  N46      1.0000 0.37060  0.41850  0.72000  Biso   1.000  N
  N47      1.0000 0.40560  0.46930  0.75050  Biso   1.000  N
  N48      1.0000 0.37460  0.45220  0.78460  Biso   1.000  N
  N49      1.0000 0.12770  0.04900  0.61250  Biso   1.000  N
  N50      1.0000 0.09440  0.99640  0.58160  Biso   1.000  N
  N51      1.0000 0.12620  0.00850  0.54660  Biso   1.000  N
  N52      1.0000 0.36260  0.52150  0.61880  Biso   1.000  N
  N53      1.0000 0.39830  0.51030  0.58500  Biso   1.000  N
  N54      1.0000 0.36330  0.55890  0.55350  Biso   1.000  N
  O46      1.0000 0.47630  0.55940  0.68830  Biso   1.000  O
  O47      1.0000 0.51460  0.41370  0.64440  Biso   1.000  O
  O48      1.0000 0.47070  0.43120  0.52240  Biso   1.000  O
  O49      1.0000 0.14630  0.15360  0.69200  Biso   1.000  O
  O50      1.0000 0.08570  0.17380  0.74800  Biso   1.000  O
  O51      1.0000 0.34680  0.31700  0.63970  Biso   1.000  O
  O52      1.0000 0.40170  0.30600  0.58170  Biso   1.000  O
  O53      1.0000 0.13450  0.81240  0.52150  Biso   1.000  O
  O54      1.0000 0.07230  0.79280  0.57730  Biso   1.000  O
  H70      1.0000 0.43100  0.39700  0.50500  Biso   1.000  H
  H71      1.0000 0.47300  0.62300  0.67800  Biso   1.000  H
  H72      1.0000 0.54400  0.35700  0.65300  Biso   1.000  H
  Co25     1.0000 0.00688  0.90521  0.91734  Biso   1.000  Co
  Co26     1.0000 0.92549  0.92951  0.00288  Biso   1.000  Co
  Co27     1.0000 0.91897  0.04150  0.83322  Biso   1.000  Co
  Co28     1.0000 0.09000  0.93183  0.83554  Biso   1.000  Co
  C127     1.0000 0.18820  0.86320  0.76390  Biso   1.000  C
  C128     1.0000 0.18690  0.88820  0.72380  Biso   1.000  C
  C129     1.0000 0.23720  0.84880  0.69630  Biso   1.000  C
  H73      1.0000 0.23480  0.86610  0.66920  Biso   1.000  H
  C130     1.0000 0.29070  0.78130  0.71470  Biso   1.000  C
  H74      1.0000 0.32460  0.74960  0.69900  Biso   1.000  H
  C131     1.0000 0.29410  0.76000  0.75700  Biso   1.000  C
  C132     1.0000 0.24280  0.79930  0.78160  Biso   1.000  C
  H75      1.0000 0.24500  0.78350  0.80890  Biso   1.000  H
  C133     1.0000 0.35990  0.69100  0.77390  Biso   1.000  C
  C134     1.0000 0.31590  0.60230  0.90410  Biso   1.000  C
  C135     1.0000 0.31640  0.58050  0.94440  Biso   1.000  C
  C136     1.0000 0.26740  0.61990  0.96990  Biso   1.000  C
  H76      1.0000 0.27050  0.60390  0.99720  Biso   1.000  H
  C137     1.0000 0.21240  0.68590  0.95220  Biso   1.000  C
  H77      1.0000 0.17570  0.71240  0.96780  Biso   1.000  H
  C138     1.0000 0.21080  0.71310  0.91200  Biso   1.000  C
  C139     1.0000 0.26050  0.67200  0.88810  Biso   1.000  C
  H78      1.0000 0.25850  0.68960  0.86100  Biso   1.000  H
  C140     1.0000 0.14840  0.78470  0.89490  Biso   1.000  C
  C141     1.0000 0.19660  0.08320  0.89140  Biso   1.000  C
  C142     1.0000 0.19890  0.11020  0.93160  Biso   1.000  C
  C143     1.0000 0.30630  0.18520  0.88410  Biso   1.000  C
  H79      1.0000 0.34410  0.21110  0.86900  Biso   1.000  H
  C144     1.0000 0.30810  0.20800  0.92680  Biso   1.000  C
  C145     1.0000 0.25190  0.17250  0.94920  Biso   1.000  C
  H80      1.0000 0.25040  0.19110  0.97590  Biso   1.000  H
  C146     1.0000 0.24970  0.12640  0.86640  Biso   1.000  C
  H81      1.0000 0.24540  0.11440  0.83860  Biso   1.000  H
  C147     1.0000 0.37130  0.27800  0.94430  Biso   1.000  C
  N55      1.0000 0.12940  0.91850  0.78000  Biso   1.000  N
  N56      1.0000 0.09440  0.96930  0.74950  Biso   1.000  N
  N57      1.0000 0.12540  0.95220  0.71540  Biso   1.000  N
  N58      1.0000 0.37230  0.54900  0.88750  Biso   1.000  N
  N59      1.0000 0.40560  0.49640  0.91840  Biso   1.000  N
  N60      1.0000 0.37380  0.50850  0.95340  Biso   1.000  N
  N61      1.0000 0.13740  0.02150  0.88120  Biso   1.000  N
  N62      1.0000 0.10170  0.01030  0.91500  Biso   1.000  N
  N63      1.0000 0.13670  0.05890  0.94650  Biso   1.000  N
  O55      1.0000 0.02370  0.05940  0.81170  Biso   1.000  O
  O56      1.0000 0.98540  0.91370  0.85560  Biso   1.000  O
  O57      1.0000 0.02930  0.93120  0.97760  Biso   1.000  O
  O58      1.0000 0.35370  0.65360  0.80800  Biso   1.000  O
  O59      1.0000 0.41430  0.67380  0.75200  Biso   1.000  O
  O60      1.0000 0.15320  0.81700  0.86030  Biso   1.000  O
  O61      1.0000 0.09830  0.80600  0.91830  Biso   1.000  O
  O62      1.0000 0.36550  0.31240  0.97850  Biso   1.000  O
  O63      1.0000 0.42770  0.29280  0.92270  Biso   1.000  O
  H82      1.0000 0.06900  0.89700  0.99500  Biso   1.000  H
  H83      1.0000 0.02700  0.12300  0.82200  Biso   1.000  H
  H84      1.0000 0.95600  0.85700  0.84700  Biso   1.000  H
  Co29     1.0000 0.50688  0.40521  0.91734  Biso   1.000  Co
  Co30     1.0000 0.42549  0.42951  0.00288  Biso   1.000  Co
  Co31     1.0000 0.41897  0.54150  0.83322  Biso   1.000  Co
  Co32     1.0000 0.59000  0.43183  0.83554  Biso   1.000  Co
  C148     1.0000 0.68820  0.36320  0.76390  Biso   1.000  C
  C149     1.0000 0.68690  0.38820  0.72380  Biso   1.000  C
  C150     1.0000 0.73720  0.34880  0.69630  Biso   1.000  C
  H85      1.0000 0.73480  0.36610  0.66920  Biso   1.000  H
  C151     1.0000 0.79070  0.28130  0.71470  Biso   1.000  C
  H86      1.0000 0.82460  0.24960  0.69900  Biso   1.000  H
  C152     1.0000 0.79410  0.26000  0.75700  Biso   1.000  C
  C153     1.0000 0.74280  0.29930  0.78160  Biso   1.000  C
  H87      1.0000 0.74500  0.28350  0.80890  Biso   1.000  H
  C154     1.0000 0.85990  0.19100  0.77390  Biso   1.000  C
  C155     1.0000 0.81590  0.10230  0.90410  Biso   1.000  C
  C156     1.0000 0.81640  0.08050  0.94440  Biso   1.000  C
  C157     1.0000 0.76740  0.11990  0.96990  Biso   1.000  C
  H88      1.0000 0.77050  0.10390  0.99720  Biso   1.000  H
  C158     1.0000 0.71240  0.18590  0.95220  Biso   1.000  C
  H89      1.0000 0.67570  0.21240  0.96780  Biso   1.000  H
  C159     1.0000 0.71080  0.21310  0.91200  Biso   1.000  C
  C160     1.0000 0.76050  0.17200  0.88810  Biso   1.000  C
  H90      1.0000 0.75850  0.18960  0.86100  Biso   1.000  H
  C161     1.0000 0.64840  0.28470  0.89490  Biso   1.000  C
  C162     1.0000 0.69660  0.58320  0.89140  Biso   1.000  C
  C163     1.0000 0.69890  0.61020  0.93160  Biso   1.000  C
  C164     1.0000 0.80630  0.68520  0.88410  Biso   1.000  C
  H91      1.0000 0.84410  0.71110  0.86900  Biso   1.000  H
  C165     1.0000 0.80810  0.70800  0.92680  Biso   1.000  C
  C166     1.0000 0.75190  0.67250  0.94920  Biso   1.000  C
  H92      1.0000 0.75040  0.69110  0.97590  Biso   1.000  H
  C167     1.0000 0.74970  0.62640  0.86640  Biso   1.000  C
  H93      1.0000 0.74540  0.61440  0.83860  Biso   1.000  H
  C168     1.0000 0.87130  0.77800  0.94430  Biso   1.000  C
  N64      1.0000 0.62940  0.41850  0.78000  Biso   1.000  N
  N65      1.0000 0.59440  0.46930  0.74950  Biso   1.000  N
  N66      1.0000 0.62540  0.45220  0.71540  Biso   1.000  N
  N67      1.0000 0.87230  0.04900  0.88750  Biso   1.000  N
  N68      1.0000 0.90560  0.99640  0.91840  Biso   1.000  N
  N69      1.0000 0.87380  0.00850  0.95340  Biso   1.000  N
  N70      1.0000 0.63740  0.52150  0.88120  Biso   1.000  N
  N71      1.0000 0.60170  0.51030  0.91500  Biso   1.000  N
  N72      1.0000 0.63670  0.55890  0.94650  Biso   1.000  N
  O64      1.0000 0.52370  0.55940  0.81170  Biso   1.000  O
  O65      1.0000 0.48540  0.41370  0.85560  Biso   1.000  O
  O66      1.0000 0.52930  0.43120  0.97760  Biso   1.000  O
  O67      1.0000 0.85370  0.15360  0.80800  Biso   1.000  O
  O68      1.0000 0.91430  0.17380  0.75200  Biso   1.000  O
  O69      1.0000 0.65320  0.31700  0.86030  Biso   1.000  O
  O70      1.0000 0.59830  0.30600  0.91830  Biso   1.000  O
  O71      1.0000 0.86550  0.81240  0.97850  Biso   1.000  O
  O72      1.0000 0.92770  0.79280  0.92270  Biso   1.000  O
  H94      1.0000 0.56900  0.39700  0.99500  Biso   1.000  H
  H95      1.0000 0.52700  0.62300  0.82200  Biso   1.000  H
  H96      1.0000 0.45600  0.35700  0.84700  Biso   1.000  H
  Co33     1.0000 0.00000  0.92944  0.25000  Biso   1.000  Co
  Co34     1.0000 0.50000  0.42944  0.25000  Biso   1.000  Co
  Co35     1.0000 0.00000  0.07056  0.75000  Biso   1.000  Co
  Co36     1.0000 0.50000  0.57056  0.75000  Biso   1.000  Co
