data_image0
_cell_length_a       17.762
_cell_length_b       12.868
_cell_length_c       11.2322
_cell_angle_alpha    90
_cell_angle_beta     95.198
_cell_angle_gamma    90

_symmetry_space_group_name_H-M    "P 1"
_symmetry_int_tables_number       1

loop_
  _symmetry_equiv_pos_as_xyz
  'x, y, z'

loop_
  _atom_site_label
  _atom_site_occupancy
  _atom_site_fract_x
  _atom_site_fract_y
  _atom_site_fract_z
  _atom_site_thermal_displace_type
  _atom_site_B_iso_or_equiv
  _atom_site_type_symbol
  Co1      1.0000 0.57936  0.55808  0.00037  Biso   1.000  Co
  N1       1.0000 0.87330  0.93520  0.16220  Biso   1.000  N
  N2       1.0000 0.90950  0.98360  0.25360  Biso   1.000  N
  N3       1.0000 0.87630  0.97220  0.35560  Biso   1.000  N
  C1       1.0000 0.81130  0.88890  0.20420  Biso   1.000  C
  C2       1.0000 0.81530  0.91030  0.32810  Biso   1.000  C
  C3       1.0000 0.76090  0.87450  0.39990  Biso   1.000  C
  H1       1.0000 0.76200  0.89210  0.48030  Biso   1.000  H
  C4       1.0000 0.70380  0.81020  0.34400  Biso   1.000  C
  H2       1.0000 0.66940  0.77890  0.39020  Biso   1.000  H
  C5       1.0000 0.69780  0.79210  0.21830  Biso   1.000  C
  C6       1.0000 0.75200  0.82720  0.14860  Biso   1.000  C
  H3       1.0000 0.75000  0.81100  0.06770  Biso   1.000  H
  C7       1.0000 0.63540  0.72280  0.16930  Biso   1.000  C
  O1       1.0000 0.63750  0.68660  0.06470  Biso   1.000  O
  O2       1.0000 0.58230  0.70970  0.23530  Biso   1.000  O
  O3       1.0000 0.48110  0.57730  0.06830  Biso   1.000  O
  H4       1.0000 0.44690  0.61810  0.03680  Biso   1.000  H
  Co2      1.0000 0.07936  0.05808  0.00037  Biso   1.000  Co
  N4       1.0000 0.37330  0.43520  0.16220  Biso   1.000  N
  N5       1.0000 0.40950  0.48360  0.25360  Biso   1.000  N
  N6       1.0000 0.37630  0.47220  0.35560  Biso   1.000  N
  C8       1.0000 0.31130  0.38890  0.20420  Biso   1.000  C
  C9       1.0000 0.31530  0.41030  0.32810  Biso   1.000  C
  C10      1.0000 0.26090  0.37450  0.39990  Biso   1.000  C
  H5       1.0000 0.26200  0.39210  0.48030  Biso   1.000  H
  C11      1.0000 0.20380  0.31020  0.34400  Biso   1.000  C
  H6       1.0000 0.16940  0.27890  0.39020  Biso   1.000  H
  C12      1.0000 0.19780  0.29210  0.21830  Biso   1.000  C
  C13      1.0000 0.25200  0.32720  0.14860  Biso   1.000  C
  H7       1.0000 0.25000  0.31100  0.06770  Biso   1.000  H
  C14      1.0000 0.13540  0.22280  0.16930  Biso   1.000  C
  O4       1.0000 0.13750  0.18660  0.06470  Biso   1.000  O
  O5       1.0000 0.08230  0.20970  0.23530  Biso   1.000  O
  O6       1.0000 0.98110  0.07730  0.06830  Biso   1.000  O
  H8       1.0000 0.94690  0.11810  0.03680  Biso   1.000  H
  Co3      1.0000 0.42064  0.55808  0.49963  Biso   1.000  Co
  N7       1.0000 0.12670  0.93520  0.33780  Biso   1.000  N
  N8       1.0000 0.09050  0.98360  0.24640  Biso   1.000  N
  N9       1.0000 0.12370  0.97220  0.14440  Biso   1.000  N
  C15      1.0000 0.18870  0.88890  0.29580  Biso   1.000  C
  C16      1.0000 0.18470  0.91030  0.17190  Biso   1.000  C
  C17      1.0000 0.23910  0.87450  0.10010  Biso   1.000  C
  H9       1.0000 0.23800  0.89210  0.01970  Biso   1.000  H
  C18      1.0000 0.29620  0.81020  0.15600  Biso   1.000  C
  H10      1.0000 0.33060  0.77890  0.10980  Biso   1.000  H
  C19      1.0000 0.30220  0.79210  0.28170  Biso   1.000  C
  C20      1.0000 0.24800  0.82720  0.35140  Biso   1.000  C
  H11      1.0000 0.25000  0.81100  0.43230  Biso   1.000  H
  C21      1.0000 0.36460  0.72280  0.33070  Biso   1.000  C
  O7       1.0000 0.36250  0.68660  0.43530  Biso   1.000  O
  O8       1.0000 0.41770  0.70970  0.26470  Biso   1.000  O
  O9       1.0000 0.51890  0.57730  0.43170  Biso   1.000  O
  H12      1.0000 0.55310  0.61810  0.46320  Biso   1.000  H
  Co4      1.0000 0.92064  0.05808  0.49963  Biso   1.000  Co
  N10      1.0000 0.62670  0.43520  0.33780  Biso   1.000  N
  N11      1.0000 0.59050  0.48360  0.24640  Biso   1.000  N
  N12      1.0000 0.62370  0.47220  0.14440  Biso   1.000  N
  C22      1.0000 0.68870  0.38890  0.29580  Biso   1.000  C
  C23      1.0000 0.68470  0.41030  0.17190  Biso   1.000  C
  C24      1.0000 0.73910  0.37450  0.10010  Biso   1.000  C
  H13      1.0000 0.73800  0.39210  0.01970  Biso   1.000  H
  C25      1.0000 0.79620  0.31020  0.15600  Biso   1.000  C
  H14      1.0000 0.83060  0.27890  0.10980  Biso   1.000  H
  C26      1.0000 0.80220  0.29210  0.28170  Biso   1.000  C
  C27      1.0000 0.74800  0.32720  0.35140  Biso   1.000  C
  H15      1.0000 0.75000  0.31100  0.43230  Biso   1.000  H
  C28      1.0000 0.86460  0.22280  0.33070  Biso   1.000  C
  O10      1.0000 0.86250  0.18660  0.43530  Biso   1.000  O
  O11      1.0000 0.91770  0.20970  0.26470  Biso   1.000  O
  O12      1.0000 0.01890  0.07730  0.43170  Biso   1.000  O
  H16      1.0000 0.05310  0.11810  0.46320  Biso   1.000  H
  Co5      1.0000 0.42064  0.44192  0.99963  Biso   1.000  Co
  N13      1.0000 0.12670  0.06480  0.83780  Biso   1.000  N
  N14      1.0000 0.09050  0.01640  0.74640  Biso   1.000  N
  N15      1.0000 0.12370  0.02780  0.64440  Biso   1.000  N
  C29      1.0000 0.18870  0.11110  0.79580  Biso   1.000  C
  C30      1.0000 0.18470  0.08970  0.67190  Biso   1.000  C
  C31      1.0000 0.23910  0.12550  0.60010  Biso   1.000  C
  H17      1.0000 0.23800  0.10790  0.51970  Biso   1.000  H
  C32      1.0000 0.29620  0.18980  0.65600  Biso   1.000  C
  H18      1.0000 0.33060  0.22110  0.60980  Biso   1.000  H
  C33      1.0000 0.30220  0.20790  0.78170  Biso   1.000  C
  C34      1.0000 0.24800  0.17280  0.85140  Biso   1.000  C
  H19      1.0000 0.25000  0.18900  0.93230  Biso   1.000  H
  C35      1.0000 0.36460  0.27720  0.83070  Biso   1.000  C
  O13      1.0000 0.36250  0.31340  0.93530  Biso   1.000  O
  O14      1.0000 0.41770  0.29030  0.76470  Biso   1.000  O
  O15      1.0000 0.51890  0.42270  0.93170  Biso   1.000  O
  H20      1.0000 0.55310  0.38190  0.96320  Biso   1.000  H
  Co6      1.0000 0.92064  0.94192  0.99963  Biso   1.000  Co
  N16      1.0000 0.62670  0.56480  0.83780  Biso   1.000  N
  N17      1.0000 0.59050  0.51640  0.74640  Biso   1.000  N
  N18      1.0000 0.62370  0.52780  0.64440  Biso   1.000  N
  C36      1.0000 0.68870  0.61110  0.79580  Biso   1.000  C
  C37      1.0000 0.68470  0.58970  0.67190  Biso   1.000  C
  C38      1.0000 0.73910  0.62550  0.60010  Biso   1.000  C
  H21      1.0000 0.73800  0.60790  0.51970  Biso   1.000  H
  C39      1.0000 0.79620  0.68980  0.65600  Biso   1.000  C
  H22      1.0000 0.83060  0.72110  0.60980  Biso   1.000  H
  C40      1.0000 0.80220  0.70790  0.78170  Biso   1.000  C
  C41      1.0000 0.74800  0.67280  0.85140  Biso   1.000  C
  H23      1.0000 0.75000  0.68900  0.93230  Biso   1.000  H
  C42      1.0000 0.86460  0.77720  0.83070  Biso   1.000  C
  O16      1.0000 0.86250  0.81340  0.93530  Biso   1.000  O
  O17      1.0000 0.91770  0.79030  0.76470  Biso   1.000  O
  O18      1.0000 0.01890  0.92270  0.93170  Biso   1.000  O
  H24      1.0000 0.05310  0.88190  0.96320  Biso   1.000  H
  Co7      1.0000 0.57936  0.44192  0.50037  Biso   1.000  Co
  N19      1.0000 0.87330  0.06480  0.66220  Biso   1.000  N
  N20      1.0000 0.90950  0.01640  0.75360  Biso   1.000  N
  N21      1.0000 0.87630  0.02780  0.85560  Biso   1.000  N
  C43      1.0000 0.81130  0.11110  0.70420  Biso   1.000  C
  C44      1.0000 0.81530  0.08970  0.82810  Biso   1.000  C
  C45      1.0000 0.76090  0.12550  0.89990  Biso   1.000  C
  H25      1.0000 0.76200  0.10790  0.98030  Biso   1.000  H
  C46      1.0000 0.70380  0.18980  0.84400  Biso   1.000  C
  H26      1.0000 0.66940  0.22110  0.89020  Biso   1.000  H
  C47      1.0000 0.69780  0.20790  0.71830  Biso   1.000  C
  C48      1.0000 0.75200  0.17280  0.64860  Biso   1.000  C
  H27      1.0000 0.75000  0.18900  0.56770  Biso   1.000  H
  C49      1.0000 0.63540  0.27720  0.66930  Biso   1.000  C
  O19      1.0000 0.63750  0.31340  0.56470  Biso   1.000  O
  O20      1.0000 0.58230  0.29030  0.73530  Biso   1.000  O
  O21      1.0000 0.48110  0.42270  0.56830  Biso   1.000  O
  H28      1.0000 0.44690  0.38190  0.53680  Biso   1.000  H
  Co8      1.0000 0.07936  0.94192  0.50037  Biso   1.000  Co
  N22      1.0000 0.37330  0.56480  0.66220  Biso   1.000  N
  N23      1.0000 0.40950  0.51640  0.75360  Biso   1.000  N
  N24      1.0000 0.37630  0.52780  0.85560  Biso   1.000  N
  C50      1.0000 0.31130  0.61110  0.70420  Biso   1.000  C
  C51      1.0000 0.31530  0.58970  0.82810  Biso   1.000  C
  C52      1.0000 0.26090  0.62550  0.89990  Biso   1.000  C
  H29      1.0000 0.26200  0.60790  0.98030  Biso   1.000  H
  C53      1.0000 0.20380  0.68980  0.84400  Biso   1.000  C
  H30      1.0000 0.16940  0.72110  0.89020  Biso   1.000  H
  C54      1.0000 0.19780  0.70790  0.71830  Biso   1.000  C
  C55      1.0000 0.25200  0.67280  0.64860  Biso   1.000  C
  H31      1.0000 0.25000  0.68900  0.56770  Biso   1.000  H
  C56      1.0000 0.13540  0.77720  0.66930  Biso   1.000  C
  O22      1.0000 0.13750  0.81340  0.56470  Biso   1.000  O
  O23      1.0000 0.08230  0.79030  0.73530  Biso   1.000  O
  O24      1.0000 0.98110  0.92270  0.56830  Biso   1.000  O
  H32      1.0000 0.94690  0.88190  0.53680  Biso   1.000  H
  Co9      1.0000 0.50000  0.59410  0.25000  Biso   1.000  Co
  Co10     1.0000 0.00000  0.09410  0.25000  Biso   1.000  Co
  Co11     1.0000 0.50000  0.40590  0.75000  Biso   1.000  Co
  Co12     1.0000 0.00000  0.90590  0.75000  Biso   1.000  Co
