data_image0
_cell_length_a       10.852
_cell_length_b       10.9126
_cell_length_c       11.1478
_cell_angle_alpha    84.499
_cell_angle_beta     88.211
_cell_angle_gamma    66.36

_symmetry_space_group_name_H-M    "P 1"
_symmetry_int_tables_number       1

loop_
  _symmetry_equiv_pos_as_xyz
  'x, y, z'

loop_
  _atom_site_label
  _atom_site_occupancy
  _atom_site_fract_x
  _atom_site_fract_y
  _atom_site_fract_z
  _atom_site_thermal_displace_type
  _atom_site_B_iso_or_equiv
  _atom_site_type_symbol
  Co1      1.0000 0.09510  0.89330  0.25220  Biso   1.000  Co
  Co2      1.0000 0.96770  0.86770  0.00120  Biso   1.000  Co
  Co3      1.0000 0.84980  0.01410  0.48490  Biso   1.000  Co
  N1       1.0000 0.79900  0.94320  0.33190  Biso   1.000  N
  N2       1.0000 0.87900  0.94140  0.23820  Biso   1.000  N
  N3       1.0000 0.83100  0.91440  0.13980  Biso   1.000  N
  N4       1.0000 0.07610  0.17660  0.16350  Biso   1.000  N
  N5       1.0000 0.08980  0.08710  0.25810  Biso   1.000  N
  N6       1.0000 0.10700  0.12890  0.36180  Biso   1.000  N
  C1       1.0000 0.69500  0.91650  0.29360  Biso   1.000  C
  C2       1.0000 0.71500  0.89830  0.17080  Biso   1.000  C
  C3       1.0000 0.62400  0.87200  0.10460  Biso   1.000  C
  H1       1.0000 0.63540  0.86290  0.02250  Biso   1.000  H
  C4       1.0000 0.51500  0.86000  0.16460  Biso   1.000  C
  H2       1.0000 0.45410  0.83970  0.12290  Biso   1.000  H
  C5       1.0000 0.49700  0.87800  0.28630  Biso   1.000  C
  C6       1.0000 0.58500  0.90820  0.35430  Biso   1.000  C
  H3       1.0000 0.57080  0.92170  0.43560  Biso   1.000  H
  C7       1.0000 0.38100  0.86700  0.34360  Biso   1.000  C
  C8       1.0000 0.08500  0.28440  0.20930  Biso   1.000  C
  C9       1.0000 0.10450  0.25450  0.33300  Biso   1.000  C
  C10      1.0000 0.11800  0.34330  0.40780  Biso   1.000  C
  H4       1.0000 0.13070  0.32200  0.49050  Biso   1.000  H
  C11      1.0000 0.11100  0.46580  0.35260  Biso   1.000  C
  H5       1.0000 0.11910  0.52800  0.39970  Biso   1.000  H
  C12      1.0000 0.09200  0.49740  0.22970  Biso   1.000  C
  C13      1.0000 0.07800  0.40810  0.15530  Biso   1.000  C
  H6       1.0000 0.06560  0.42990  0.07270  Biso   1.000  H
  C14      1.0000 0.08500  0.63130  0.17640  Biso   1.000  C
  O1       1.0000 0.09690  0.92710  0.06710  Biso   1.000  O
  H7       1.0000 0.19300  0.87320  0.07280  Biso   1.000  H
  O2       1.0000 0.05700  0.89600  0.42880  Biso   1.000  O
  H8       1.0000 0.05580  0.82220  0.48020  Biso   1.000  H
  O3       1.0000 0.35000  0.90450  0.45040  Biso   1.000  O
  O4       1.0000 0.30500  0.82300  0.28450  Biso   1.000  O
  O5       1.0000 0.04300  0.67280  0.06830  Biso   1.000  O
  O6       1.0000 0.11400  0.69850  0.24840  Biso   1.000  O
  Co4      1.0000 0.90490  0.10670  0.74780  Biso   1.000  Co
  Co5      1.0000 0.03230  0.13230  0.99880  Biso   1.000  Co
  Co6      1.0000 0.15020  0.98590  0.51510  Biso   1.000  Co
  N7       1.0000 0.20100  0.05680  0.66810  Biso   1.000  N
  N8       1.0000 0.12100  0.05860  0.76180  Biso   1.000  N
  N9       1.0000 0.16900  0.08560  0.86020  Biso   1.000  N
  N10      1.0000 0.92390  0.82340  0.83650  Biso   1.000  N
  N11      1.0000 0.91020  0.91290  0.74190  Biso   1.000  N
  N12      1.0000 0.89300  0.87110  0.63820  Biso   1.000  N
  C15      1.0000 0.30500  0.08350  0.70640  Biso   1.000  C
  C16      1.0000 0.28500  0.10170  0.82920  Biso   1.000  C
  C17      1.0000 0.37600  0.12800  0.89540  Biso   1.000  C
  H9       1.0000 0.36460  0.13710  0.97750  Biso   1.000  H
  C18      1.0000 0.48500  0.14000  0.83540  Biso   1.000  C
  H10      1.0000 0.54590  0.16030  0.87710  Biso   1.000  H
  C19      1.0000 0.50300  0.12200  0.71370  Biso   1.000  C
  C20      1.0000 0.41500  0.09180  0.64570  Biso   1.000  C
  H11      1.0000 0.42920  0.07830  0.56440  Biso   1.000  H
  C21      1.0000 0.61900  0.13300  0.65640  Biso   1.000  C
  C22      1.0000 0.91500  0.71560  0.79070  Biso   1.000  C
  C23      1.0000 0.89550  0.74550  0.66700  Biso   1.000  C
  C24      1.0000 0.88200  0.65670  0.59220  Biso   1.000  C
  H12      1.0000 0.86930  0.67800  0.50950  Biso   1.000  H
  C25      1.0000 0.88900  0.53420  0.64740  Biso   1.000  C
  H13      1.0000 0.88090  0.47200  0.60030  Biso   1.000  H
  C26      1.0000 0.90800  0.50260  0.77030  Biso   1.000  C
  C27      1.0000 0.92200  0.59190  0.84470  Biso   1.000  C
  H14      1.0000 0.93440  0.57010  0.92730  Biso   1.000  H
  C28      1.0000 0.91500  0.36870  0.82360  Biso   1.000  C
  O7       1.0000 0.90310  0.07290  0.93290  Biso   1.000  O
  H15      1.0000 0.80700  0.12680  0.92720  Biso   1.000  H
  O8       1.0000 0.94300  0.10400  0.57120  Biso   1.000  O
  H16      1.0000 0.94420  0.17780  0.51980  Biso   1.000  H
  O9       1.0000 0.65000  0.09550  0.54960  Biso   1.000  O
  O10      1.0000 0.69500  0.17700  0.71550  Biso   1.000  O
  O11      1.0000 0.95700  0.32720  0.93170  Biso   1.000  O
  O12      1.0000 0.88600  0.30150  0.75160  Biso   1.000  O
