data_ETEJUJ_clean
_audit_creation_date              2014-07-02
_audit_creation_method            'Materials Studio'
_symmetry_space_group_name_H-M    'P1'
_symmetry_Int_Tables_number       1
_symmetry_cell_setting            triclinic
loop_
_symmetry_equiv_pos_as_xyz
  x,y,z
_cell_length_a                    10.5152
_cell_length_b                    11.1058
_cell_length_c                    12.7396
_cell_angle_alpha                 103.8910
_cell_angle_beta                  109.7090
_cell_angle_gamma                 96.6840
loop_
_atom_site_label
_atom_site_type_symbol
_atom_site_fract_x
_atom_site_fract_y
_atom_site_fract_z
_atom_site_U_iso_or_equiv
_atom_site_adp_type
_atom_site_occupancy
Sm1    Sm    0.89793   0.45223   0.31845   0.01267  Uiso   1.00
Sm2    Sm    0.10207   0.54777   0.68155   0.01267  Uiso   1.00
H1     H     0.05970   0.87640   0.70500   0.01267  Uiso   1.00
H2     H     0.74750   0.60610   0.74320   0.01267  Uiso   1.00
H3     H     0.81540   0.08090   0.04570   0.01267  Uiso   1.00
H4     H     0.99580   0.85140   0.33740   0.01267  Uiso   1.00
H5     H     0.59160   0.44000   0.35930   0.01267  Uiso   1.00
H6     H     0.44010   0.16280   0.11330   0.01267  Uiso   1.00
H7     H     0.94030   0.12360   0.29500   0.01267  Uiso   1.00
H8     H     0.25250   0.39390   0.25680   0.01267  Uiso   1.00
H9     H     0.18460   0.91910   0.95430   0.01267  Uiso   1.00
H10    H     0.00420   0.14860   0.66260   0.01267  Uiso   1.00
H11    H     0.40840   0.56000   0.64070   0.01267  Uiso   1.00
H12    H     0.55990   0.83720   0.88670   0.01267  Uiso   1.00
C1     C     0.02420   0.97070   0.60540   0.01267  Uiso   1.00
C2     C     0.02180   0.87970   0.50650   0.01267  Uiso   1.00
C3     C     0.99750   0.91170   0.40290   0.01267  Uiso   1.00
C4     C     0.03970   0.74810   0.50770   0.01267  Uiso   1.00
C5     C     0.58660   0.55150   0.61760   0.01267  Uiso   1.00
C6     C     0.64320   0.51560   0.53230   0.01267  Uiso   1.00
C7     C     0.55460   0.46430   0.41600   0.01267  Uiso   1.00
C8     C     0.79420   0.53220   0.56440   0.01267  Uiso   1.00
C9     C     0.63600   0.01120   0.00480   0.01267  Uiso   1.00
C10    C     0.60000   0.10900   0.07340   0.01267  Uiso   1.00
C11    C     0.46390   0.09730   0.06790   0.01267  Uiso   1.00
C12    C     0.70430   0.22780   0.15220   0.01267  Uiso   1.00
C13    C     0.97580   0.02930   0.39460   0.01267  Uiso   1.00
C14    C     0.97820   0.12030   0.49350   0.01267  Uiso   1.00
C15    C     0.00250   0.08830   0.59710   0.01267  Uiso   1.00
C16    C     0.96030   0.25190   0.49230   0.01267  Uiso   1.00
C17    C     0.41340   0.44850   0.38240   0.01267  Uiso   1.00
C18    C     0.35680   0.48440   0.46770   0.01267  Uiso   1.00
C19    C     0.44540   0.53570   0.58400   0.01267  Uiso   1.00
C20    C     0.20580   0.46780   0.43560   0.01267  Uiso   1.00
C21    C     0.36400   0.98880   0.99520   0.01267  Uiso   1.00
C22    C     0.40000   0.89100   0.92660   0.01267  Uiso   1.00
C23    C     0.53610   0.90270   0.93210   0.01267  Uiso   1.00
C24    C     0.29570   0.77220   0.84780   0.01267  Uiso   1.00
O1     O     0.01710   0.66790   0.41220   0.01267  Uiso   1.00
O2     O     0.07410   0.72670   0.60550   0.01267  Uiso   1.00
O3     O     0.04780   0.94890   0.71000   0.01267  Uiso   1.00
O4     O     0.84350   0.50740   0.48720   0.01267  Uiso   1.00
O5     O     0.87230   0.57150   0.67190   0.01267  Uiso   1.00
O6     O     0.66570   0.60260   0.73310   0.01267  Uiso   1.00
O7     O     0.82410   0.24430   0.15060   0.01267  Uiso   1.00
O8     O     0.66950   0.31020   0.21740   0.01267  Uiso   1.00
O9     O     0.76380   0.01270   0.00290   0.01267  Uiso   1.00
O10    O     0.98290   0.33210   0.58780   0.01267  Uiso   1.00
O11    O     0.92590   0.27330   0.39450   0.01267  Uiso   1.00
O12    O     0.95220   0.05110   0.29000   0.01267  Uiso   1.00
O13    O     0.15650   0.49260   0.51280   0.01267  Uiso   1.00
O14    O     0.12770   0.42850   0.32810   0.01267  Uiso   1.00
O15    O     0.33430   0.39740   0.26690   0.01267  Uiso   1.00
O16    O     0.17590   0.75570   0.84940   0.01267  Uiso   1.00
O17    O     0.33050   0.68980   0.78260   0.01267  Uiso   1.00
O18    O     0.23620   0.98730   0.99710   0.01267  Uiso   1.00
