data_ETEJIX_clean
_audit_creation_date              2014-07-02
_audit_creation_method            'Materials Studio'
_symmetry_space_group_name_H-M    'P1'
_symmetry_Int_Tables_number       1
_symmetry_cell_setting            triclinic
loop_
_symmetry_equiv_pos_as_xyz
  x,y,z
_cell_length_a                    10.5340
_cell_length_b                    11.3000
_cell_length_c                    12.6610
_cell_angle_alpha                 101.9010
_cell_angle_beta                  108.7300
_cell_angle_gamma                 99.0440
loop_
_atom_site_label
_atom_site_type_symbol
_atom_site_fract_x
_atom_site_fract_y
_atom_site_fract_z
_atom_site_U_iso_or_equiv
_atom_site_adp_type
_atom_site_occupancy
La1    La    0.89680   0.45560   0.31768   0.01267  Uiso   1.00
La2    La    0.10320   0.54440   0.68232   0.01267  Uiso   1.00
H1     H     0.07390   0.87750   0.70660   0.01267  Uiso   1.00
H2     H     0.73810   0.60580   0.74480   0.01267  Uiso   1.00
H3     H     0.81410   0.08670   0.05730   0.01267  Uiso   1.00
H4     H     0.98580   0.85650   0.33670   0.01267  Uiso   1.00
H5     H     0.59970   0.43770   0.36770   0.01267  Uiso   1.00
H6     H     0.92610   0.12250   0.29340   0.01267  Uiso   1.00
H7     H     0.26190   0.39420   0.25520   0.01267  Uiso   1.00
H8     H     0.18590   0.91330   0.94270   0.01267  Uiso   1.00
H9     H     0.01420   0.14350   0.66330   0.01267  Uiso   1.00
H10    H     0.40030   0.56230   0.63230   0.01267  Uiso   1.00
C1     C     0.03190   0.97010   0.60630   0.01267  Uiso   1.00
C2     C     0.02290   0.88270   0.50580   0.01267  Uiso   1.00
C3     C     0.99150   0.91470   0.40280   0.01267  Uiso   1.00
C4     C     0.04140   0.75370   0.50710   0.01267  Uiso   1.00
C5     C     0.58200   0.55110   0.61770   0.01267  Uiso   1.00
C6     C     0.64330   0.51440   0.53710   0.01267  Uiso   1.00
C7     C     0.55930   0.46320   0.42110   0.01267  Uiso   1.00
C8     C     0.79380   0.53110   0.57300   0.01267  Uiso   1.00
C9     C     0.63750   0.01800   0.01250   0.01267  Uiso   1.00
C10    C     0.59300   0.11060   0.07320   0.01267  Uiso   1.00
C11    C     0.45410   0.09220   0.05930   0.01267  Uiso   1.00
C12    C     0.69550   0.22890   0.14970   0.01267  Uiso   1.00
C13    C     0.96810   0.02990   0.39370   0.01267  Uiso   1.00
C14    C     0.97710   0.11730   0.49420   0.01267  Uiso   1.00
C15    C     0.00850   0.08530   0.59720   0.01267  Uiso   1.00
C16    C     0.95860   0.24630   0.49290   0.01267  Uiso   1.00
C17    C     0.41800   0.44890   0.38230   0.01267  Uiso   1.00
C18    C     0.35670   0.48560   0.46290   0.01267  Uiso   1.00
C19    C     0.44070   0.53680   0.57890   0.01267  Uiso   1.00
C20    C     0.20620   0.46890   0.42700   0.01267  Uiso   1.00
C21    C     0.36250   0.98200   0.98750   0.01267  Uiso   1.00
C22    C     0.40700   0.88940   0.92680   0.01267  Uiso   1.00
C23    C     0.54590   0.90780   0.94070   0.01267  Uiso   1.00
C24    C     0.30450   0.77110   0.85030   0.01267  Uiso   1.00
O1     O     0.01600   0.67720   0.41250   0.01267  Uiso   1.00
O2     O     0.08130   0.73120   0.60500   0.01267  Uiso   1.00
O3     O     0.06240   0.94830   0.71150   0.01267  Uiso   1.00
O4     O     0.84930   0.50650   0.49890   0.01267  Uiso   1.00
O5     O     0.86700   0.56870   0.67970   0.01267  Uiso   1.00
O6     O     0.65590   0.60120   0.73240   0.01267  Uiso   1.00
O7     O     0.81440   0.25150   0.14890   0.01267  Uiso   1.00
O8     O     0.65550   0.30590   0.21350   0.01267  Uiso   1.00
O9     O     0.76230   0.01960   0.01550   0.01267  Uiso   1.00
O10    O     0.98400   0.32280   0.58750   0.01267  Uiso   1.00
O11    O     0.91870   0.26880   0.39500   0.01267  Uiso   1.00
O12    O     0.93760   0.05170   0.28850   0.01267  Uiso   1.00
O13    O     0.15070   0.49350   0.50110   0.01267  Uiso   1.00
O14    O     0.13300   0.43130   0.32030   0.01267  Uiso   1.00
O15    O     0.34410   0.39880   0.26760   0.01267  Uiso   1.00
O16    O     0.18560   0.74850   0.85110   0.01267  Uiso   1.00
O17    O     0.34450   0.69410   0.78650   0.01267  Uiso   1.00
O18    O     0.23770   0.98040   0.98450   0.01267  Uiso   1.00
