data_image0
_cell_length_a       10.523
_cell_length_b       11.184
_cell_length_c       12.7
_cell_angle_alpha    102.98
_cell_angle_beta     109.329
_cell_angle_gamma    97.766

_symmetry_space_group_name_H-M    "P 1"
_symmetry_int_tables_number       1

loop_
  _symmetry_equiv_pos_as_xyz
  'x, y, z'

loop_
  _atom_site_label
  _atom_site_occupancy
  _atom_site_fract_x
  _atom_site_fract_y
  _atom_site_fract_z
  _atom_site_thermal_displace_type
  _atom_site_B_iso_or_equiv
  _atom_site_type_symbol
  Nd1      1.0000 0.10233  0.54633  0.68132  Biso   1.000  Nd
  O1       1.0000 0.98300  0.32780  0.58820  Biso   1.000  O
  O2       1.0000 0.92300  0.27130  0.39490  Biso   1.000  O
  O3       1.0000 0.94720  0.05200  0.28910  Biso   1.000  O
  H1       1.0000 0.93550  0.12370  0.29380  Biso   1.000  H
  O4       1.0000 0.15320  0.49320  0.50740  Biso   1.000  O
  O5       1.0000 0.12970  0.43000  0.32430  Biso   1.000  O
  O6       1.0000 0.33820  0.39840  0.26700  Biso   1.000  O
  H2       1.0000 0.25630  0.39450  0.25600  Biso   1.000  H
  O7       1.0000 0.17850  0.75200  0.84920  Biso   1.000  O
  O8       1.0000 0.33550  0.69180  0.78370  Biso   1.000  O
  O9       1.0000 0.23420  0.98460  0.99160  Biso   1.000  O
  H3       1.0000 0.18190  0.91690  0.94950  Biso   1.000  H
  O10      1.0000 0.40160  0.18190  0.11200  Biso   1.000  O
  H4       1.0000 0.46000  0.23040  0.17250  Biso   1.000  H
  C1       1.0000 0.97270  0.03000  0.39450  Biso   1.000  C
  C2       1.0000 0.97800  0.11890  0.49400  Biso   1.000  C
  C3       1.0000 0.00400  0.08700  0.59690  Biso   1.000  C
  H5       1.0000 0.00590  0.14590  0.66230  Biso   1.000  H
  C4       1.0000 0.95990  0.24980  0.49320  Biso   1.000  C
  C5       1.0000 0.41550  0.44910  0.38260  Biso   1.000  C
  C6       1.0000 0.35720  0.48440  0.46590  Biso   1.000  C
  C7       1.0000 0.44280  0.53590  0.58190  Biso   1.000  C
  H6       1.0000 0.40420  0.56080  0.63710  Biso   1.000  H
  C8       1.0000 0.20570  0.46860  0.43200  Biso   1.000  C
  C9       1.0000 0.36200  0.98540  0.99090  Biso   1.000  C
  C10      1.0000 0.40260  0.89010  0.92640  Biso   1.000  C
  C11      1.0000 0.53990  0.90450  0.93560  Biso   1.000  C
  C12      1.0000 0.29910  0.77090  0.84810  Biso   1.000  C
  Nd2      1.0000 0.89767  0.45367  0.31868  Biso   1.000  Nd
  O11      1.0000 0.01700  0.67220  0.41180  Biso   1.000  O
  O12      1.0000 0.07700  0.72870  0.60510  Biso   1.000  O
  O13      1.0000 0.05280  0.94800  0.71090  Biso   1.000  O
  H7       1.0000 0.06450  0.87630  0.70620  Biso   1.000  H
  O14      1.0000 0.84680  0.50680  0.49260  Biso   1.000  O
  O15      1.0000 0.87030  0.57000  0.67570  Biso   1.000  O
  O16      1.0000 0.66180  0.60160  0.73300  Biso   1.000  O
  H8       1.0000 0.74370  0.60550  0.74400  Biso   1.000  H
  O17      1.0000 0.82150  0.24800  0.15080  Biso   1.000  O
  O18      1.0000 0.66450  0.30820  0.21630  Biso   1.000  O
  O19      1.0000 0.76580  0.01540  0.00840  Biso   1.000  O
  H9       1.0000 0.81810  0.08310  0.05050  Biso   1.000  H
  O20      1.0000 0.59840  0.81810  0.88800  Biso   1.000  O
  H10      1.0000 0.54000  0.76960  0.82750  Biso   1.000  H
  C13      1.0000 0.02730  0.97000  0.60550  Biso   1.000  C
  C14      1.0000 0.02200  0.88110  0.50600  Biso   1.000  C
  C15      1.0000 0.99600  0.91300  0.40310  Biso   1.000  C
  H11      1.0000 0.99410  0.85410  0.33770  Biso   1.000  H
  C16      1.0000 0.04010  0.75020  0.50680  Biso   1.000  C
  C17      1.0000 0.58450  0.55090  0.61740  Biso   1.000  C
  C18      1.0000 0.64280  0.51560  0.53410  Biso   1.000  C
  C19      1.0000 0.55720  0.46410  0.41810  Biso   1.000  C
  H12      1.0000 0.59580  0.43920  0.36290  Biso   1.000  H
  C20      1.0000 0.79430  0.53140  0.56800  Biso   1.000  C
  C21      1.0000 0.63800  0.01460  0.00910  Biso   1.000  C
  C22      1.0000 0.59740  0.10990  0.07360  Biso   1.000  C
  C23      1.0000 0.46010  0.09550  0.06440  Biso   1.000  C
  C24      1.0000 0.70090  0.22910  0.15190  Biso   1.000  C
