data_ETEJOD01_clean
_audit_creation_date              2014-07-02
_audit_creation_method            'Materials Studio'
_symmetry_space_group_name_H-M    'P1'
_symmetry_Int_Tables_number       1
_symmetry_cell_setting            triclinic
loop_
_symmetry_equiv_pos_as_xyz
  x,y,z
_cell_length_a                    10.4195
_cell_length_b                    11.1743
_cell_length_c                    12.5690
_cell_angle_alpha                 102.1980
_cell_angle_beta                  108.5370
_cell_angle_gamma                 98.9440
loop_
_atom_site_label
_atom_site_type_symbol
_atom_site_fract_x
_atom_site_fract_y
_atom_site_fract_z
_atom_site_U_iso_or_equiv
_atom_site_adp_type
_atom_site_occupancy
Nd1    Nd    0.39829   0.95560   0.31927   0.01267  Uiso   1.00
Nd2    Nd    0.60171   0.04440   0.68073   0.01267  Uiso   1.00
H1     H     0.56870   0.37360   0.70690   0.01267  Uiso   1.00
H2     H     0.23910   0.10220   0.74740   0.01267  Uiso   1.00
H3     H     0.49430   0.35770   0.33510   0.01267  Uiso   1.00
H4     H     0.10140   0.93860   0.36510   0.01267  Uiso   1.00
H5     H     0.43130   0.62640   0.29310   0.01267  Uiso   1.00
H6     H     0.76090   0.89780   0.25260   0.01267  Uiso   1.00
H7     H     0.50570   0.64230   0.66490   0.01267  Uiso   1.00
H8     H     0.89860   0.06140   0.63490   0.01267  Uiso   1.00
C1     C     0.54560   0.25140   0.50610   0.01267  Uiso   1.00
C2     C     0.52490   0.38170   0.50570   0.01267  Uiso   1.00
C3     C     0.49630   0.41480   0.40160   0.01267  Uiso   1.00
C4     C     0.52920   0.46850   0.60490   0.01267  Uiso   1.00
C5     C     0.13880   0.51730   0.01100   0.01267  Uiso   1.00
C6     C     0.95650   0.59310   0.06360   0.01267  Uiso   1.00
C7     C     0.09580   0.61100   0.07440   0.01267  Uiso   1.00
C8     C     0.20010   0.73080   0.15340   0.01267  Uiso   1.00
C9     C     0.29740   0.03380   0.57290   0.01267  Uiso   1.00
C10    C     0.14430   0.01570   0.53620   0.01267  Uiso   1.00
C11    C     0.08240   0.05210   0.61840   0.01267  Uiso   1.00
C12    C     0.06050   0.96360   0.41920   0.01267  Uiso   1.00
C13    C     0.45440   0.74860   0.49390   0.01267  Uiso   1.00
C14    C     0.47510   0.61830   0.49430   0.01267  Uiso   1.00
C15    C     0.50370   0.58520   0.59840   0.01267  Uiso   1.00
C16    C     0.47080   0.53150   0.39510   0.01267  Uiso   1.00
C17    C     0.86120   0.48270   0.98900   0.01267  Uiso   1.00
C18    C     0.04350   0.40690   0.93640   0.01267  Uiso   1.00
C19    C     0.90420   0.38900   0.92560   0.01267  Uiso   1.00
C20    C     0.79990   0.26920   0.84660   0.01267  Uiso   1.00
C21    C     0.70260   0.96620   0.42710   0.01267  Uiso   1.00
C22    C     0.85570   0.98430   0.46380   0.01267  Uiso   1.00
C23    C     0.91760   0.94790   0.38160   0.01267  Uiso   1.00
C24    C     0.93950   0.03640   0.58080   0.01267  Uiso   1.00
O1     O     0.52230   0.17400   0.40970   0.01267  Uiso   1.00
O2     O     0.58450   0.22880   0.60430   0.01267  Uiso   1.00
O3     O     0.55650   0.44500   0.71200   0.01267  Uiso   1.00
O4     O     0.32120   0.75270   0.15370   0.01267  Uiso   1.00
O5     O     0.35280   0.00910   0.49730   0.01267  Uiso   1.00
O6     O     0.37100   0.07190   0.68100   0.01267  Uiso   1.00
O7     O     0.15700   0.10280   0.73440   0.01267  Uiso   1.00
O8     O     0.16070   0.80920   0.21730   0.01267  Uiso   1.00
O9     O     0.89910   0.67590   0.11780   0.01267  Uiso   1.00
O10    O     0.47770   0.82600   0.59030   0.01267  Uiso   1.00
O11    O     0.41550   0.77120   0.39570   0.01267  Uiso   1.00
O12    O     0.44350   0.55500   0.28800   0.01267  Uiso   1.00
O13    O     0.67880   0.24730   0.84630   0.01267  Uiso   1.00
O14    O     0.64720   0.99090   0.50270   0.01267  Uiso   1.00
O15    O     0.62900   0.92810   0.31900   0.01267  Uiso   1.00
O16    O     0.84300   0.89720   0.26560   0.01267  Uiso   1.00
O17    O     0.83930   0.19080   0.78270   0.01267  Uiso   1.00
O18    O     0.10090   0.32410   0.88220   0.01267  Uiso   1.00
