data_ETEKAQ01_clean5b
_audit_creation_date              2014-07-02
_audit_creation_method            'Materials Studio'
_symmetry_space_group_name_H-M    'P1'
_symmetry_Int_Tables_number       1
_symmetry_cell_setting            triclinic
loop_
_symmetry_equiv_pos_as_xyz
  x,y,z
_cell_length_a                    10.4140
_cell_length_b                    10.9540
_cell_length_c                    12.4320
_cell_angle_alpha                 104.2860
_cell_angle_beta                  106.9610
_cell_angle_gamma                 98.0270
loop_
_atom_site_label
_atom_site_type_symbol
_atom_site_fract_x
_atom_site_fract_y
_atom_site_fract_z
_atom_site_U_iso_or_equiv
_atom_site_adp_type
_atom_site_occupancy
Gd1    Gd    0.89352   0.92423   0.80621   0.01267  Uiso   1.00
Gd2    Gd    0.09433   0.06687   0.19436   0.01267  Uiso   1.00
H1     H     0.30459   0.50616   0.19119   0.01267  Uiso   1.00
H2     H     0.61238   0.05058   0.86156   0.01267  Uiso   1.00
H3     H     0.78231   0.31828   0.88323   0.01267  Uiso   1.00
H4     H     0.57622   0.92102   0.24595   0.01267  Uiso   1.00
H5     H     0.74062   0.63843   0.90202   0.01267  Uiso   1.00
H6     H     0.37396   0.96142   0.13593   0.01267  Uiso   1.00
H7     H     0.19879   0.66303   0.13389   0.01267  Uiso   1.00
H8     H     0.28776   0.13493   0.81650   0.01267  Uiso   1.00
C1     C     0.63400   0.51093   0.48721   0.01267  Uiso   1.00
C2     C     0.46630   0.58626   0.57266   0.01267  Uiso   1.00
C3     C     0.70577   0.71909   0.65903   0.01267  Uiso   1.00
C4     C     0.56444   0.97131   0.09713   0.01267  Uiso   1.00
C5     C     0.56093   0.02886   0.92105   0.01267  Uiso   1.00
C6     C     0.98789   0.21548   0.99206   0.01267  Uiso   1.00
C7     C     0.99057   0.35723   0.00444   0.01267  Uiso   1.00
C8     C     0.10772   0.45784   0.07661   0.01267  Uiso   1.00
C9     C     0.87461   0.39232   0.93811   0.01267  Uiso   1.00
C10    C     0.78579   0.99638   0.04765   0.01267  Uiso   1.00
C11    C     0.63348   0.99296   0.01807   0.01267  Uiso   1.00
C12    C     0.60153   0.60457   0.57095   0.01267  Uiso   1.00
C13    C     0.36459   0.47707   0.49483   0.01267  Uiso   1.00
C14    C     0.53363   0.39943   0.41326   0.01267  Uiso   1.00
C15    C     0.29199   0.26826   0.33051   0.01267  Uiso   1.00
C16    C     0.42525   0.04640   0.90338   0.01267  Uiso   1.00
C17    C     0.42625   0.98411   0.07730   0.01267  Uiso   1.00
C18    C     0.99931   0.76220   0.01391   0.01267  Uiso   1.00
C19    C     0.99172   0.62259   0.01162   0.01267  Uiso   1.00
C20    C     0.87282   0.52183   0.94195   0.01267  Uiso   1.00
C21    C     0.10694   0.58815   0.07975   0.01267  Uiso   1.00
C22    C     0.20087   0.01529   0.95051   0.01267  Uiso   1.00
C23    C     0.35391   0.02127   0.98079   0.01267  Uiso   1.00
C24    C     0.39857   0.38249   0.41462   0.01267  Uiso   1.00
O1     O     0.86364   0.03675   0.15389   0.01267  Uiso   1.00
O2     O     0.85028   0.97246   0.97512   0.01267  Uiso   1.00
O3     O     0.89455   0.13057   0.90310   0.01267  Uiso   1.00
O4     O     0.08694   0.18113   0.05924   0.01267  Uiso   1.00
O5     O     0.83498   0.72725   0.68317   0.01267  Uiso   1.00
O6     O     0.67452   0.81792   0.71744   0.01267  Uiso   1.00
O7     O     0.22622   0.42796   0.14238   0.01267  Uiso   1.00
O8     O     0.63331   0.93467   0.19459   0.01267  Uiso   1.00
O9     O     0.76173   0.52645   0.47060   0.01267  Uiso   1.00
O10    O     0.12389   0.97859   0.84392   0.01267  Uiso   1.00
O11    O     0.13347   0.03535   0.02202   0.01267  Uiso   1.00
O12    O     0.06439   0.85027   0.11345   0.01267  Uiso   1.00
O13    O     0.94197   0.78515   0.91607   0.01267  Uiso   1.00
O14    O     0.16479   0.27159   0.29774   0.01267  Uiso   1.00
O15    O     0.31742   0.15884   0.28642   0.01267  Uiso   1.00
O16    O     0.74881   0.54550   0.87835   0.01267  Uiso   1.00
O17    O     0.36730   0.09370   0.80994   0.01267  Uiso   1.00
O18    O     0.23051   0.46033   0.49883   0.01267  Uiso   1.00
H9     H     0.43966   0.65660   0.63575   0.01267  Uiso   1.00
H10    H     0.55992   0.32862   0.35026   0.01267  Uiso   1.00
H11    H     0.81054   0.61950   0.48929   0.01267  Uiso   1.00
H12    H     0.21682   0.53324   0.55972   0.01267  Uiso   1.00
