data_ETEKAQ_clean
_audit_creation_date              2014-07-02
_audit_creation_method            'Materials Studio'
_symmetry_space_group_name_H-M    'P1'
_symmetry_Int_Tables_number       1
_symmetry_cell_setting            triclinic
loop_
_symmetry_equiv_pos_as_xyz
  x,y,z
_cell_length_a                    10.5226
_cell_length_b                    11.0545
_cell_length_c                    12.7711
_cell_angle_alpha                 103.8260
_cell_angle_beta                  110.0240
_cell_angle_gamma                 96.6020
loop_
_atom_site_label
_atom_site_type_symbol
_atom_site_fract_x
_atom_site_fract_y
_atom_site_fract_z
_atom_site_U_iso_or_equiv
_atom_site_adp_type
_atom_site_occupancy
Gd1    Gd    0.89696   0.45217   0.31832   0.01267  Uiso   1.00
Gd2    Gd    0.10304   0.54783   0.68168   0.01267  Uiso   1.00
H1     H     0.05690   0.87430   0.70320   0.01267  Uiso   1.00
H2     H     0.75170   0.60460   0.74220   0.01267  Uiso   1.00
H3     H     0.81600   0.08350   0.04670   0.01267  Uiso   1.00
H4     H     0.99820   0.85130   0.33930   0.01267  Uiso   1.00
H5     H     0.58820   0.44070   0.35760   0.01267  Uiso   1.00
H6     H     0.44100   0.16280   0.11380   0.01267  Uiso   1.00
H7     H     0.94310   0.12570   0.29680   0.01267  Uiso   1.00
H8     H     0.24830   0.39540   0.25780   0.01267  Uiso   1.00
H9     H     0.18400   0.91650   0.95330   0.01267  Uiso   1.00
H10    H     0.00180   0.14870   0.66070   0.01267  Uiso   1.00
H11    H     0.41180   0.55930   0.64240   0.01267  Uiso   1.00
H12    H     0.55900   0.83720   0.88620   0.01267  Uiso   1.00
C1     C     0.02350   0.97010   0.60520   0.01267  Uiso   1.00
C2     C     0.02180   0.87880   0.50660   0.01267  Uiso   1.00
C3     C     0.99870   0.91160   0.40420   0.01267  Uiso   1.00
C4     C     0.03860   0.74640   0.50720   0.01267  Uiso   1.00
C5     C     0.58900   0.55080   0.61750   0.01267  Uiso   1.00
C6     C     0.64270   0.51540   0.53070   0.01267  Uiso   1.00
C7     C     0.55250   0.46480   0.41490   0.01267  Uiso   1.00
C8     C     0.79370   0.53130   0.56110   0.01267  Uiso   1.00
C9     C     0.63590   0.01160   0.00490   0.01267  Uiso   1.00
C10    C     0.59990   0.10910   0.07360   0.01267  Uiso   1.00
C11    C     0.46450   0.09720   0.06810   0.01267  Uiso   1.00
C12    C     0.70470   0.22840   0.15330   0.01267  Uiso   1.00
C13    C     0.97650   0.02990   0.39480   0.01267  Uiso   1.00
C14    C     0.97820   0.12120   0.49340   0.01267  Uiso   1.00
C15    C     0.00130   0.08840   0.59580   0.01267  Uiso   1.00
C16    C     0.96140   0.25360   0.49280   0.01267  Uiso   1.00
C17    C     0.41100   0.44920   0.38250   0.01267  Uiso   1.00
C18    C     0.35730   0.48460   0.46930   0.01267  Uiso   1.00
C19    C     0.44750   0.53520   0.58510   0.01267  Uiso   1.00
C20    C     0.20630   0.46870   0.43890   0.01267  Uiso   1.00
C21    C     0.36410   0.98840   0.99510   0.01267  Uiso   1.00
C22    C     0.40010   0.89090   0.92640   0.01267  Uiso   1.00
C23    C     0.53550   0.90280   0.93190   0.01267  Uiso   1.00
C24    C     0.29530   0.77160   0.84670   0.01267  Uiso   1.00
O1     O     0.01660   0.66630   0.41240   0.01267  Uiso   1.00
O2     O     0.07310   0.72550   0.60570   0.01267  Uiso   1.00
O3     O     0.04500   0.94720   0.70830   0.01267  Uiso   1.00
O4     O     0.84100   0.50630   0.48240   0.01267  Uiso   1.00
O5     O     0.87440   0.57000   0.66830   0.01267  Uiso   1.00
O6     O     0.67020   0.60150   0.73300   0.01267  Uiso   1.00
O7     O     0.82450   0.24560   0.15160   0.01267  Uiso   1.00
O8     O     0.67070   0.31010   0.21930   0.01267  Uiso   1.00
O9     O     0.76490   0.01480   0.00360   0.01267  Uiso   1.00
O10    O     0.98340   0.33370   0.58760   0.01267  Uiso   1.00
O11    O     0.92690   0.27450   0.39430   0.01267  Uiso   1.00
O12    O     0.95500   0.05280   0.29170   0.01267  Uiso   1.00
O13    O     0.15900   0.49370   0.51760   0.01267  Uiso   1.00
O14    O     0.12560   0.43000   0.33170   0.01267  Uiso   1.00
O15    O     0.32980   0.39850   0.26700   0.01267  Uiso   1.00
O16    O     0.17550   0.75440   0.84840   0.01267  Uiso   1.00
O17    O     0.32930   0.68990   0.78070   0.01267  Uiso   1.00
O18    O     0.23510   0.98520   0.99640   0.01267  Uiso   1.00
