data_ETEKEU_clean
_audit_creation_date              2014-07-02
_audit_creation_method            'Materials Studio'
_symmetry_space_group_name_H-M    'P1'
_symmetry_Int_Tables_number       1
_symmetry_cell_setting            triclinic
loop_
_symmetry_equiv_pos_as_xyz
  x,y,z
_cell_length_a                    10.5507
_cell_length_b                    10.9265
_cell_length_c                    12.8978
_cell_angle_alpha                 103.1840
_cell_angle_beta                  111.1470
_cell_angle_gamma                 96.5660
loop_
_atom_site_label
_atom_site_type_symbol
_atom_site_fract_x
_atom_site_fract_y
_atom_site_fract_z
_atom_site_U_iso_or_equiv
_atom_site_adp_type
_atom_site_occupancy
Er1    Er    0.89354   0.45347   0.31733   0.01267  Uiso   1.00
Er2    Er    0.10646   0.54653   0.68267   0.01267  Uiso   1.00
H1     H     0.05320   0.87000   0.70160   0.01267  Uiso   1.00
H2     H     0.76340   0.59600   0.73720   0.01267  Uiso   1.00
H3     H     0.81600   0.08840   0.04940   0.01267  Uiso   1.00
H4     H     0.00090   0.85200   0.34130   0.01267  Uiso   1.00
H5     H     0.57710   0.44480   0.35260   0.01267  Uiso   1.00
H6     H     0.44020   0.16080   0.11270   0.01267  Uiso   1.00
H7     H     0.94680   0.13000   0.29840   0.01267  Uiso   1.00
H8     H     0.23660   0.40400   0.26280   0.01267  Uiso   1.00
H9     H     0.18400   0.91160   0.95060   0.01267  Uiso   1.00
H10    H     0.99910   0.14800   0.65870   0.01267  Uiso   1.00
H11    H     0.42290   0.55520   0.64740   0.01267  Uiso   1.00
H12    H     0.55980   0.83920   0.88730   0.01267  Uiso   1.00
C1     C     0.02100   0.96780   0.60310   0.01267  Uiso   1.00
C2     C     0.02090   0.87710   0.50640   0.01267  Uiso   1.00
C3     C     0.00030   0.91170   0.40530   0.01267  Uiso   1.00
C4     C     0.03680   0.74330   0.50760   0.01267  Uiso   1.00
C5     C     0.59540   0.54700   0.61580   0.01267  Uiso   1.00
C6     C     0.64220   0.51390   0.52730   0.01267  Uiso   1.00
C7     C     0.54570   0.46700   0.41180   0.01267  Uiso   1.00
C8     C     0.79320   0.52780   0.55160   0.01267  Uiso   1.00
C9     C     0.63600   0.01320   0.00590   0.01267  Uiso   1.00
C10    C     0.60070   0.11030   0.07530   0.01267  Uiso   1.00
C11    C     0.46420   0.09590   0.06760   0.01267  Uiso   1.00
C12    C     0.70460   0.23020   0.15430   0.01267  Uiso   1.00
C13    C     0.97900   0.03220   0.39690   0.01267  Uiso   1.00
C14    C     0.97910   0.12290   0.49360   0.01267  Uiso   1.00
C15    C     0.99970   0.08830   0.59470   0.01267  Uiso   1.00
C16    C     0.96320   0.25670   0.49240   0.01267  Uiso   1.00
C17    C     0.40460   0.45300   0.38420   0.01267  Uiso   1.00
C18    C     0.35780   0.48610   0.47270   0.01267  Uiso   1.00
C19    C     0.45430   0.53300   0.58820   0.01267  Uiso   1.00
C20    C     0.20680   0.47220   0.44840   0.01267  Uiso   1.00
C21    C     0.36400   0.98680   0.99410   0.01267  Uiso   1.00
C22    C     0.39930   0.88970   0.92470   0.01267  Uiso   1.00
C23    C     0.53580   0.90410   0.93240   0.01267  Uiso   1.00
C24    C     0.29540   0.76980   0.84570   0.01267  Uiso   1.00
O1     O     0.01490   0.66280   0.41340   0.01267  Uiso   1.00
O2     O     0.07170   0.71990   0.60510   0.01267  Uiso   1.00
O3     O     0.04110   0.94350   0.70600   0.01267  Uiso   1.00
O4     O     0.83180   0.50310   0.46990   0.01267  Uiso   1.00
O5     O     0.87920   0.56480   0.65720   0.01267  Uiso   1.00
O6     O     0.68280   0.59390   0.73030   0.01267  Uiso   1.00
O7     O     0.82630   0.24970   0.15520   0.01267  Uiso   1.00
O8     O     0.67180   0.31200   0.21990   0.01267  Uiso   1.00
O9     O     0.76520   0.01910   0.00580   0.01267  Uiso   1.00
O10    O     0.98510   0.33720   0.58660   0.01267  Uiso   1.00
O11    O     0.92830   0.28010   0.39490   0.01267  Uiso   1.00
O12    O     0.95890   0.05650   0.29400   0.01267  Uiso   1.00
O13    O     0.16820   0.49690   0.53010   0.01267  Uiso   1.00
O14    O     0.12080   0.43520   0.34280   0.01267  Uiso   1.00
O15    O     0.31720   0.40610   0.26970   0.01267  Uiso   1.00
O16    O     0.17370   0.75030   0.84480   0.01267  Uiso   1.00
O17    O     0.32820   0.68800   0.78010   0.01267  Uiso   1.00
O18    O     0.23480   0.98090   0.99420   0.01267  Uiso   1.00
