data_image0
_cell_length_a       10.1845
_cell_length_b       20.8747
_cell_length_c       10.707
_cell_angle_alpha    90
_cell_angle_beta     101.876
_cell_angle_gamma    90

_symmetry_space_group_name_H-M    "P 1"
_symmetry_int_tables_number       1

loop_
  _symmetry_equiv_pos_as_xyz
  'x, y, z'

loop_
  _atom_site_label
  _atom_site_occupancy
  _atom_site_fract_x
  _atom_site_fract_y
  _atom_site_fract_z
  _atom_site_thermal_displace_type
  _atom_site_B_iso_or_equiv
  _atom_site_type_symbol
  Co1      1.0000 0.91462  0.44935  0.55978  Biso   1.000  Co
  Co2      1.0000 0.07706  0.38594  0.36418  Biso   1.000  Co
  O1       1.0000 0.94709  0.35448  0.61310  Biso   1.000  O
  O2       1.0000 0.10913  0.31866  0.51490  Biso   1.000  O
  O3       1.0000 0.68345  0.16720  0.74830  Biso   1.000  O
  O4       1.0000 0.80539  0.09967  0.87760  Biso   1.000  O
  O5       1.0000 0.29205  0.07902  0.88230  Biso   1.000  O
  O6       1.0000 0.39639  0.15909  0.80500  Biso   1.000  O
  O7       1.0000 0.09379  0.45603  0.49290  Biso   1.000  O
  H1       1.0000 0.16100  0.45380  0.55800  Biso   1.000  H
  N1       1.0000 0.01060  0.48016  0.74540  Biso   1.000  N
  N2       1.0000 0.99880  0.54360  0.77970  Biso   1.000  N
  N3       1.0000 0.13390  0.49484  0.93550  Biso   1.000  N
  C1       1.0000 0.37420  0.49194  0.02900  Biso   1.000  C
  C2       1.0000 0.42690  0.55221  0.02370  Biso   1.000  C
  H2       1.0000 0.37730  0.58810  0.04000  Biso   1.000  H
  C3       1.0000 0.44810  0.43930  0.00540  Biso   1.000  C
  H3       1.0000 0.41340  0.39780  0.00910  Biso   1.000  H
  C4       1.0000 0.23490  0.48340  0.05390  Biso   1.000  C
  H4       1.0000 0.22480  0.43990  0.08470  Biso   1.000  H
  H5       1.0000 0.22070  0.51360  0.12000  Biso   1.000  H
  C5       1.0000 0.09150  0.45251  0.84040  Biso   1.000  C
  H6       1.0000 0.11680  0.40920  0.84230  Biso   1.000  H
  C6       1.0000 0.07440  0.55083  0.89360  Biso   1.000  C
  H7       1.0000 0.08570  0.58950  0.93950  Biso   1.000  H
  C7       1.0000 0.03260  0.25089  0.66110  Biso   1.000  C
  C8       1.0000 0.91650  0.22638  0.69310  Biso   1.000  C
  H8       1.0000 0.83460  0.24820  0.66770  Biso   1.000  H
  C9       1.0000 0.92150  0.17001  0.76230  Biso   1.000  C
  C10      1.0000 0.04270  0.13911  0.80310  Biso   1.000  C
  H9       1.0000 0.04630  0.10170  0.85260  Biso   1.000  H
  C11      1.0000 0.16020  0.16287  0.77180  Biso   1.000  C
  C12      1.0000 0.15330  0.21792  0.69860  Biso   1.000  C
  H10      1.0000 0.23090  0.23320  0.67380  Biso   1.000  H
  C13      1.0000 0.02950  0.31279  0.58960  Biso   1.000  C
  C14      1.0000 0.79640  0.14396  0.79820  Biso   1.000  C
  C15      1.0000 0.29220  0.13113  0.82330  Biso   1.000  C
  Co3      1.0000 0.58538  0.94935  0.94022  Biso   1.000  Co
  Co4      1.0000 0.42294  0.88594  0.13582  Biso   1.000  Co
  O8       1.0000 0.55291  0.85448  0.88690  Biso   1.000  O
  O9       1.0000 0.39087  0.81866  0.98510  Biso   1.000  O
  O10      1.0000 0.81655  0.66720  0.75170  Biso   1.000  O
  O11      1.0000 0.69461  0.59967  0.62240  Biso   1.000  O
  O12      1.0000 0.20795  0.57902  0.61770  Biso   1.000  O
  O13      1.0000 0.10361  0.65909  0.69500  Biso   1.000  O
  O14      1.0000 0.40621  0.95603  0.00710  Biso   1.000  O
  H11      1.0000 0.33900  0.95380  0.94200  Biso   1.000  H
  N4       1.0000 0.48940  0.98016  0.75460  Biso   1.000  N
  N5       1.0000 0.50120  0.04360  0.72030  Biso   1.000  N
  N6       1.0000 0.36610  0.99484  0.56450  Biso   1.000  N
  C16      1.0000 0.12580  0.99194  0.47100  Biso   1.000  C
  C17      1.0000 0.07310  0.05221  0.47630  Biso   1.000  C
  H12      1.0000 0.12270  0.08810  0.46000  Biso   1.000  H
  C18      1.0000 0.05190  0.93930  0.49460  Biso   1.000  C
  H13      1.0000 0.08660  0.89780  0.49090  Biso   1.000  H
  C19      1.0000 0.26510  0.98340  0.44610  Biso   1.000  C
  H14      1.0000 0.27520  0.93990  0.41530  Biso   1.000  H
  H15      1.0000 0.27930  0.01360  0.38000  Biso   1.000  H
  C20      1.0000 0.40850  0.95251  0.65960  Biso   1.000  C
  H16      1.0000 0.38320  0.90920  0.65770  Biso   1.000  H
  C21      1.0000 0.42560  0.05083  0.60640  Biso   1.000  C
  H17      1.0000 0.41430  0.08950  0.56050  Biso   1.000  H
  C22      1.0000 0.46740  0.75089  0.83890  Biso   1.000  C
  C23      1.0000 0.58350  0.72638  0.80690  Biso   1.000  C
  H18      1.0000 0.66540  0.74820  0.83230  Biso   1.000  H
  C24      1.0000 0.57850  0.67001  0.73770  Biso   1.000  C
  C25      1.0000 0.45730  0.63911  0.69690  Biso   1.000  C
  H19      1.0000 0.45370  0.60170  0.64740  Biso   1.000  H
  C26      1.0000 0.33980  0.66287  0.72820  Biso   1.000  C
  C27      1.0000 0.34670  0.71792  0.80140  Biso   1.000  C
  H20      1.0000 0.26910  0.73320  0.82620  Biso   1.000  H
  C28      1.0000 0.47050  0.81279  0.91040  Biso   1.000  C
  C29      1.0000 0.70360  0.64396  0.70180  Biso   1.000  C
  C30      1.0000 0.20780  0.63113  0.67670  Biso   1.000  C
  Co5      1.0000 0.08538  0.55065  0.44022  Biso   1.000  Co
  Co6      1.0000 0.92294  0.61406  0.63582  Biso   1.000  Co
  O15      1.0000 0.05291  0.64552  0.38690  Biso   1.000  O
  O16      1.0000 0.89087  0.68134  0.48510  Biso   1.000  O
  O17      1.0000 0.31655  0.83280  0.25170  Biso   1.000  O
  O18      1.0000 0.19461  0.90033  0.12240  Biso   1.000  O
  O19      1.0000 0.70795  0.92098  0.11770  Biso   1.000  O
  O20      1.0000 0.60361  0.84091  0.19500  Biso   1.000  O
  O21      1.0000 0.90621  0.54397  0.50710  Biso   1.000  O
  H21      1.0000 0.83900  0.54620  0.44200  Biso   1.000  H
  N7       1.0000 0.98940  0.51984  0.25460  Biso   1.000  N
  N8       1.0000 0.00120  0.45640  0.22030  Biso   1.000  N
  N9       1.0000 0.86610  0.50516  0.06450  Biso   1.000  N
  C31      1.0000 0.62580  0.50806  0.97100  Biso   1.000  C
  C32      1.0000 0.57310  0.44779  0.97630  Biso   1.000  C
  H22      1.0000 0.62270  0.41190  0.96000  Biso   1.000  H
  C33      1.0000 0.55190  0.56070  0.99460  Biso   1.000  C
  H23      1.0000 0.58660  0.60220  0.99090  Biso   1.000  H
  C34      1.0000 0.76510  0.51660  0.94610  Biso   1.000  C
  H24      1.0000 0.77520  0.56010  0.91530  Biso   1.000  H
  H25      1.0000 0.77930  0.48640  0.88000  Biso   1.000  H
  C35      1.0000 0.90850  0.54749  0.15960  Biso   1.000  C
  H26      1.0000 0.88320  0.59080  0.15770  Biso   1.000  H
  C36      1.0000 0.92560  0.44917  0.10640  Biso   1.000  C
  H27      1.0000 0.91430  0.41050  0.06050  Biso   1.000  H
  C37      1.0000 0.96740  0.74911  0.33890  Biso   1.000  C
  C38      1.0000 0.08350  0.77362  0.30690  Biso   1.000  C
  H28      1.0000 0.16540  0.75180  0.33230  Biso   1.000  H
  C39      1.0000 0.07850  0.82999  0.23770  Biso   1.000  C
  C40      1.0000 0.95730  0.86089  0.19690  Biso   1.000  C
  H29      1.0000 0.95370  0.89830  0.14740  Biso   1.000  H
  C41      1.0000 0.83980  0.83713  0.22820  Biso   1.000  C
  C42      1.0000 0.84670  0.78208  0.30140  Biso   1.000  C
  H30      1.0000 0.76910  0.76680  0.32620  Biso   1.000  H
  C43      1.0000 0.97050  0.68721  0.41040  Biso   1.000  C
  C44      1.0000 0.20360  0.85604  0.20180  Biso   1.000  C
  C45      1.0000 0.70780  0.86887  0.17670  Biso   1.000  C
  Co7      1.0000 0.41462  0.05065  0.05978  Biso   1.000  Co
  Co8      1.0000 0.57706  0.11406  0.86418  Biso   1.000  Co
  O22      1.0000 0.44709  0.14552  0.11310  Biso   1.000  O
  O23      1.0000 0.60913  0.18134  0.01490  Biso   1.000  O
  O24      1.0000 0.18345  0.33280  0.24830  Biso   1.000  O
  O25      1.0000 0.30539  0.40033  0.37760  Biso   1.000  O
  O26      1.0000 0.79205  0.42098  0.38230  Biso   1.000  O
  O27      1.0000 0.89639  0.34091  0.30500  Biso   1.000  O
  O28      1.0000 0.59379  0.04397  0.99290  Biso   1.000  O
  H31      1.0000 0.66100  0.04620  0.05800  Biso   1.000  H
  N10      1.0000 0.51060  0.01984  0.24540  Biso   1.000  N
  N11      1.0000 0.49880  0.95640  0.27970  Biso   1.000  N
  N12      1.0000 0.63390  0.00516  0.43550  Biso   1.000  N
  C46      1.0000 0.87420  0.00806  0.52900  Biso   1.000  C
  C47      1.0000 0.92690  0.94779  0.52370  Biso   1.000  C
  H32      1.0000 0.87730  0.91190  0.54000  Biso   1.000  H
  C48      1.0000 0.94810  0.06070  0.50540  Biso   1.000  C
  H33      1.0000 0.91340  0.10220  0.50910  Biso   1.000  H
  C49      1.0000 0.73490  0.01660  0.55390  Biso   1.000  C
  H34      1.0000 0.72480  0.06010  0.58470  Biso   1.000  H
  H35      1.0000 0.72070  0.98640  0.62000  Biso   1.000  H
  C50      1.0000 0.59150  0.04749  0.34040  Biso   1.000  C
  H36      1.0000 0.61680  0.09080  0.34230  Biso   1.000  H
  C51      1.0000 0.57440  0.94917  0.39360  Biso   1.000  C
  H37      1.0000 0.58570  0.91050  0.43950  Biso   1.000  H
  C52      1.0000 0.53260  0.24911  0.16110  Biso   1.000  C
  C53      1.0000 0.41650  0.27362  0.19310  Biso   1.000  C
  H38      1.0000 0.33460  0.25180  0.16770  Biso   1.000  H
  C54      1.0000 0.42150  0.32999  0.26230  Biso   1.000  C
  C55      1.0000 0.54270  0.36089  0.30310  Biso   1.000  C
  H39      1.0000 0.54630  0.39830  0.35260  Biso   1.000  H
  C56      1.0000 0.66020  0.33713  0.27180  Biso   1.000  C
  C57      1.0000 0.65330  0.28208  0.19860  Biso   1.000  C
  H40      1.0000 0.73090  0.26680  0.17380  Biso   1.000  H
  C58      1.0000 0.52950  0.18721  0.08960  Biso   1.000  C
  C59      1.0000 0.29640  0.35604  0.29820  Biso   1.000  C
  C60      1.0000 0.79220  0.36887  0.32330  Biso   1.000  C
