data_image0
_cell_length_a       11.9677
_cell_length_b       12.2012
_cell_length_c       14.7386
_cell_angle_alpha    67.613
_cell_angle_beta     74.527
_cell_angle_gamma    63.724

_symmetry_space_group_name_H-M    "P 1"
_symmetry_int_tables_number       1

loop_
  _symmetry_equiv_pos_as_xyz
  'x, y, z'

loop_
  _atom_site_label
  _atom_site_occupancy
  _atom_site_fract_x
  _atom_site_fract_y
  _atom_site_fract_z
  _atom_site_thermal_displace_type
  _atom_site_B_iso_or_equiv
  _atom_site_type_symbol
  Mo1      1.0000 0.27920  0.29688  0.32419  Biso   1.000  Mo
  Mo2      1.0000 0.74730  0.80512  0.33591  Biso   1.000  Mo
  Mo3      1.0000 0.52953  0.81078  0.33217  Biso   1.000  Mo
  Mo4      1.0000 0.57448  0.29207  0.32656  Biso   1.000  Mo
  Mo5      1.0000 0.77406  0.08370  0.32996  Biso   1.000  Mo
  Mo6      1.0000 0.26363  0.09394  0.32171  Biso   1.000  Mo
  Mn1      1.0000 0.26165  0.83702  0.00873  Biso   1.000  Mn
  P1       1.0000 0.55176  0.10838  0.21232  Biso   1.000  P
  P2       1.0000 0.38521  0.51308  0.15815  Biso   1.000  P
  P3       1.0000 0.30616  0.90377  0.19454  Biso   1.000  P
  P4       1.0000 0.93402  0.92838  0.16496  Biso   1.000  P
  O1       1.0000 0.61400  0.11580  0.41760  Biso   1.000  O
  O2       1.0000 0.58680  0.85860  0.42030  Biso   1.000  O
  O3       1.0000 0.33860  0.11890  0.41310  Biso   1.000  O
  O4       1.0000 0.81400  0.88550  0.40530  Biso   1.000  O
  O5       1.0000 0.38670  0.33230  0.39560  Biso   1.000  O
  O6       1.0000 0.67540  0.02180  0.26110  Biso   1.000  O
  O7       1.0000 0.24800  0.25630  0.22080  Biso   1.000  O
  O8       1.0000 0.34760  0.89630  0.39640  Biso   1.000  O
  O9       1.0000 0.48370  0.22460  0.25470  Biso   1.000  O
  O10      1.0000 0.67550  0.80150  0.23420  Biso   1.000  O
  O11      1.0000 0.71690  0.24750  0.22850  Biso   1.000  O
  O12      1.0000 0.46850  0.02860  0.25060  Biso   1.000  O
  O13      1.0000 0.08070  0.86630  0.13740  Biso   1.000  O
  O14      1.0000 0.87180  0.99200  0.07260  Biso   1.000  O
  O15      1.0000 0.57660  0.15500  0.10130  Biso   1.000  O
  O16      1.0000 0.89830  0.81390  0.23370  Biso   1.000  O
  O17      1.0000 0.25290  0.03570  0.21240  Biso   1.000  O
  O18      1.0000 0.91310  0.01810  0.22400  Biso   1.000  O
  O19      1.0000 0.30940  0.92570  0.08560  Biso   1.000  O
  O20      1.0000 0.49440  0.46050  0.21880  Biso   1.000  O
  O21      1.0000 0.44170  0.82820  0.22280  Biso   1.000  O
  O22      1.0000 0.27950  0.46960  0.22160  Biso   1.000  O
  O23      1.0000 0.43350  0.44640  0.07390  Biso   1.000  O
  O24      1.0000 0.22280  0.82860  0.25840  Biso   1.000  O
  O25      1.0000 0.34730  0.65360  0.11250  Biso   1.000  O
  Mo7      1.0000 0.72080  0.70312  0.67581  Biso   1.000  Mo
  Mo8      1.0000 0.25270  0.19488  0.66409  Biso   1.000  Mo
  Mo9      1.0000 0.47047  0.18922  0.66783  Biso   1.000  Mo
  Mo10     1.0000 0.42552  0.70793  0.67344  Biso   1.000  Mo
  Mo11     1.0000 0.22594  0.91630  0.67004  Biso   1.000  Mo
  Mo12     1.0000 0.73637  0.90606  0.67829  Biso   1.000  Mo
  Mn2      1.0000 0.73835  0.16298  0.99127  Biso   1.000  Mn
  P5       1.0000 0.44824  0.89162  0.78768  Biso   1.000  P
  P6       1.0000 0.61479  0.48692  0.84185  Biso   1.000  P
  P7       1.0000 0.69384  0.09623  0.80546  Biso   1.000  P
  P8       1.0000 0.06598  0.07162  0.83504  Biso   1.000  P
  O26      1.0000 0.38600  0.88420  0.58240  Biso   1.000  O
  O27      1.0000 0.41320  0.14140  0.57970  Biso   1.000  O
  O28      1.0000 0.66140  0.88110  0.58690  Biso   1.000  O
  O29      1.0000 0.18600  0.11450  0.59470  Biso   1.000  O
  O30      1.0000 0.61330  0.66770  0.60440  Biso   1.000  O
  O31      1.0000 0.32460  0.97820  0.73890  Biso   1.000  O
  O32      1.0000 0.75200  0.74370  0.77920  Biso   1.000  O
  O33      1.0000 0.65240  0.10370  0.60360  Biso   1.000  O
  O34      1.0000 0.51630  0.77540  0.74530  Biso   1.000  O
  O35      1.0000 0.32450  0.19850  0.76580  Biso   1.000  O
  O36      1.0000 0.28310  0.75250  0.77150  Biso   1.000  O
  O37      1.0000 0.53150  0.97140  0.74940  Biso   1.000  O
  O38      1.0000 0.91930  0.13370  0.86260  Biso   1.000  O
  O39      1.0000 0.12820  0.00800  0.92740  Biso   1.000  O
  O40      1.0000 0.42340  0.84500  0.89870  Biso   1.000  O
  O41      1.0000 0.10170  0.18610  0.76630  Biso   1.000  O
  O42      1.0000 0.74710  0.96430  0.78760  Biso   1.000  O
  O43      1.0000 0.08690  0.98190  0.77600  Biso   1.000  O
  O44      1.0000 0.69060  0.07430  0.91440  Biso   1.000  O
  O45      1.0000 0.50560  0.53950  0.78120  Biso   1.000  O
  O46      1.0000 0.55830  0.17180  0.77720  Biso   1.000  O
  O47      1.0000 0.72050  0.53040  0.77840  Biso   1.000  O
  O48      1.0000 0.56650  0.55360  0.92610  Biso   1.000  O
  O49      1.0000 0.77720  0.17140  0.74160  Biso   1.000  O
  O50      1.0000 0.65270  0.34640  0.88750  Biso   1.000  O
  Mn3      1.0000 0.50000  0.00000  0.50000  Biso   1.000  Mn
