data_image0
_cell_length_a       10.513
_cell_length_b       15.617
_cell_length_c       13.895
_cell_angle_alpha    90
_cell_angle_beta     97.014
_cell_angle_gamma    90

_symmetry_space_group_name_H-M    "P 1"
_symmetry_int_tables_number       1

loop_
  _symmetry_equiv_pos_as_xyz
  'x, y, z'

loop_
  _atom_site_label
  _atom_site_occupancy
  _atom_site_fract_x
  _atom_site_fract_y
  _atom_site_fract_z
  _atom_site_thermal_displace_type
  _atom_site_B_iso_or_equiv
  _atom_site_type_symbol
  Zn1      1.0000 0.03326  0.08550  0.39017  Biso   1.000  Zn
  O1       1.0000 0.12230  0.10652  0.51985  Biso   1.000  O
  O2       1.0000 0.17260  0.11098  0.31218  Biso   1.000  O
  O3       1.0000 0.87200  0.14405  0.36587  Biso   1.000  O
  O4       1.0000 0.02820  0.96204  0.37295  Biso   1.000  O
  P1       1.0000 0.07053  0.10694  0.61767  Biso   1.000  P
  P2       1.0000 0.20793  0.16557  0.22902  Biso   1.000  P
  O5       1.0000 0.02080  0.19556  0.63831  Biso   1.000  O
  H1       1.0000 0.16980  0.08840  0.68350  Biso   1.000  H
  H2       1.0000 0.18160  0.24230  0.24700  Biso   1.000  H
  O6       1.0000 0.35110  0.15988  0.22171  Biso   1.000  O
  Zn2      1.0000 0.53326  0.58550  0.39017  Biso   1.000  Zn
  O7       1.0000 0.62230  0.60652  0.51985  Biso   1.000  O
  O8       1.0000 0.67260  0.61098  0.31218  Biso   1.000  O
  O9       1.0000 0.37200  0.64405  0.36587  Biso   1.000  O
  O10      1.0000 0.52820  0.46204  0.37295  Biso   1.000  O
  P3       1.0000 0.57053  0.60694  0.61767  Biso   1.000  P
  P4       1.0000 0.70793  0.66557  0.22902  Biso   1.000  P
  O11      1.0000 0.52080  0.69556  0.63831  Biso   1.000  O
  H3       1.0000 0.66980  0.58840  0.68350  Biso   1.000  H
  H4       1.0000 0.68160  0.74230  0.24700  Biso   1.000  H
  O12      1.0000 0.85110  0.65988  0.22171  Biso   1.000  O
  Zn3      1.0000 0.96674  0.08550  0.10983  Biso   1.000  Zn
  O13      1.0000 0.87770  0.10652  0.98015  Biso   1.000  O
  O14      1.0000 0.82740  0.11098  0.18782  Biso   1.000  O
  O15      1.0000 0.12800  0.14405  0.13413  Biso   1.000  O
  O16      1.0000 0.97180  0.96204  0.12705  Biso   1.000  O
  P5       1.0000 0.92947  0.10694  0.88233  Biso   1.000  P
  P6       1.0000 0.79207  0.16557  0.27098  Biso   1.000  P
  O17      1.0000 0.97920  0.19556  0.86169  Biso   1.000  O
  H5       1.0000 0.83020  0.08840  0.81650  Biso   1.000  H
  H6       1.0000 0.81840  0.24230  0.25300  Biso   1.000  H
  O18      1.0000 0.64890  0.15988  0.27829  Biso   1.000  O
  Zn4      1.0000 0.46674  0.58550  0.10983  Biso   1.000  Zn
  O19      1.0000 0.37770  0.60652  0.98015  Biso   1.000  O
  O20      1.0000 0.32740  0.61098  0.18782  Biso   1.000  O
  O21      1.0000 0.62800  0.64405  0.13413  Biso   1.000  O
  O22      1.0000 0.47180  0.46204  0.12705  Biso   1.000  O
  P7       1.0000 0.42947  0.60694  0.88233  Biso   1.000  P
  P8       1.0000 0.29207  0.66557  0.27098  Biso   1.000  P
  O23      1.0000 0.47920  0.69556  0.86169  Biso   1.000  O
  H7       1.0000 0.33020  0.58840  0.81650  Biso   1.000  H
  H8       1.0000 0.31840  0.74230  0.25300  Biso   1.000  H
  O24      1.0000 0.14890  0.65988  0.27829  Biso   1.000  O
  Zn5      1.0000 0.96674  0.91450  0.60983  Biso   1.000  Zn
  O25      1.0000 0.87770  0.89348  0.48015  Biso   1.000  O
  O26      1.0000 0.82740  0.88902  0.68782  Biso   1.000  O
  O27      1.0000 0.12800  0.85595  0.63413  Biso   1.000  O
  O28      1.0000 0.97180  0.03796  0.62705  Biso   1.000  O
  P9       1.0000 0.92947  0.89306  0.38233  Biso   1.000  P
  P10      1.0000 0.79207  0.83443  0.77098  Biso   1.000  P
  O29      1.0000 0.97920  0.80444  0.36169  Biso   1.000  O
  H9       1.0000 0.83020  0.91160  0.31650  Biso   1.000  H
  H10      1.0000 0.81840  0.75770  0.75300  Biso   1.000  H
  O30      1.0000 0.64890  0.84012  0.77829  Biso   1.000  O
  Zn6      1.0000 0.46674  0.41450  0.60983  Biso   1.000  Zn
  O31      1.0000 0.37770  0.39348  0.48015  Biso   1.000  O
  O32      1.0000 0.32740  0.38902  0.68782  Biso   1.000  O
  O33      1.0000 0.62800  0.35595  0.63413  Biso   1.000  O
  O34      1.0000 0.47180  0.53796  0.62705  Biso   1.000  O
  P11      1.0000 0.42947  0.39306  0.38233  Biso   1.000  P
  P12      1.0000 0.29207  0.33443  0.77098  Biso   1.000  P
  O35      1.0000 0.47920  0.30444  0.36169  Biso   1.000  O
  H11      1.0000 0.33020  0.41160  0.31650  Biso   1.000  H
  H12      1.0000 0.31840  0.25770  0.75300  Biso   1.000  H
  O36      1.0000 0.14890  0.34012  0.77829  Biso   1.000  O
  Zn7      1.0000 0.03326  0.91450  0.89017  Biso   1.000  Zn
  O37      1.0000 0.12230  0.89348  0.01985  Biso   1.000  O
  O38      1.0000 0.17260  0.88902  0.81218  Biso   1.000  O
  O39      1.0000 0.87200  0.85595  0.86587  Biso   1.000  O
  O40      1.0000 0.02820  0.03796  0.87295  Biso   1.000  O
  P13      1.0000 0.07053  0.89306  0.11767  Biso   1.000  P
  P14      1.0000 0.20793  0.83443  0.72902  Biso   1.000  P
  O41      1.0000 0.02080  0.80444  0.13831  Biso   1.000  O
  H13      1.0000 0.16980  0.91160  0.18350  Biso   1.000  H
  H14      1.0000 0.18160  0.75770  0.74700  Biso   1.000  H
  O42      1.0000 0.35110  0.84012  0.72171  Biso   1.000  O
  Zn8      1.0000 0.53326  0.41450  0.89017  Biso   1.000  Zn
  O43      1.0000 0.62230  0.39348  0.01985  Biso   1.000  O
  O44      1.0000 0.67260  0.38902  0.81218  Biso   1.000  O
  O45      1.0000 0.37200  0.35595  0.86587  Biso   1.000  O
  O46      1.0000 0.52820  0.53796  0.87295  Biso   1.000  O
  P15      1.0000 0.57053  0.39306  0.11767  Biso   1.000  P
  P16      1.0000 0.70793  0.33443  0.72902  Biso   1.000  P
  O47      1.0000 0.52080  0.30444  0.13831  Biso   1.000  O
  H15      1.0000 0.66980  0.41160  0.18350  Biso   1.000  H
  H16      1.0000 0.68160  0.25770  0.74700  Biso   1.000  H
  O48      1.0000 0.85110  0.34012  0.72171  Biso   1.000  O
  Zn9      1.0000 0.00000  0.26613  0.75000  Biso   1.000  Zn
  Zn10     1.0000 0.50000  0.76613  0.75000  Biso   1.000  Zn
  Zn11     1.0000 0.00000  0.73387  0.25000  Biso   1.000  Zn
  Zn12     1.0000 0.50000  0.23387  0.25000  Biso   1.000  Zn
