data_image0
_cell_length_a       14.475
_cell_length_b       16.613
_cell_length_c       24.839
_cell_angle_alpha    90
_cell_angle_beta     95.062
_cell_angle_gamma    90

_symmetry_space_group_name_H-M    "P 1"
_symmetry_int_tables_number       1

loop_
  _symmetry_equiv_pos_as_xyz
  'x, y, z'

loop_
  _atom_site_label
  _atom_site_occupancy
  _atom_site_fract_x
  _atom_site_fract_y
  _atom_site_fract_z
  _atom_site_thermal_displace_type
  _atom_site_B_iso_or_equiv
  _atom_site_type_symbol
  Cd1      1.0000 0.37597  0.26026  0.48663  Biso   1.000  Cd
  N1       1.0000 0.14210  0.78632  0.23975  Biso   1.000  N
  C1       1.0000 0.09160  0.82542  0.20068  Biso   1.000  C
  H1       1.0000 0.06090  0.79570  0.17290  Biso   1.000  H
  C2       1.0000 0.08297  0.90802  0.19959  Biso   1.000  C
  C3       1.0000 0.12695  0.95212  0.24222  Biso   1.000  C
  H2       1.0000 0.12230  0.00790  0.24270  Biso   1.000  H
  C4       1.0000 0.17810  0.91163  0.28427  Biso   1.000  C
  C5       1.0000 0.18190  0.82890  0.28056  Biso   1.000  C
  H3       1.0000 0.21470  0.80100  0.30860  Biso   1.000  H
  N2       1.0000 0.98466  0.91517  0.11213  Biso   1.000  N
  H4       1.0000 0.97860  0.86410  0.10730  Biso   1.000  H
  N3       1.0000 0.02711  0.03127  0.15274  Biso   1.000  N
  N4       1.0000 0.90509  0.11883  0.02997  Biso   1.000  N
  C6       1.0000 0.03143  0.95229  0.15551  Biso   1.000  C
  C7       1.0000 0.97650  0.04635  0.10403  Biso   1.000  C
  C8       1.0000 0.94980  0.97351  0.07832  Biso   1.000  C
  C9       1.0000 0.89800  0.97372  0.02847  Biso   1.000  C
  H5       1.0000 0.87800  0.92630  0.01130  Biso   1.000  H
  C10      1.0000 0.87790  0.04829  0.00600  Biso   1.000  C
  H6       1.0000 0.84380  0.05030  0.97250  Biso   1.000  H
  C11      1.0000 0.95250  0.11831  0.07777  Biso   1.000  C
  H7       1.0000 0.97030  0.16690  0.09420  Biso   1.000  H
  N5       1.0000 0.27379  0.92489  0.37251  Biso   1.000  N
  H8       1.0000 0.28490  0.87460  0.37830  Biso   1.000  H
  N6       1.0000 0.21791  0.03750  0.33135  Biso   1.000  N
  N7       1.0000 0.33654  0.13596  0.45082  Biso   1.000  N
  C12      1.0000 0.22360  0.95698  0.32893  Biso   1.000  C
  C13      1.0000 0.26850  0.05706  0.37927  Biso   1.000  C
  C14      1.0000 0.30320  0.98722  0.40526  Biso   1.000  C
  C15      1.0000 0.35500  0.99164  0.45531  Biso   1.000  C
  H9       1.0000 0.37830  0.94600  0.47350  Biso   1.000  H
  C16      1.0000 0.36930  0.06810  0.47607  Biso   1.000  C
  H10      1.0000 0.40350  0.07340  0.50940  Biso   1.000  H
  C17      1.0000 0.28820  0.13136  0.40306  Biso   1.000  C
  H11      1.0000 0.26730  0.17820  0.38540  Biso   1.000  H
  O1       1.0000 0.99589  0.76540  0.42801  Biso   1.000  O
  O2       1.0000 0.04123  0.70653  0.50337  Biso   1.000  O
  O3       1.0000 0.13850  0.29037  0.43099  Biso   1.000  O
  O4       1.0000 0.28585  0.32604  0.42198  Biso   1.000  O
  C18      1.0000 0.05650  0.72790  0.45699  Biso   1.000  C
  C19      1.0000 0.14520  0.70760  0.43480  Biso   1.000  C
  H12      1.0000 0.19530  0.71380  0.46310  Biso   1.000  H
  H13      1.0000 0.15580  0.74550  0.40620  Biso   1.000  H
  C20      1.0000 0.14780  0.62245  0.41228  Biso   1.000  C
  C21      1.0000 0.07030  0.57500  0.40415  Biso   1.000  C
  H14      1.0000 0.01280  0.59610  0.41070  Biso   1.000  H
  C22      1.0000 0.07590  0.49550  0.38614  Biso   1.000  C
  H15      1.0000 0.02250  0.46420  0.38150  Biso   1.000  H
  C23      1.0000 0.16010  0.46295  0.37513  Biso   1.000  C
  C24      1.0000 0.23720  0.51240  0.38091  Biso   1.000  C
  H16      1.0000 0.29400  0.49230  0.37240  Biso   1.000  H
  C25      1.0000 0.23200  0.59080  0.39901  Biso   1.000  C
  H17      1.0000 0.28500  0.62270  0.40230  Biso   1.000  H
  C26      1.0000 0.16840  0.37610  0.35926  Biso   1.000  C
  H18      1.0000 0.21280  0.37110  0.33240  Biso   1.000  H
  H19      1.0000 0.10890  0.35660  0.34350  Biso   1.000  H
  C27      1.0000 0.19980  0.32646  0.40816  Biso   1.000  C
  Cd2      1.0000 0.87597  0.76026  0.48663  Biso   1.000  Cd
  N8       1.0000 0.64210  0.28632  0.23975  Biso   1.000  N
  C28      1.0000 0.59160  0.32542  0.20068  Biso   1.000  C
  H20      1.0000 0.56090  0.29570  0.17290  Biso   1.000  H
  C29      1.0000 0.58297  0.40802  0.19959  Biso   1.000  C
  C30      1.0000 0.62695  0.45212  0.24222  Biso   1.000  C
  H21      1.0000 0.62230  0.50790  0.24270  Biso   1.000  H
  C31      1.0000 0.67810  0.41163  0.28427  Biso   1.000  C
  C32      1.0000 0.68190  0.32890  0.28056  Biso   1.000  C
  H22      1.0000 0.71470  0.30100  0.30860  Biso   1.000  H
  N9       1.0000 0.48466  0.41517  0.11213  Biso   1.000  N
  H23      1.0000 0.47860  0.36410  0.10730  Biso   1.000  H
  N10      1.0000 0.52711  0.53127  0.15274  Biso   1.000  N
  N11      1.0000 0.40509  0.61883  0.02997  Biso   1.000  N
  C33      1.0000 0.53143  0.45229  0.15551  Biso   1.000  C
  C34      1.0000 0.47650  0.54635  0.10403  Biso   1.000  C
  C35      1.0000 0.44980  0.47351  0.07832  Biso   1.000  C
  C36      1.0000 0.39800  0.47372  0.02847  Biso   1.000  C
  H24      1.0000 0.37800  0.42630  0.01130  Biso   1.000  H
  C37      1.0000 0.37790  0.54829  0.00600  Biso   1.000  C
  H25      1.0000 0.34380  0.55030  0.97250  Biso   1.000  H
  C38      1.0000 0.45250  0.61831  0.07777  Biso   1.000  C
  H26      1.0000 0.47030  0.66690  0.09420  Biso   1.000  H
  N12      1.0000 0.77379  0.42489  0.37251  Biso   1.000  N
  H27      1.0000 0.78490  0.37460  0.37830  Biso   1.000  H
  N13      1.0000 0.71791  0.53750  0.33135  Biso   1.000  N
  N14      1.0000 0.83654  0.63596  0.45082  Biso   1.000  N
  C39      1.0000 0.72360  0.45698  0.32893  Biso   1.000  C
  C40      1.0000 0.76850  0.55706  0.37927  Biso   1.000  C
  C41      1.0000 0.80320  0.48722  0.40526  Biso   1.000  C
  C42      1.0000 0.85500  0.49164  0.45531  Biso   1.000  C
  H28      1.0000 0.87830  0.44600  0.47350  Biso   1.000  H
  C43      1.0000 0.86930  0.56810  0.47607  Biso   1.000  C
  H29      1.0000 0.90350  0.57340  0.50940  Biso   1.000  H
  C44      1.0000 0.78820  0.63136  0.40306  Biso   1.000  C
  H30      1.0000 0.76730  0.67820  0.38540  Biso   1.000  H
  O5       1.0000 0.49589  0.26540  0.42801  Biso   1.000  O
  O6       1.0000 0.54123  0.20653  0.50337  Biso   1.000  O
  O7       1.0000 0.63850  0.79037  0.43099  Biso   1.000  O
  O8       1.0000 0.78585  0.82604  0.42198  Biso   1.000  O
  C45      1.0000 0.55650  0.22790  0.45699  Biso   1.000  C
  C46      1.0000 0.64520  0.20760  0.43480  Biso   1.000  C
  H31      1.0000 0.69530  0.21380  0.46310  Biso   1.000  H
  H32      1.0000 0.65580  0.24550  0.40620  Biso   1.000  H
  C47      1.0000 0.64780  0.12245  0.41228  Biso   1.000  C
  C48      1.0000 0.57030  0.07500  0.40415  Biso   1.000  C
  H33      1.0000 0.51280  0.09610  0.41070  Biso   1.000  H
  C49      1.0000 0.57590  0.99550  0.38614  Biso   1.000  C
  H34      1.0000 0.52250  0.96420  0.38150  Biso   1.000  H
  C50      1.0000 0.66010  0.96295  0.37513  Biso   1.000  C
  C51      1.0000 0.73720  0.01240  0.38091  Biso   1.000  C
  H35      1.0000 0.79400  0.99230  0.37240  Biso   1.000  H
  C52      1.0000 0.73200  0.09080  0.39901  Biso   1.000  C
  H36      1.0000 0.78500  0.12270  0.40230  Biso   1.000  H
  C53      1.0000 0.66840  0.87610  0.35926  Biso   1.000  C
  H37      1.0000 0.71280  0.87110  0.33240  Biso   1.000  H
  H38      1.0000 0.60890  0.85660  0.34350  Biso   1.000  H
  C54      1.0000 0.69980  0.82646  0.40816  Biso   1.000  C
  Cd3      1.0000 0.62403  0.26026  0.01337  Biso   1.000  Cd
  N15      1.0000 0.85790  0.78632  0.26025  Biso   1.000  N
  C55      1.0000 0.90840  0.82542  0.29932  Biso   1.000  C
  H39      1.0000 0.93910  0.79570  0.32710  Biso   1.000  H
  C56      1.0000 0.91703  0.90802  0.30041  Biso   1.000  C
  C57      1.0000 0.87305  0.95212  0.25778  Biso   1.000  C
  H40      1.0000 0.87770  0.00790  0.25730  Biso   1.000  H
  C58      1.0000 0.82190  0.91163  0.21573  Biso   1.000  C
  C59      1.0000 0.81810  0.82890  0.21944  Biso   1.000  C
  H41      1.0000 0.78530  0.80100  0.19140  Biso   1.000  H
  N16      1.0000 0.01534  0.91517  0.38787  Biso   1.000  N
  H42      1.0000 0.02140  0.86410  0.39270  Biso   1.000  H
  N17      1.0000 0.97289  0.03127  0.34726  Biso   1.000  N
  N18      1.0000 0.09491  0.11883  0.47003  Biso   1.000  N
  C60      1.0000 0.96857  0.95229  0.34449  Biso   1.000  C
  C61      1.0000 0.02350  0.04635  0.39597  Biso   1.000  C
  C62      1.0000 0.05020  0.97351  0.42168  Biso   1.000  C
  C63      1.0000 0.10200  0.97372  0.47153  Biso   1.000  C
  H43      1.0000 0.12200  0.92630  0.48870  Biso   1.000  H
  C64      1.0000 0.12210  0.04829  0.49400  Biso   1.000  C
  H44      1.0000 0.15620  0.05030  0.52750  Biso   1.000  H
  C65      1.0000 0.04750  0.11831  0.42223  Biso   1.000  C
  H45      1.0000 0.02970  0.16690  0.40580  Biso   1.000  H
  N19      1.0000 0.72621  0.92489  0.12749  Biso   1.000  N
  H46      1.0000 0.71510  0.87460  0.12170  Biso   1.000  H
  N20      1.0000 0.78209  0.03750  0.16865  Biso   1.000  N
  N21      1.0000 0.66346  0.13596  0.04918  Biso   1.000  N
  C66      1.0000 0.77640  0.95698  0.17107  Biso   1.000  C
  C67      1.0000 0.73150  0.05706  0.12073  Biso   1.000  C
  C68      1.0000 0.69680  0.98722  0.09474  Biso   1.000  C
  C69      1.0000 0.64500  0.99164  0.04469  Biso   1.000  C
  H47      1.0000 0.62170  0.94600  0.02650  Biso   1.000  H
  C70      1.0000 0.63070  0.06810  0.02393  Biso   1.000  C
  H48      1.0000 0.59650  0.07340  0.99060  Biso   1.000  H
  C71      1.0000 0.71180  0.13136  0.09694  Biso   1.000  C
  H49      1.0000 0.73270  0.17820  0.11460  Biso   1.000  H
  O9       1.0000 0.00411  0.76540  0.07199  Biso   1.000  O
  O10      1.0000 0.95877  0.70653  0.99663  Biso   1.000  O
  O11      1.0000 0.86150  0.29037  0.06901  Biso   1.000  O
  O12      1.0000 0.71415  0.32604  0.07802  Biso   1.000  O
  C72      1.0000 0.94350  0.72790  0.04301  Biso   1.000  C
  C73      1.0000 0.85480  0.70760  0.06520  Biso   1.000  C
  H50      1.0000 0.80470  0.71380  0.03690  Biso   1.000  H
  H51      1.0000 0.84420  0.74550  0.09380  Biso   1.000  H
  C74      1.0000 0.85220  0.62245  0.08772  Biso   1.000  C
  C75      1.0000 0.92970  0.57500  0.09585  Biso   1.000  C
  H52      1.0000 0.98720  0.59610  0.08930  Biso   1.000  H
  C76      1.0000 0.92410  0.49550  0.11386  Biso   1.000  C
  H53      1.0000 0.97750  0.46420  0.11850  Biso   1.000  H
  C77      1.0000 0.83990  0.46295  0.12487  Biso   1.000  C
  C78      1.0000 0.76280  0.51240  0.11909  Biso   1.000  C
  H54      1.0000 0.70600  0.49230  0.12760  Biso   1.000  H
  C79      1.0000 0.76800  0.59080  0.10099  Biso   1.000  C
  H55      1.0000 0.71500  0.62270  0.09770  Biso   1.000  H
  C80      1.0000 0.83160  0.37610  0.14074  Biso   1.000  C
  H56      1.0000 0.78720  0.37110  0.16760  Biso   1.000  H
  H57      1.0000 0.89110  0.35660  0.15650  Biso   1.000  H
  C81      1.0000 0.80020  0.32646  0.09184  Biso   1.000  C
  Cd4      1.0000 0.12403  0.76026  0.01337  Biso   1.000  Cd
  N22      1.0000 0.35790  0.28632  0.26025  Biso   1.000  N
  C82      1.0000 0.40840  0.32542  0.29932  Biso   1.000  C
  H58      1.0000 0.43910  0.29570  0.32710  Biso   1.000  H
  C83      1.0000 0.41703  0.40802  0.30041  Biso   1.000  C
  C84      1.0000 0.37305  0.45212  0.25778  Biso   1.000  C
  H59      1.0000 0.37770  0.50790  0.25730  Biso   1.000  H
  C85      1.0000 0.32190  0.41163  0.21573  Biso   1.000  C
  C86      1.0000 0.31810  0.32890  0.21944  Biso   1.000  C
  H60      1.0000 0.28530  0.30100  0.19140  Biso   1.000  H
  N23      1.0000 0.51534  0.41517  0.38787  Biso   1.000  N
  H61      1.0000 0.52140  0.36410  0.39270  Biso   1.000  H
  N24      1.0000 0.47289  0.53127  0.34726  Biso   1.000  N
  N25      1.0000 0.59491  0.61883  0.47003  Biso   1.000  N
  C87      1.0000 0.46857  0.45229  0.34449  Biso   1.000  C
  C88      1.0000 0.52350  0.54635  0.39597  Biso   1.000  C
  C89      1.0000 0.55020  0.47351  0.42168  Biso   1.000  C
  C90      1.0000 0.60200  0.47372  0.47153  Biso   1.000  C
  H62      1.0000 0.62200  0.42630  0.48870  Biso   1.000  H
  C91      1.0000 0.62210  0.54829  0.49400  Biso   1.000  C
  H63      1.0000 0.65620  0.55030  0.52750  Biso   1.000  H
  C92      1.0000 0.54750  0.61831  0.42223  Biso   1.000  C
  H64      1.0000 0.52970  0.66690  0.40580  Biso   1.000  H
  N26      1.0000 0.22621  0.42489  0.12749  Biso   1.000  N
  H65      1.0000 0.21510  0.37460  0.12170  Biso   1.000  H
  N27      1.0000 0.28209  0.53750  0.16865  Biso   1.000  N
  N28      1.0000 0.16346  0.63596  0.04918  Biso   1.000  N
  C93      1.0000 0.27640  0.45698  0.17107  Biso   1.000  C
  C94      1.0000 0.23150  0.55706  0.12073  Biso   1.000  C
  C95      1.0000 0.19680  0.48722  0.09474  Biso   1.000  C
  C96      1.0000 0.14500  0.49164  0.04469  Biso   1.000  C
  H66      1.0000 0.12170  0.44600  0.02650  Biso   1.000  H
  C97      1.0000 0.13070  0.56810  0.02393  Biso   1.000  C
  H67      1.0000 0.09650  0.57340  0.99060  Biso   1.000  H
  C98      1.0000 0.21180  0.63136  0.09694  Biso   1.000  C
  H68      1.0000 0.23270  0.67820  0.11460  Biso   1.000  H
  O13      1.0000 0.50411  0.26540  0.07199  Biso   1.000  O
  O14      1.0000 0.45877  0.20653  0.99663  Biso   1.000  O
  O15      1.0000 0.36150  0.79037  0.06901  Biso   1.000  O
  O16      1.0000 0.21415  0.82604  0.07802  Biso   1.000  O
  C99      1.0000 0.44350  0.22790  0.04301  Biso   1.000  C
  C100     1.0000 0.35480  0.20760  0.06520  Biso   1.000  C
  H69      1.0000 0.30470  0.21380  0.03690  Biso   1.000  H
  H70      1.0000 0.34420  0.24550  0.09380  Biso   1.000  H
  C101     1.0000 0.35220  0.12245  0.08772  Biso   1.000  C
  C102     1.0000 0.42970  0.07500  0.09585  Biso   1.000  C
  H71      1.0000 0.48720  0.09610  0.08930  Biso   1.000  H
  C103     1.0000 0.42410  0.99550  0.11386  Biso   1.000  C
  H72      1.0000 0.47750  0.96420  0.11850  Biso   1.000  H
  C104     1.0000 0.33990  0.96295  0.12487  Biso   1.000  C
  C105     1.0000 0.26280  0.01240  0.11909  Biso   1.000  C
  H73      1.0000 0.20600  0.99230  0.12760  Biso   1.000  H
  C106     1.0000 0.26800  0.09080  0.10099  Biso   1.000  C
  H74      1.0000 0.21500  0.12270  0.09770  Biso   1.000  H
  C107     1.0000 0.33160  0.87610  0.14074  Biso   1.000  C
  H75      1.0000 0.28720  0.87110  0.16760  Biso   1.000  H
  H76      1.0000 0.39110  0.85660  0.15650  Biso   1.000  H
  C108     1.0000 0.30020  0.82646  0.09184  Biso   1.000  C
  Cd5      1.0000 0.62403  0.73974  0.51337  Biso   1.000  Cd
  N29      1.0000 0.85790  0.21368  0.76025  Biso   1.000  N
  C109     1.0000 0.90840  0.17458  0.79932  Biso   1.000  C
  H77      1.0000 0.93910  0.20430  0.82710  Biso   1.000  H
  C110     1.0000 0.91703  0.09198  0.80041  Biso   1.000  C
  C111     1.0000 0.87305  0.04788  0.75778  Biso   1.000  C
  H78      1.0000 0.87770  0.99210  0.75730  Biso   1.000  H
  C112     1.0000 0.82190  0.08837  0.71573  Biso   1.000  C
  C113     1.0000 0.81810  0.17110  0.71944  Biso   1.000  C
  H79      1.0000 0.78530  0.19900  0.69140  Biso   1.000  H
  N30      1.0000 0.01534  0.08483  0.88787  Biso   1.000  N
  H80      1.0000 0.02140  0.13590  0.89270  Biso   1.000  H
  N31      1.0000 0.97289  0.96873  0.84726  Biso   1.000  N
  N32      1.0000 0.09491  0.88117  0.97003  Biso   1.000  N
  C114     1.0000 0.96857  0.04771  0.84449  Biso   1.000  C
  C115     1.0000 0.02350  0.95365  0.89597  Biso   1.000  C
  C116     1.0000 0.05020  0.02649  0.92168  Biso   1.000  C
  C117     1.0000 0.10200  0.02628  0.97153  Biso   1.000  C
  H81      1.0000 0.12200  0.07370  0.98870  Biso   1.000  H
  C118     1.0000 0.12210  0.95171  0.99400  Biso   1.000  C
  H82      1.0000 0.15620  0.94970  0.02750  Biso   1.000  H
  C119     1.0000 0.04750  0.88169  0.92223  Biso   1.000  C
  H83      1.0000 0.02970  0.83310  0.90580  Biso   1.000  H
  N33      1.0000 0.72621  0.07511  0.62749  Biso   1.000  N
  H84      1.0000 0.71510  0.12540  0.62170  Biso   1.000  H
  N34      1.0000 0.78209  0.96250  0.66865  Biso   1.000  N
  N35      1.0000 0.66346  0.86404  0.54918  Biso   1.000  N
  C120     1.0000 0.77640  0.04302  0.67107  Biso   1.000  C
  C121     1.0000 0.73150  0.94294  0.62073  Biso   1.000  C
  C122     1.0000 0.69680  0.01278  0.59474  Biso   1.000  C
  C123     1.0000 0.64500  0.00836  0.54469  Biso   1.000  C
  H85      1.0000 0.62170  0.05400  0.52650  Biso   1.000  H
  C124     1.0000 0.63070  0.93190  0.52393  Biso   1.000  C
  H86      1.0000 0.59650  0.92660  0.49060  Biso   1.000  H
  C125     1.0000 0.71180  0.86864  0.59694  Biso   1.000  C
  H87      1.0000 0.73270  0.82180  0.61460  Biso   1.000  H
  O17      1.0000 0.00411  0.23460  0.57199  Biso   1.000  O
  O18      1.0000 0.95877  0.29347  0.49663  Biso   1.000  O
  O19      1.0000 0.86150  0.70963  0.56901  Biso   1.000  O
  O20      1.0000 0.71415  0.67396  0.57802  Biso   1.000  O
  C126     1.0000 0.94350  0.27210  0.54301  Biso   1.000  C
  C127     1.0000 0.85480  0.29240  0.56520  Biso   1.000  C
  H88      1.0000 0.80470  0.28620  0.53690  Biso   1.000  H
  H89      1.0000 0.84420  0.25450  0.59380  Biso   1.000  H
  C128     1.0000 0.85220  0.37755  0.58772  Biso   1.000  C
  C129     1.0000 0.92970  0.42500  0.59585  Biso   1.000  C
  H90      1.0000 0.98720  0.40390  0.58930  Biso   1.000  H
  C130     1.0000 0.92410  0.50450  0.61386  Biso   1.000  C
  H91      1.0000 0.97750  0.53580  0.61850  Biso   1.000  H
  C131     1.0000 0.83990  0.53705  0.62487  Biso   1.000  C
  C132     1.0000 0.76280  0.48760  0.61909  Biso   1.000  C
  H92      1.0000 0.70600  0.50770  0.62760  Biso   1.000  H
  C133     1.0000 0.76800  0.40920  0.60099  Biso   1.000  C
  H93      1.0000 0.71500  0.37730  0.59770  Biso   1.000  H
  C134     1.0000 0.83160  0.62390  0.64074  Biso   1.000  C
  H94      1.0000 0.78720  0.62890  0.66760  Biso   1.000  H
  H95      1.0000 0.89110  0.64340  0.65650  Biso   1.000  H
  C135     1.0000 0.80020  0.67354  0.59184  Biso   1.000  C
  Cd6      1.0000 0.12403  0.23974  0.51337  Biso   1.000  Cd
  N36      1.0000 0.35790  0.71368  0.76025  Biso   1.000  N
  C136     1.0000 0.40840  0.67458  0.79932  Biso   1.000  C
  H96      1.0000 0.43910  0.70430  0.82710  Biso   1.000  H
  C137     1.0000 0.41703  0.59198  0.80041  Biso   1.000  C
  C138     1.0000 0.37305  0.54788  0.75778  Biso   1.000  C
  H97      1.0000 0.37770  0.49210  0.75730  Biso   1.000  H
  C139     1.0000 0.32190  0.58837  0.71573  Biso   1.000  C
  C140     1.0000 0.31810  0.67110  0.71944  Biso   1.000  C
  H98      1.0000 0.28530  0.69900  0.69140  Biso   1.000  H
  N37      1.0000 0.51534  0.58483  0.88787  Biso   1.000  N
  H99      1.0000 0.52140  0.63590  0.89270  Biso   1.000  H
  N38      1.0000 0.47289  0.46873  0.84726  Biso   1.000  N
  N39      1.0000 0.59491  0.38117  0.97003  Biso   1.000  N
  C141     1.0000 0.46857  0.54771  0.84449  Biso   1.000  C
  C142     1.0000 0.52350  0.45365  0.89597  Biso   1.000  C
  C143     1.0000 0.55020  0.52649  0.92168  Biso   1.000  C
  C144     1.0000 0.60200  0.52628  0.97153  Biso   1.000  C
  H100     1.0000 0.62200  0.57370  0.98870  Biso   1.000  H
  C145     1.0000 0.62210  0.45171  0.99400  Biso   1.000  C
  H101     1.0000 0.65620  0.44970  0.02750  Biso   1.000  H
  C146     1.0000 0.54750  0.38169  0.92223  Biso   1.000  C
  H102     1.0000 0.52970  0.33310  0.90580  Biso   1.000  H
  N40      1.0000 0.22621  0.57511  0.62749  Biso   1.000  N
  H103     1.0000 0.21510  0.62540  0.62170  Biso   1.000  H
  N41      1.0000 0.28209  0.46250  0.66865  Biso   1.000  N
  N42      1.0000 0.16346  0.36404  0.54918  Biso   1.000  N
  C147     1.0000 0.27640  0.54302  0.67107  Biso   1.000  C
  C148     1.0000 0.23150  0.44294  0.62073  Biso   1.000  C
  C149     1.0000 0.19680  0.51278  0.59474  Biso   1.000  C
  C150     1.0000 0.14500  0.50836  0.54469  Biso   1.000  C
  H104     1.0000 0.12170  0.55400  0.52650  Biso   1.000  H
  C151     1.0000 0.13070  0.43190  0.52393  Biso   1.000  C
  H105     1.0000 0.09650  0.42660  0.49060  Biso   1.000  H
  C152     1.0000 0.21180  0.36864  0.59694  Biso   1.000  C
  H106     1.0000 0.23270  0.32180  0.61460  Biso   1.000  H
  O21      1.0000 0.50411  0.73460  0.57199  Biso   1.000  O
  O22      1.0000 0.45877  0.79347  0.49663  Biso   1.000  O
  O23      1.0000 0.36150  0.20963  0.56901  Biso   1.000  O
  O24      1.0000 0.21415  0.17396  0.57802  Biso   1.000  O
  C153     1.0000 0.44350  0.77210  0.54301  Biso   1.000  C
  C154     1.0000 0.35480  0.79240  0.56520  Biso   1.000  C
  H107     1.0000 0.30470  0.78620  0.53690  Biso   1.000  H
  H108     1.0000 0.34420  0.75450  0.59380  Biso   1.000  H
  C155     1.0000 0.35220  0.87755  0.58772  Biso   1.000  C
  C156     1.0000 0.42970  0.92500  0.59585  Biso   1.000  C
  H109     1.0000 0.48720  0.90390  0.58930  Biso   1.000  H
  C157     1.0000 0.42410  0.00450  0.61386  Biso   1.000  C
  H110     1.0000 0.47750  0.03580  0.61850  Biso   1.000  H
  C158     1.0000 0.33990  0.03705  0.62487  Biso   1.000  C
  C159     1.0000 0.26280  0.98760  0.61909  Biso   1.000  C
  H111     1.0000 0.20600  0.00770  0.62760  Biso   1.000  H
  C160     1.0000 0.26800  0.90920  0.60099  Biso   1.000  C
  H112     1.0000 0.21500  0.87730  0.59770  Biso   1.000  H
  C161     1.0000 0.33160  0.12390  0.64074  Biso   1.000  C
  H113     1.0000 0.28720  0.12890  0.66760  Biso   1.000  H
  H114     1.0000 0.39110  0.14340  0.65650  Biso   1.000  H
  C162     1.0000 0.30020  0.17354  0.59184  Biso   1.000  C
  Cd7      1.0000 0.37597  0.73974  0.98663  Biso   1.000  Cd
  N43      1.0000 0.14210  0.21368  0.73975  Biso   1.000  N
  C163     1.0000 0.09160  0.17458  0.70068  Biso   1.000  C
  H115     1.0000 0.06090  0.20430  0.67290  Biso   1.000  H
  C164     1.0000 0.08297  0.09198  0.69959  Biso   1.000  C
  C165     1.0000 0.12695  0.04788  0.74222  Biso   1.000  C
  H116     1.0000 0.12230  0.99210  0.74270  Biso   1.000  H
  C166     1.0000 0.17810  0.08837  0.78427  Biso   1.000  C
  C167     1.0000 0.18190  0.17110  0.78056  Biso   1.000  C
  H117     1.0000 0.21470  0.19900  0.80860  Biso   1.000  H
  N44      1.0000 0.98466  0.08483  0.61213  Biso   1.000  N
  H118     1.0000 0.97860  0.13590  0.60730  Biso   1.000  H
  N45      1.0000 0.02711  0.96873  0.65274  Biso   1.000  N
  N46      1.0000 0.90509  0.88117  0.52997  Biso   1.000  N
  C168     1.0000 0.03143  0.04771  0.65551  Biso   1.000  C
  C169     1.0000 0.97650  0.95365  0.60403  Biso   1.000  C
  C170     1.0000 0.94980  0.02649  0.57832  Biso   1.000  C
  C171     1.0000 0.89800  0.02628  0.52847  Biso   1.000  C
  H119     1.0000 0.87800  0.07370  0.51130  Biso   1.000  H
  C172     1.0000 0.87790  0.95171  0.50600  Biso   1.000  C
  H120     1.0000 0.84380  0.94970  0.47250  Biso   1.000  H
  C173     1.0000 0.95250  0.88169  0.57777  Biso   1.000  C
  H121     1.0000 0.97030  0.83310  0.59420  Biso   1.000  H
  N47      1.0000 0.27379  0.07511  0.87251  Biso   1.000  N
  H122     1.0000 0.28490  0.12540  0.87830  Biso   1.000  H
  N48      1.0000 0.21791  0.96250  0.83135  Biso   1.000  N
  N49      1.0000 0.33654  0.86404  0.95082  Biso   1.000  N
  C174     1.0000 0.22360  0.04302  0.82893  Biso   1.000  C
  C175     1.0000 0.26850  0.94294  0.87927  Biso   1.000  C
  C176     1.0000 0.30320  0.01278  0.90526  Biso   1.000  C
  C177     1.0000 0.35500  0.00836  0.95531  Biso   1.000  C
  H123     1.0000 0.37830  0.05400  0.97350  Biso   1.000  H
  C178     1.0000 0.36930  0.93190  0.97607  Biso   1.000  C
  H124     1.0000 0.40350  0.92660  0.00940  Biso   1.000  H
  C179     1.0000 0.28820  0.86864  0.90306  Biso   1.000  C
  H125     1.0000 0.26730  0.82180  0.88540  Biso   1.000  H
  O25      1.0000 0.99589  0.23460  0.92801  Biso   1.000  O
  O26      1.0000 0.04123  0.29347  0.00337  Biso   1.000  O
  O27      1.0000 0.13850  0.70963  0.93099  Biso   1.000  O
  O28      1.0000 0.28585  0.67396  0.92198  Biso   1.000  O
  C180     1.0000 0.05650  0.27210  0.95699  Biso   1.000  C
  C181     1.0000 0.14520  0.29240  0.93480  Biso   1.000  C
  H126     1.0000 0.19530  0.28620  0.96310  Biso   1.000  H
  H127     1.0000 0.15580  0.25450  0.90620  Biso   1.000  H
  C182     1.0000 0.14780  0.37755  0.91228  Biso   1.000  C
  C183     1.0000 0.07030  0.42500  0.90415  Biso   1.000  C
  H128     1.0000 0.01280  0.40390  0.91070  Biso   1.000  H
  C184     1.0000 0.07590  0.50450  0.88614  Biso   1.000  C
  H129     1.0000 0.02250  0.53580  0.88150  Biso   1.000  H
  C185     1.0000 0.16010  0.53705  0.87513  Biso   1.000  C
  C186     1.0000 0.23720  0.48760  0.88091  Biso   1.000  C
  H130     1.0000 0.29400  0.50770  0.87240  Biso   1.000  H
  C187     1.0000 0.23200  0.40920  0.89901  Biso   1.000  C
  H131     1.0000 0.28500  0.37730  0.90230  Biso   1.000  H
  C188     1.0000 0.16840  0.62390  0.85926  Biso   1.000  C
  H132     1.0000 0.21280  0.62890  0.83240  Biso   1.000  H
  H133     1.0000 0.10890  0.64340  0.84350  Biso   1.000  H
  C189     1.0000 0.19980  0.67354  0.90816  Biso   1.000  C
  Cd8      1.0000 0.87597  0.23974  0.98663  Biso   1.000  Cd
  N50      1.0000 0.64210  0.71368  0.73975  Biso   1.000  N
  C190     1.0000 0.59160  0.67458  0.70068  Biso   1.000  C
  H134     1.0000 0.56090  0.70430  0.67290  Biso   1.000  H
  C191     1.0000 0.58297  0.59198  0.69959  Biso   1.000  C
  C192     1.0000 0.62695  0.54788  0.74222  Biso   1.000  C
  H135     1.0000 0.62230  0.49210  0.74270  Biso   1.000  H
  C193     1.0000 0.67810  0.58837  0.78427  Biso   1.000  C
  C194     1.0000 0.68190  0.67110  0.78056  Biso   1.000  C
  H136     1.0000 0.71470  0.69900  0.80860  Biso   1.000  H
  N51      1.0000 0.48466  0.58483  0.61213  Biso   1.000  N
  H137     1.0000 0.47860  0.63590  0.60730  Biso   1.000  H
  N52      1.0000 0.52711  0.46873  0.65274  Biso   1.000  N
  N53      1.0000 0.40509  0.38117  0.52997  Biso   1.000  N
  C195     1.0000 0.53143  0.54771  0.65551  Biso   1.000  C
  C196     1.0000 0.47650  0.45365  0.60403  Biso   1.000  C
  C197     1.0000 0.44980  0.52649  0.57832  Biso   1.000  C
  C198     1.0000 0.39800  0.52628  0.52847  Biso   1.000  C
  H138     1.0000 0.37800  0.57370  0.51130  Biso   1.000  H
  C199     1.0000 0.37790  0.45171  0.50600  Biso   1.000  C
  H139     1.0000 0.34380  0.44970  0.47250  Biso   1.000  H
  C200     1.0000 0.45250  0.38169  0.57777  Biso   1.000  C
  H140     1.0000 0.47030  0.33310  0.59420  Biso   1.000  H
  N54      1.0000 0.77379  0.57511  0.87251  Biso   1.000  N
  H141     1.0000 0.78490  0.62540  0.87830  Biso   1.000  H
  N55      1.0000 0.71791  0.46250  0.83135  Biso   1.000  N
  N56      1.0000 0.83654  0.36404  0.95082  Biso   1.000  N
  C201     1.0000 0.72360  0.54302  0.82893  Biso   1.000  C
  C202     1.0000 0.76850  0.44294  0.87927  Biso   1.000  C
  C203     1.0000 0.80320  0.51278  0.90526  Biso   1.000  C
  C204     1.0000 0.85500  0.50836  0.95531  Biso   1.000  C
  H142     1.0000 0.87830  0.55400  0.97350  Biso   1.000  H
  C205     1.0000 0.86930  0.43190  0.97607  Biso   1.000  C
  H143     1.0000 0.90350  0.42660  0.00940  Biso   1.000  H
  C206     1.0000 0.78820  0.36864  0.90306  Biso   1.000  C
  H144     1.0000 0.76730  0.32180  0.88540  Biso   1.000  H
  O29      1.0000 0.49589  0.73460  0.92801  Biso   1.000  O
  O30      1.0000 0.54123  0.79347  0.00337  Biso   1.000  O
  O31      1.0000 0.63850  0.20963  0.93099  Biso   1.000  O
  O32      1.0000 0.78585  0.17396  0.92198  Biso   1.000  O
  C207     1.0000 0.55650  0.77210  0.95699  Biso   1.000  C
  C208     1.0000 0.64520  0.79240  0.93480  Biso   1.000  C
  H145     1.0000 0.69530  0.78620  0.96310  Biso   1.000  H
  H146     1.0000 0.65580  0.75450  0.90620  Biso   1.000  H
  C209     1.0000 0.64780  0.87755  0.91228  Biso   1.000  C
  C210     1.0000 0.57030  0.92500  0.90415  Biso   1.000  C
  H147     1.0000 0.51280  0.90390  0.91070  Biso   1.000  H
  C211     1.0000 0.57590  0.00450  0.88614  Biso   1.000  C
  H148     1.0000 0.52250  0.03580  0.88150  Biso   1.000  H
  C212     1.0000 0.66010  0.03705  0.87513  Biso   1.000  C
  C213     1.0000 0.73720  0.98760  0.88091  Biso   1.000  C
  H149     1.0000 0.79400  0.00770  0.87240  Biso   1.000  H
  C214     1.0000 0.73200  0.90920  0.89901  Biso   1.000  C
  H150     1.0000 0.78500  0.87730  0.90230  Biso   1.000  H
  C215     1.0000 0.66840  0.12390  0.85926  Biso   1.000  C
  H151     1.0000 0.71280  0.12890  0.83240  Biso   1.000  H
  H152     1.0000 0.60890  0.14340  0.84350  Biso   1.000  H
  C216     1.0000 0.69980  0.17354  0.90816  Biso   1.000  C
