data_image0
_cell_length_a       15.639
_cell_length_b       21.426
_cell_length_c       15.9981
_cell_angle_alpha    90
_cell_angle_beta     94.5887
_cell_angle_gamma    90

_symmetry_space_group_name_H-M    "P 1"
_symmetry_int_tables_number       1

loop_
  _symmetry_equiv_pos_as_xyz
  'x, y, z'

loop_
  _atom_site_label
  _atom_site_occupancy
  _atom_site_fract_x
  _atom_site_fract_y
  _atom_site_fract_z
  _atom_site_thermal_displace_type
  _atom_site_B_iso_or_equiv
  _atom_site_type_symbol
  Zn1      1.0000 0.80710  0.76332  0.94616  Biso   1.000  Zn
  Zn2      1.0000 0.32564  0.25657  0.43224  Biso   1.000  Zn
  O1       1.0000 0.72282  0.71338  0.87196  Biso   1.000  O
  O2       1.0000 0.63603  0.69417  0.97352  Biso   1.000  O
  O3       1.0000 0.38087  0.32679  0.50054  Biso   1.000  O
  O4       1.0000 0.26803  0.34162  0.57603  Biso   1.000  O
  O5       1.0000 0.24294  0.19222  0.38202  Biso   1.000  O
  O6       1.0000 0.16137  0.18214  0.49029  Biso   1.000  O
  O7       1.0000 0.86871  0.81049  0.04220  Biso   1.000  O
  O8       1.0000 0.75877  0.82513  0.12102  Biso   1.000  O
  N1       1.0000 0.89871  0.77527  0.86520  Biso   1.000  N
  N2       1.0000 0.58213  0.74895  0.15004  Biso   1.000  N
  C1       1.0000 0.97260  0.80366  0.88832  Biso   1.000  C
  H1       1.0000 0.98100  0.81970  0.94370  Biso   1.000  H
  C2       1.0000 0.03746  0.81092  0.83565  Biso   1.000  C
  H2       1.0000 0.08930  0.83150  0.85430  Biso   1.000  H
  C3       1.0000 0.02520  0.78759  0.75503  Biso   1.000  C
  C4       1.0000 0.94791  0.75929  0.73036  Biso   1.000  C
  H3       1.0000 0.93710  0.74390  0.67480  Biso   1.000  H
  C5       1.0000 0.88666  0.75361  0.78728  Biso   1.000  C
  H4       1.0000 0.83400  0.73350  0.77020  Biso   1.000  H
  C6       1.0000 0.09119  0.78875  0.69789  Biso   1.000  C
  C7       1.0000 0.14207  0.78514  0.64656  Biso   1.000  C
  C8       1.0000 0.20058  0.77962  0.58075  Biso   1.000  C
  C9       1.0000 0.23224  0.71287  0.56900  Biso   1.000  C
  C10      1.0000 0.21380  0.66175  0.61690  Biso   1.000  C
  H5       1.0000 0.17470  0.66540  0.65910  Biso   1.000  H
  C11      1.0000 0.25280  0.60500  0.60280  Biso   1.000  C
  H6       1.0000 0.24130  0.56990  0.63640  Biso   1.000  H
  C12      1.0000 0.30860  0.59910  0.54000  Biso   1.000  C
  H7       1.0000 0.33530  0.56010  0.53090  Biso   1.000  H
  C13      1.0000 0.32550  0.65034  0.49030  Biso   1.000  C
  H8       1.0000 0.36250  0.64620  0.44640  Biso   1.000  H
  C14      1.0000 0.28789  0.70719  0.50530  Biso   1.000  C
  C15      1.0000 0.30429  0.76906  0.46101  Biso   1.000  C
  C16      1.0000 0.21546  0.79546  0.43130  Biso   1.000  C
  C17      1.0000 0.16039  0.80074  0.49495  Biso   1.000  C
  C18      1.0000 0.07887  0.82435  0.47910  Biso   1.000  C
  H9       1.0000 0.04090  0.82660  0.52250  Biso   1.000  H
  C19      1.0000 0.05300  0.84496  0.39860  Biso   1.000  C
  H10      1.0000 0.99760  0.86270  0.38700  Biso   1.000  H
  C20      1.0000 0.10760  0.83970  0.33550  Biso   1.000  C
  H11      1.0000 0.08920  0.85330  0.28050  Biso   1.000  H
  C21      1.0000 0.18950  0.81477  0.35130  Biso   1.000  C
  H12      1.0000 0.22680  0.81120  0.30750  Biso   1.000  H
  C22      1.0000 0.28331  0.81843  0.59652  Biso   1.000  C
  C23      1.0000 0.30520  0.85541  0.66550  Biso   1.000  C
  H13      1.0000 0.26720  0.85970  0.70850  Biso   1.000  H
  C24      1.0000 0.38300  0.88607  0.67110  Biso   1.000  C
  H14      1.0000 0.39830  0.91220  0.71790  Biso   1.000  H
  C25      1.0000 0.43860  0.87914  0.60930  Biso   1.000  C
  H15      1.0000 0.49230  0.90010  0.61410  Biso   1.000  H
  C26      1.0000 0.41680  0.84158  0.53960  Biso   1.000  C
  H16      1.0000 0.45560  0.83630  0.49750  Biso   1.000  H
  C27      1.0000 0.33864  0.81242  0.53285  Biso   1.000  C
  C28      1.0000 0.36135  0.76342  0.39370  Biso   1.000  C
  C29      1.0000 0.40623  0.75932  0.33710  Biso   1.000  C
  C30      1.0000 0.46401  0.75493  0.27143  Biso   1.000  C
  C31      1.0000 0.53841  0.72021  0.28428  Biso   1.000  C
  H17      1.0000 0.55020  0.69740  0.33480  Biso   1.000  H
  C32      1.0000 0.59550  0.71908  0.22265  Biso   1.000  C
  H18      1.0000 0.64690  0.69570  0.23270  Biso   1.000  H
  C33      1.0000 0.50836  0.78147  0.13749  Biso   1.000  C
  H19      1.0000 0.49730  0.80280  0.08570  Biso   1.000  H
  C34      1.0000 0.44775  0.78556  0.19605  Biso   1.000  C
  H20      1.0000 0.39650  0.80880  0.18450  Biso   1.000  H
  C35      1.0000 0.66146  0.68536  0.90192  Biso   1.000  C
  C36      1.0000 0.61507  0.63752  0.84668  Biso   1.000  C
  C37      1.0000 0.63563  0.62890  0.76463  Biso   1.000  C
  H21      1.0000 0.68050  0.65270  0.74380  Biso   1.000  H
  C38      1.0000 0.59137  0.58593  0.71285  Biso   1.000  C
  H22      1.0000 0.60650  0.58050  0.65700  Biso   1.000  H
  C39      1.0000 0.52501  0.55055  0.74168  Biso   1.000  C
  C40      1.0000 0.50583  0.55901  0.82458  Biso   1.000  C
  H23      1.0000 0.46130  0.53500  0.84580  Biso   1.000  H
  C41      1.0000 0.55003  0.60147  0.87632  Biso   1.000  C
  H24      1.0000 0.53600  0.60610  0.93270  Biso   1.000  H
  C42      1.0000 0.47574  0.50444  0.68797  Biso   1.000  C
  C43      1.0000 0.51168  0.47446  0.62176  Biso   1.000  C
  H25      1.0000 0.56740  0.48600  0.60770  Biso   1.000  H
  C44      1.0000 0.46723  0.42824  0.57641  Biso   1.000  C
  H26      1.0000 0.49270  0.40840  0.53150  Biso   1.000  H
  C45      1.0000 0.38541  0.41046  0.59586  Biso   1.000  C
  C46      1.0000 0.34792  0.44210  0.65887  Biso   1.000  C
  H27      1.0000 0.29130  0.43170  0.67130  Biso   1.000  H
  C47      1.0000 0.39185  0.48874  0.70401  Biso   1.000  C
  H28      1.0000 0.36470  0.51040  0.74640  Biso   1.000  H
  C48      1.0000 0.34071  0.35569  0.55361  Biso   1.000  C
  C49      1.0000 0.18368  0.16713  0.41947  Biso   1.000  C
  C50      1.0000 0.13534  0.11526  0.37442  Biso   1.000  C
  C51      1.0000 0.07437  0.08177  0.41342  Biso   1.000  C
  H29      1.0000 0.06510  0.09030  0.47030  Biso   1.000  H
  C52      1.0000 0.02658  0.03587  0.37030  Biso   1.000  C
  H30      1.0000 0.98570  0.01270  0.39830  Biso   1.000  H
  C53      1.0000 0.03778  0.02334  0.28650  Biso   1.000  C
  C54      1.0000 0.09994  0.05671  0.24768  Biso   1.000  C
  H31      1.0000 0.10900  0.04850  0.19070  Biso   1.000  H
  C55      1.0000 0.14868  0.10173  0.29129  Biso   1.000  C
  H32      1.0000 0.19160  0.12360  0.26430  Biso   1.000  H
  C56      1.0000 0.98481  0.97587  0.23890  Biso   1.000  C
  C57      1.0000 0.90130  0.96300  0.25740  Biso   1.000  C
  H33      1.0000 0.87740  0.98550  0.30110  Biso   1.000  H
  C58      1.0000 0.85220  0.91830  0.21360  Biso   1.000  C
  H34      1.0000 0.79530  0.91030  0.22770  Biso   1.000  H
  C59      1.0000 0.88501  0.88511  0.14966  Biso   1.000  C
  C60      1.0000 0.96843  0.89755  0.13018  Biso   1.000  C
  H35      1.0000 0.99210  0.87510  0.08630  Biso   1.000  H
  C61      1.0000 0.01715  0.94224  0.17423  Biso   1.000  C
  H36      1.0000 0.07400  0.95010  0.16000  Biso   1.000  H
  C62      1.0000 0.83268  0.83679  0.10066  Biso   1.000  C
  Zn3      1.0000 0.19290  0.26332  0.55384  Biso   1.000  Zn
  Zn4      1.0000 0.67436  0.75657  0.06776  Biso   1.000  Zn
  O9       1.0000 0.27718  0.21338  0.62804  Biso   1.000  O
  O10      1.0000 0.36397  0.19417  0.52648  Biso   1.000  O
  O11      1.0000 0.61913  0.82679  0.99946  Biso   1.000  O
  O12      1.0000 0.73197  0.84162  0.92397  Biso   1.000  O
  O13      1.0000 0.75706  0.69222  0.11798  Biso   1.000  O
  O14      1.0000 0.83863  0.68214  0.00971  Biso   1.000  O
  O15      1.0000 0.13129  0.31049  0.45780  Biso   1.000  O
  O16      1.0000 0.24123  0.32513  0.37898  Biso   1.000  O
  N3       1.0000 0.10129  0.27527  0.63480  Biso   1.000  N
  N4       1.0000 0.41787  0.24895  0.34996  Biso   1.000  N
  C63      1.0000 0.02740  0.30366  0.61168  Biso   1.000  C
  H37      1.0000 0.01900  0.31970  0.55630  Biso   1.000  H
  C64      1.0000 0.96254  0.31092  0.66435  Biso   1.000  C
  H38      1.0000 0.91070  0.33150  0.64570  Biso   1.000  H
  C65      1.0000 0.97480  0.28759  0.74497  Biso   1.000  C
  C66      1.0000 0.05209  0.25929  0.76964  Biso   1.000  C
  H39      1.0000 0.06290  0.24390  0.82520  Biso   1.000  H
  C67      1.0000 0.11334  0.25361  0.71272  Biso   1.000  C
  H40      1.0000 0.16600  0.23350  0.72980  Biso   1.000  H
  C68      1.0000 0.90881  0.28875  0.80211  Biso   1.000  C
  C69      1.0000 0.85793  0.28514  0.85344  Biso   1.000  C
  C70      1.0000 0.79942  0.27962  0.91925  Biso   1.000  C
  C71      1.0000 0.76776  0.21287  0.93100  Biso   1.000  C
  C72      1.0000 0.78620  0.16175  0.88310  Biso   1.000  C
  H41      1.0000 0.82530  0.16540  0.84090  Biso   1.000  H
  C73      1.0000 0.74720  0.10500  0.89720  Biso   1.000  C
  H42      1.0000 0.75870  0.06990  0.86360  Biso   1.000  H
  C74      1.0000 0.69140  0.09910  0.96000  Biso   1.000  C
  H43      1.0000 0.66470  0.06010  0.96910  Biso   1.000  H
  C75      1.0000 0.67450  0.15034  0.00970  Biso   1.000  C
  H44      1.0000 0.63750  0.14620  0.05360  Biso   1.000  H
  C76      1.0000 0.71211  0.20719  0.99470  Biso   1.000  C
  C77      1.0000 0.69571  0.26906  0.03899  Biso   1.000  C
  C78      1.0000 0.78454  0.29546  0.06870  Biso   1.000  C
  C79      1.0000 0.83961  0.30074  0.00505  Biso   1.000  C
  C80      1.0000 0.92113  0.32435  0.02090  Biso   1.000  C
  H45      1.0000 0.95910  0.32660  0.97750  Biso   1.000  H
  C81      1.0000 0.94700  0.34496  0.10140  Biso   1.000  C
  H46      1.0000 0.00240  0.36270  0.11300  Biso   1.000  H
  C82      1.0000 0.89240  0.33970  0.16450  Biso   1.000  C
  H47      1.0000 0.91080  0.35330  0.21950  Biso   1.000  H
  C83      1.0000 0.81050  0.31477  0.14870  Biso   1.000  C
  H48      1.0000 0.77320  0.31120  0.19250  Biso   1.000  H
  C84      1.0000 0.71669  0.31843  0.90348  Biso   1.000  C
  C85      1.0000 0.69480  0.35541  0.83450  Biso   1.000  C
  H49      1.0000 0.73280  0.35970  0.79150  Biso   1.000  H
  C86      1.0000 0.61700  0.38607  0.82890  Biso   1.000  C
  H50      1.0000 0.60170  0.41220  0.78210  Biso   1.000  H
  C87      1.0000 0.56140  0.37914  0.89070  Biso   1.000  C
  H51      1.0000 0.50770  0.40010  0.88590  Biso   1.000  H
  C88      1.0000 0.58320  0.34158  0.96040  Biso   1.000  C
  H52      1.0000 0.54440  0.33630  0.00250  Biso   1.000  H
  C89      1.0000 0.66136  0.31242  0.96715  Biso   1.000  C
  C90      1.0000 0.63865  0.26342  0.10630  Biso   1.000  C
  C91      1.0000 0.59377  0.25932  0.16290  Biso   1.000  C
  C92      1.0000 0.53599  0.25493  0.22857  Biso   1.000  C
  C93      1.0000 0.46159  0.22021  0.21572  Biso   1.000  C
  H53      1.0000 0.44980  0.19740  0.16520  Biso   1.000  H
  C94      1.0000 0.40450  0.21908  0.27735  Biso   1.000  C
  H54      1.0000 0.35310  0.19570  0.26730  Biso   1.000  H
  C95      1.0000 0.49164  0.28147  0.36251  Biso   1.000  C
  H55      1.0000 0.50270  0.30280  0.41430  Biso   1.000  H
  C96      1.0000 0.55225  0.28556  0.30395  Biso   1.000  C
  H56      1.0000 0.60350  0.30880  0.31550  Biso   1.000  H
  C97      1.0000 0.33854  0.18536  0.59808  Biso   1.000  C
  C98      1.0000 0.38493  0.13752  0.65332  Biso   1.000  C
  C99      1.0000 0.36437  0.12890  0.73537  Biso   1.000  C
  H57      1.0000 0.31950  0.15270  0.75620  Biso   1.000  H
  C100     1.0000 0.40863  0.08593  0.78715  Biso   1.000  C
  H58      1.0000 0.39350  0.08050  0.84300  Biso   1.000  H
  C101     1.0000 0.47499  0.05055  0.75832  Biso   1.000  C
  C102     1.0000 0.49417  0.05901  0.67542  Biso   1.000  C
  H59      1.0000 0.53870  0.03500  0.65420  Biso   1.000  H
  C103     1.0000 0.44997  0.10147  0.62368  Biso   1.000  C
  H60      1.0000 0.46400  0.10610  0.56730  Biso   1.000  H
  C104     1.0000 0.52426  0.00444  0.81203  Biso   1.000  C
  C105     1.0000 0.48832  0.97446  0.87824  Biso   1.000  C
  H61      1.0000 0.43260  0.98600  0.89230  Biso   1.000  H
  C106     1.0000 0.53277  0.92824  0.92359  Biso   1.000  C
  H62      1.0000 0.50730  0.90840  0.96850  Biso   1.000  H
  C107     1.0000 0.61459  0.91046  0.90414  Biso   1.000  C
  C108     1.0000 0.65208  0.94210  0.84113  Biso   1.000  C
  H63      1.0000 0.70870  0.93170  0.82870  Biso   1.000  H
  C109     1.0000 0.60815  0.98874  0.79599  Biso   1.000  C
  H64      1.0000 0.63530  0.01040  0.75360  Biso   1.000  H
  C110     1.0000 0.65929  0.85569  0.94639  Biso   1.000  C
  C111     1.0000 0.81632  0.66713  0.08053  Biso   1.000  C
  C112     1.0000 0.86466  0.61526  0.12558  Biso   1.000  C
  C113     1.0000 0.92563  0.58177  0.08658  Biso   1.000  C
  H65      1.0000 0.93490  0.59030  0.02970  Biso   1.000  H
  C114     1.0000 0.97342  0.53587  0.12970  Biso   1.000  C
  H66      1.0000 0.01430  0.51270  0.10170  Biso   1.000  H
  C115     1.0000 0.96222  0.52334  0.21350  Biso   1.000  C
  C116     1.0000 0.90006  0.55671  0.25232  Biso   1.000  C
  H67      1.0000 0.89100  0.54850  0.30930  Biso   1.000  H
  C117     1.0000 0.85132  0.60173  0.20871  Biso   1.000  C
  H68      1.0000 0.80840  0.62360  0.23570  Biso   1.000  H
  C118     1.0000 0.01519  0.47587  0.26110  Biso   1.000  C
  C119     1.0000 0.09870  0.46300  0.24260  Biso   1.000  C
  H69      1.0000 0.12260  0.48550  0.19890  Biso   1.000  H
  C120     1.0000 0.14780  0.41830  0.28640  Biso   1.000  C
  H70      1.0000 0.20470  0.41030  0.27230  Biso   1.000  H
  C121     1.0000 0.11499  0.38511  0.35034  Biso   1.000  C
  C122     1.0000 0.03157  0.39755  0.36982  Biso   1.000  C
  H71      1.0000 0.00790  0.37510  0.41370  Biso   1.000  H
  C123     1.0000 0.98285  0.44224  0.32577  Biso   1.000  C
  H72      1.0000 0.92600  0.45010  0.34000  Biso   1.000  H
  C124     1.0000 0.16732  0.33679  0.39934  Biso   1.000  C
  Zn5      1.0000 0.19290  0.23668  0.05384  Biso   1.000  Zn
  Zn6      1.0000 0.67436  0.74343  0.56776  Biso   1.000  Zn
  O17      1.0000 0.27718  0.28662  0.12804  Biso   1.000  O
  O18      1.0000 0.36397  0.30583  0.02648  Biso   1.000  O
  O19      1.0000 0.61913  0.67321  0.49946  Biso   1.000  O
  O20      1.0000 0.73197  0.65838  0.42397  Biso   1.000  O
  O21      1.0000 0.75706  0.80778  0.61798  Biso   1.000  O
  O22      1.0000 0.83863  0.81786  0.50971  Biso   1.000  O
  O23      1.0000 0.13129  0.18951  0.95780  Biso   1.000  O
  O24      1.0000 0.24123  0.17487  0.87898  Biso   1.000  O
  N5       1.0000 0.10129  0.22473  0.13480  Biso   1.000  N
  N6       1.0000 0.41787  0.25105  0.84996  Biso   1.000  N
  C125     1.0000 0.02740  0.19634  0.11168  Biso   1.000  C
  H73      1.0000 0.01900  0.18030  0.05630  Biso   1.000  H
  C126     1.0000 0.96254  0.18908  0.16435  Biso   1.000  C
  H74      1.0000 0.91070  0.16850  0.14570  Biso   1.000  H
  C127     1.0000 0.97480  0.21241  0.24497  Biso   1.000  C
  C128     1.0000 0.05209  0.24071  0.26964  Biso   1.000  C
  H75      1.0000 0.06290  0.25610  0.32520  Biso   1.000  H
  C129     1.0000 0.11334  0.24639  0.21272  Biso   1.000  C
  H76      1.0000 0.16600  0.26650  0.22980  Biso   1.000  H
  C130     1.0000 0.90881  0.21125  0.30211  Biso   1.000  C
  C131     1.0000 0.85793  0.21486  0.35344  Biso   1.000  C
  C132     1.0000 0.79942  0.22038  0.41925  Biso   1.000  C
  C133     1.0000 0.76776  0.28713  0.43100  Biso   1.000  C
  C134     1.0000 0.78620  0.33825  0.38310  Biso   1.000  C
  H77      1.0000 0.82530  0.33460  0.34090  Biso   1.000  H
  C135     1.0000 0.74720  0.39500  0.39720  Biso   1.000  C
  H78      1.0000 0.75870  0.43010  0.36360  Biso   1.000  H
  C136     1.0000 0.69140  0.40090  0.46000  Biso   1.000  C
  H79      1.0000 0.66470  0.43990  0.46910  Biso   1.000  H
  C137     1.0000 0.67450  0.34966  0.50970  Biso   1.000  C
  H80      1.0000 0.63750  0.35380  0.55360  Biso   1.000  H
  C138     1.0000 0.71211  0.29281  0.49470  Biso   1.000  C
  C139     1.0000 0.69571  0.23094  0.53899  Biso   1.000  C
  C140     1.0000 0.78454  0.20454  0.56870  Biso   1.000  C
  C141     1.0000 0.83961  0.19926  0.50505  Biso   1.000  C
  C142     1.0000 0.92113  0.17565  0.52090  Biso   1.000  C
  H81      1.0000 0.95910  0.17340  0.47750  Biso   1.000  H
  C143     1.0000 0.94700  0.15504  0.60140  Biso   1.000  C
  H82      1.0000 0.00240  0.13730  0.61300  Biso   1.000  H
  C144     1.0000 0.89240  0.16030  0.66450  Biso   1.000  C
  H83      1.0000 0.91080  0.14670  0.71950  Biso   1.000  H
  C145     1.0000 0.81050  0.18523  0.64870  Biso   1.000  C
  H84      1.0000 0.77320  0.18880  0.69250  Biso   1.000  H
  C146     1.0000 0.71669  0.18157  0.40348  Biso   1.000  C
  C147     1.0000 0.69480  0.14459  0.33450  Biso   1.000  C
  H85      1.0000 0.73280  0.14030  0.29150  Biso   1.000  H
  C148     1.0000 0.61700  0.11393  0.32890  Biso   1.000  C
  H86      1.0000 0.60170  0.08780  0.28210  Biso   1.000  H
  C149     1.0000 0.56140  0.12086  0.39070  Biso   1.000  C
  H87      1.0000 0.50770  0.09990  0.38590  Biso   1.000  H
  C150     1.0000 0.58320  0.15842  0.46040  Biso   1.000  C
  H88      1.0000 0.54440  0.16370  0.50250  Biso   1.000  H
  C151     1.0000 0.66136  0.18758  0.46715  Biso   1.000  C
  C152     1.0000 0.63865  0.23658  0.60630  Biso   1.000  C
  C153     1.0000 0.59377  0.24068  0.66290  Biso   1.000  C
  C154     1.0000 0.53599  0.24507  0.72857  Biso   1.000  C
  C155     1.0000 0.46159  0.27979  0.71572  Biso   1.000  C
  H89      1.0000 0.44980  0.30260  0.66520  Biso   1.000  H
  C156     1.0000 0.40450  0.28092  0.77735  Biso   1.000  C
  H90      1.0000 0.35310  0.30430  0.76730  Biso   1.000  H
  C157     1.0000 0.49164  0.21853  0.86251  Biso   1.000  C
  H91      1.0000 0.50270  0.19720  0.91430  Biso   1.000  H
  C158     1.0000 0.55225  0.21444  0.80395  Biso   1.000  C
  H92      1.0000 0.60350  0.19120  0.81550  Biso   1.000  H
  C159     1.0000 0.33854  0.31464  0.09808  Biso   1.000  C
  C160     1.0000 0.38493  0.36248  0.15332  Biso   1.000  C
  C161     1.0000 0.36437  0.37110  0.23537  Biso   1.000  C
  H93      1.0000 0.31950  0.34730  0.25620  Biso   1.000  H
  C162     1.0000 0.40863  0.41407  0.28715  Biso   1.000  C
  H94      1.0000 0.39350  0.41950  0.34300  Biso   1.000  H
  C163     1.0000 0.47499  0.44945  0.25832  Biso   1.000  C
  C164     1.0000 0.49417  0.44099  0.17542  Biso   1.000  C
  H95      1.0000 0.53870  0.46500  0.15420  Biso   1.000  H
  C165     1.0000 0.44997  0.39853  0.12368  Biso   1.000  C
  H96      1.0000 0.46400  0.39390  0.06730  Biso   1.000  H
  C166     1.0000 0.52426  0.49556  0.31203  Biso   1.000  C
  C167     1.0000 0.48832  0.52554  0.37824  Biso   1.000  C
  H97      1.0000 0.43260  0.51400  0.39230  Biso   1.000  H
  C168     1.0000 0.53277  0.57176  0.42359  Biso   1.000  C
  H98      1.0000 0.50730  0.59160  0.46850  Biso   1.000  H
  C169     1.0000 0.61459  0.58954  0.40414  Biso   1.000  C
  C170     1.0000 0.65208  0.55790  0.34113  Biso   1.000  C
  H99      1.0000 0.70870  0.56830  0.32870  Biso   1.000  H
  C171     1.0000 0.60815  0.51126  0.29599  Biso   1.000  C
  H100     1.0000 0.63530  0.48960  0.25360  Biso   1.000  H
  C172     1.0000 0.65929  0.64431  0.44639  Biso   1.000  C
  C173     1.0000 0.81632  0.83287  0.58053  Biso   1.000  C
  C174     1.0000 0.86466  0.88474  0.62558  Biso   1.000  C
  C175     1.0000 0.92563  0.91823  0.58658  Biso   1.000  C
  H101     1.0000 0.93490  0.90970  0.52970  Biso   1.000  H
  C176     1.0000 0.97342  0.96413  0.62970  Biso   1.000  C
  H102     1.0000 0.01430  0.98730  0.60170  Biso   1.000  H
  C177     1.0000 0.96222  0.97666  0.71350  Biso   1.000  C
  C178     1.0000 0.90006  0.94329  0.75232  Biso   1.000  C
  H103     1.0000 0.89100  0.95150  0.80930  Biso   1.000  H
  C179     1.0000 0.85132  0.89827  0.70871  Biso   1.000  C
  H104     1.0000 0.80840  0.87640  0.73570  Biso   1.000  H
  C180     1.0000 0.01519  0.02413  0.76110  Biso   1.000  C
  C181     1.0000 0.09870  0.03700  0.74260  Biso   1.000  C
  H105     1.0000 0.12260  0.01450  0.69890  Biso   1.000  H
  C182     1.0000 0.14780  0.08170  0.78640  Biso   1.000  C
  H106     1.0000 0.20470  0.08970  0.77230  Biso   1.000  H
  C183     1.0000 0.11499  0.11489  0.85034  Biso   1.000  C
  C184     1.0000 0.03157  0.10245  0.86982  Biso   1.000  C
  H107     1.0000 0.00790  0.12490  0.91370  Biso   1.000  H
  C185     1.0000 0.98285  0.05776  0.82577  Biso   1.000  C
  H108     1.0000 0.92600  0.04990  0.84000  Biso   1.000  H
  C186     1.0000 0.16732  0.16321  0.89934  Biso   1.000  C
  Zn7      1.0000 0.80710  0.73668  0.44616  Biso   1.000  Zn
  Zn8      1.0000 0.32564  0.24343  0.93224  Biso   1.000  Zn
  O25      1.0000 0.72282  0.78662  0.37196  Biso   1.000  O
  O26      1.0000 0.63603  0.80583  0.47352  Biso   1.000  O
  O27      1.0000 0.38087  0.17321  0.00054  Biso   1.000  O
  O28      1.0000 0.26803  0.15838  0.07603  Biso   1.000  O
  O29      1.0000 0.24294  0.30778  0.88202  Biso   1.000  O
  O30      1.0000 0.16137  0.31786  0.99029  Biso   1.000  O
  O31      1.0000 0.86871  0.68951  0.54220  Biso   1.000  O
  O32      1.0000 0.75877  0.67487  0.62102  Biso   1.000  O
  N7       1.0000 0.89871  0.72473  0.36520  Biso   1.000  N
  N8       1.0000 0.58213  0.75105  0.65004  Biso   1.000  N
  C187     1.0000 0.97260  0.69634  0.38832  Biso   1.000  C
  H109     1.0000 0.98100  0.68030  0.44370  Biso   1.000  H
  C188     1.0000 0.03746  0.68908  0.33565  Biso   1.000  C
  H110     1.0000 0.08930  0.66850  0.35430  Biso   1.000  H
  C189     1.0000 0.02520  0.71241  0.25503  Biso   1.000  C
  C190     1.0000 0.94791  0.74071  0.23036  Biso   1.000  C
  H111     1.0000 0.93710  0.75610  0.17480  Biso   1.000  H
  C191     1.0000 0.88666  0.74639  0.28728  Biso   1.000  C
  H112     1.0000 0.83400  0.76650  0.27020  Biso   1.000  H
  C192     1.0000 0.09119  0.71125  0.19789  Biso   1.000  C
  C193     1.0000 0.14207  0.71486  0.14656  Biso   1.000  C
  C194     1.0000 0.20058  0.72038  0.08075  Biso   1.000  C
  C195     1.0000 0.23224  0.78713  0.06900  Biso   1.000  C
  C196     1.0000 0.21380  0.83825  0.11690  Biso   1.000  C
  H113     1.0000 0.17470  0.83460  0.15910  Biso   1.000  H
  C197     1.0000 0.25280  0.89500  0.10280  Biso   1.000  C
  H114     1.0000 0.24130  0.93010  0.13640  Biso   1.000  H
  C198     1.0000 0.30860  0.90090  0.04000  Biso   1.000  C
  H115     1.0000 0.33530  0.93990  0.03090  Biso   1.000  H
  C199     1.0000 0.32550  0.84966  0.99030  Biso   1.000  C
  H116     1.0000 0.36250  0.85380  0.94640  Biso   1.000  H
  C200     1.0000 0.28789  0.79281  0.00530  Biso   1.000  C
  C201     1.0000 0.30429  0.73094  0.96101  Biso   1.000  C
  C202     1.0000 0.21546  0.70454  0.93130  Biso   1.000  C
  C203     1.0000 0.16039  0.69926  0.99495  Biso   1.000  C
  C204     1.0000 0.07887  0.67565  0.97910  Biso   1.000  C
  H117     1.0000 0.04090  0.67340  0.02250  Biso   1.000  H
  C205     1.0000 0.05300  0.65504  0.89860  Biso   1.000  C
  H118     1.0000 0.99760  0.63730  0.88700  Biso   1.000  H
  C206     1.0000 0.10760  0.66030  0.83550  Biso   1.000  C
  H119     1.0000 0.08920  0.64670  0.78050  Biso   1.000  H
  C207     1.0000 0.18950  0.68523  0.85130  Biso   1.000  C
  H120     1.0000 0.22680  0.68880  0.80750  Biso   1.000  H
  C208     1.0000 0.28331  0.68157  0.09652  Biso   1.000  C
  C209     1.0000 0.30520  0.64459  0.16550  Biso   1.000  C
  H121     1.0000 0.26720  0.64030  0.20850  Biso   1.000  H
  C210     1.0000 0.38300  0.61393  0.17110  Biso   1.000  C
  H122     1.0000 0.39830  0.58780  0.21790  Biso   1.000  H
  C211     1.0000 0.43860  0.62086  0.10930  Biso   1.000  C
  H123     1.0000 0.49230  0.59990  0.11410  Biso   1.000  H
  C212     1.0000 0.41680  0.65842  0.03960  Biso   1.000  C
  H124     1.0000 0.45560  0.66370  0.99750  Biso   1.000  H
  C213     1.0000 0.33864  0.68758  0.03285  Biso   1.000  C
  C214     1.0000 0.36135  0.73658  0.89370  Biso   1.000  C
  C215     1.0000 0.40623  0.74068  0.83710  Biso   1.000  C
  C216     1.0000 0.46401  0.74507  0.77143  Biso   1.000  C
  C217     1.0000 0.53841  0.77979  0.78428  Biso   1.000  C
  H125     1.0000 0.55020  0.80260  0.83480  Biso   1.000  H
  C218     1.0000 0.59550  0.78092  0.72265  Biso   1.000  C
  H126     1.0000 0.64690  0.80430  0.73270  Biso   1.000  H
  C219     1.0000 0.50836  0.71853  0.63749  Biso   1.000  C
  H127     1.0000 0.49730  0.69720  0.58570  Biso   1.000  H
  C220     1.0000 0.44775  0.71444  0.69605  Biso   1.000  C
  H128     1.0000 0.39650  0.69120  0.68450  Biso   1.000  H
  C221     1.0000 0.66146  0.81464  0.40192  Biso   1.000  C
  C222     1.0000 0.61507  0.86248  0.34668  Biso   1.000  C
  C223     1.0000 0.63563  0.87110  0.26463  Biso   1.000  C
  H129     1.0000 0.68050  0.84730  0.24380  Biso   1.000  H
  C224     1.0000 0.59137  0.91407  0.21285  Biso   1.000  C
  H130     1.0000 0.60650  0.91950  0.15700  Biso   1.000  H
  C225     1.0000 0.52501  0.94945  0.24168  Biso   1.000  C
  C226     1.0000 0.50583  0.94099  0.32458  Biso   1.000  C
  H131     1.0000 0.46130  0.96500  0.34580  Biso   1.000  H
  C227     1.0000 0.55003  0.89853  0.37632  Biso   1.000  C
  H132     1.0000 0.53600  0.89390  0.43270  Biso   1.000  H
  C228     1.0000 0.47574  0.99556  0.18797  Biso   1.000  C
  C229     1.0000 0.51168  0.02554  0.12176  Biso   1.000  C
  H133     1.0000 0.56740  0.01400  0.10770  Biso   1.000  H
  C230     1.0000 0.46723  0.07176  0.07641  Biso   1.000  C
  H134     1.0000 0.49270  0.09160  0.03150  Biso   1.000  H
  C231     1.0000 0.38541  0.08954  0.09586  Biso   1.000  C
  C232     1.0000 0.34792  0.05790  0.15887  Biso   1.000  C
  H135     1.0000 0.29130  0.06830  0.17130  Biso   1.000  H
  C233     1.0000 0.39185  0.01126  0.20401  Biso   1.000  C
  H136     1.0000 0.36470  0.98960  0.24640  Biso   1.000  H
  C234     1.0000 0.34071  0.14431  0.05361  Biso   1.000  C
  C235     1.0000 0.18368  0.33287  0.91947  Biso   1.000  C
  C236     1.0000 0.13534  0.38474  0.87442  Biso   1.000  C
  C237     1.0000 0.07437  0.41823  0.91342  Biso   1.000  C
  H137     1.0000 0.06510  0.40970  0.97030  Biso   1.000  H
  C238     1.0000 0.02658  0.46413  0.87030  Biso   1.000  C
  H138     1.0000 0.98570  0.48730  0.89830  Biso   1.000  H
  C239     1.0000 0.03778  0.47666  0.78650  Biso   1.000  C
  C240     1.0000 0.09994  0.44329  0.74768  Biso   1.000  C
  H139     1.0000 0.10900  0.45150  0.69070  Biso   1.000  H
  C241     1.0000 0.14868  0.39827  0.79129  Biso   1.000  C
  H140     1.0000 0.19160  0.37640  0.76430  Biso   1.000  H
  C242     1.0000 0.98481  0.52413  0.73890  Biso   1.000  C
  C243     1.0000 0.90130  0.53700  0.75740  Biso   1.000  C
  H141     1.0000 0.87740  0.51450  0.80110  Biso   1.000  H
  C244     1.0000 0.85220  0.58170  0.71360  Biso   1.000  C
  H142     1.0000 0.79530  0.58970  0.72770  Biso   1.000  H
  C245     1.0000 0.88501  0.61489  0.64966  Biso   1.000  C
  C246     1.0000 0.96843  0.60245  0.63018  Biso   1.000  C
  H143     1.0000 0.99210  0.62490  0.58630  Biso   1.000  H
  C247     1.0000 0.01715  0.55776  0.67423  Biso   1.000  C
  H144     1.0000 0.07400  0.54990  0.66000  Biso   1.000  H
  C248     1.0000 0.83268  0.66321  0.60066  Biso   1.000  C
