data_ETUWOG_clean
_audit_creation_date              2014-07-02
_audit_creation_method            'Materials Studio'
_symmetry_space_group_name_H-M    'P1'
_symmetry_Int_Tables_number       1
_symmetry_cell_setting            triclinic
loop_
_symmetry_equiv_pos_as_xyz
  x,y,z
_cell_length_a                    9.8456
_cell_length_b                    12.0753
_cell_length_c                    13.0039
_cell_angle_alpha                 91.8420
_cell_angle_beta                  100.9250
_cell_angle_gamma                 101.7450
loop_
_atom_site_label
_atom_site_type_symbol
_atom_site_fract_x
_atom_site_fract_y
_atom_site_fract_z
_atom_site_U_iso_or_equiv
_atom_site_adp_type
_atom_site_occupancy
Co1    Co    0.46244   0.28429   0.32159   0.01267  Uiso   1.00
Co2    Co    0.84019   0.78464   0.82137   0.01267  Uiso   1.00
Co3    Co    0.53756   0.71571   0.67841   0.01267  Uiso   1.00
Co4    Co    0.15981   0.21536   0.17863   0.01267  Uiso   1.00
Co5    Co    0.50000   0.50000   0.50000   0.01267  Uiso   1.00
Co6    Co    0.00000   0.00000   0.00000   0.01267  Uiso   1.00
H1     H     0.23720   0.64920   0.32810   0.01267  Uiso   1.00
H2     H     0.12830   0.77380   0.22100   0.01267  Uiso   1.00
H3     H     0.08430   0.55390   0.96850   0.01267  Uiso   1.00
H4     H     0.20200   0.43850   0.07390   0.01267  Uiso   1.00
H5     H     0.36770   0.27340   0.72420   0.01267  Uiso   1.00
H6     H     0.24010   0.15140   0.82720   0.01267  Uiso   1.00
H7     H     0.06760   0.92790   0.57780   0.01267  Uiso   1.00
H8     H     0.17430   0.05990   0.46980   0.01267  Uiso   1.00
H9     H     0.81970   0.59580   0.43560   0.01267  Uiso   1.00
H10    H     0.95520   0.30520   0.52050   0.01267  Uiso   1.00
H11    H     0.42820   0.80730   0.00990   0.01267  Uiso   1.00
H12    H     0.68010   0.07380   0.91290   0.01267  Uiso   1.00
H13    H     0.76280   0.35080   0.67190   0.01267  Uiso   1.00
H14    H     0.87170   0.22620   0.77900   0.01267  Uiso   1.00
H15    H     0.91570   0.44610   0.03150   0.01267  Uiso   1.00
H16    H     0.79800   0.56150   0.92610   0.01267  Uiso   1.00
H17    H     0.63230   0.72660   0.27580   0.01267  Uiso   1.00
H18    H     0.75990   0.84860   0.17280   0.01267  Uiso   1.00
H19    H     0.93240   0.07210   0.42220   0.01267  Uiso   1.00
H20    H     0.82570   0.94010   0.53020   0.01267  Uiso   1.00
H21    H     0.18030   0.40420   0.56440   0.01267  Uiso   1.00
H22    H     0.04480   0.69480   0.47950   0.01267  Uiso   1.00
H23    H     0.57180   0.19270   0.99010   0.01267  Uiso   1.00
H24    H     0.31990   0.92620   0.08710   0.01267  Uiso   1.00
C1     C     0.23450   0.53380   0.20900   0.01267  Uiso   1.00
C2     C     0.20930   0.63200   0.25440   0.01267  Uiso   1.00
C3     C     0.14260   0.70540   0.19100   0.01267  Uiso   1.00
C4     C     0.09790   0.67660   0.08390   0.01267  Uiso   1.00
C5     C     0.11820   0.57530   0.04120   0.01267  Uiso   1.00
C6     C     0.18710   0.50660   0.10420   0.01267  Uiso   1.00
C7     C     0.30500   0.45510   0.27530   0.01267  Uiso   1.00
C8     C     0.02690   0.74970   0.01890   0.01267  Uiso   1.00
C9     C     0.27970   0.17330   0.58310   0.01267  Uiso   1.00
C10    C     0.30380   0.20540   0.69370   0.01267  Uiso   1.00
C11    C     0.22840   0.13120   0.75430   0.01267  Uiso   1.00
C12    C     0.13840   0.03060   0.71280   0.01267  Uiso   1.00
C13    C     0.12300   0.99960   0.60730   0.01267  Uiso   1.00
C14    C     0.19220   0.07770   0.54340   0.01267  Uiso   1.00
C15    C     0.35530   0.25170   0.51860   0.01267  Uiso   1.00
C16    C     0.06270   0.95580   0.77970   0.01267  Uiso   1.00
C17    C     0.71410   0.37030   0.42890   0.01267  Uiso   1.00
C18    C     0.89400   0.55820   0.46080   0.01267  Uiso   1.00
C19    C     0.86360   0.43880   0.46860   0.01267  Uiso   1.00
C20    C     0.97590   0.38430   0.51180   0.01267  Uiso   1.00
C21    C     0.68660   0.86790   0.93320   0.01267  Uiso   1.00
C22    C     0.46030   0.88680   0.00810   0.01267  Uiso   1.00
C23    C     0.57820   0.92600   0.96260   0.01267  Uiso   1.00
C24    C     0.60910   0.04340   0.95070   0.01267  Uiso   1.00
C25    C     0.76550   0.46620   0.79100   0.01267  Uiso   1.00
C26    C     0.79070   0.36800   0.74560   0.01267  Uiso   1.00
C27    C     0.85740   0.29460   0.80900   0.01267  Uiso   1.00
C28    C     0.90210   0.32340   0.91610   0.01267  Uiso   1.00
C29    C     0.88180   0.42470   0.95880   0.01267  Uiso   1.00
C30    C     0.81290   0.49340   0.89580   0.01267  Uiso   1.00
C31    C     0.69500   0.54490   0.72470   0.01267  Uiso   1.00
C32    C     0.97310   0.25030   0.98110   0.01267  Uiso   1.00
C33    C     0.72030   0.82670   0.41690   0.01267  Uiso   1.00
C34    C     0.69620   0.79460   0.30630   0.01267  Uiso   1.00
C35    C     0.77160   0.86880   0.24570   0.01267  Uiso   1.00
C36    C     0.86160   0.96940   0.28720   0.01267  Uiso   1.00
C37    C     0.87700   0.00040   0.39270   0.01267  Uiso   1.00
C38    C     0.80780   0.92230   0.45660   0.01267  Uiso   1.00
C39    C     0.64470   0.74830   0.48140   0.01267  Uiso   1.00
C40    C     0.93730   0.04420   0.22030   0.01267  Uiso   1.00
C41    C     0.28590   0.62970   0.57110   0.01267  Uiso   1.00
C42    C     0.10600   0.44180   0.53920   0.01267  Uiso   1.00
C43    C     0.13640   0.56120   0.53140   0.01267  Uiso   1.00
C44    C     0.02410   0.61570   0.48820   0.01267  Uiso   1.00
C45    C     0.31340   0.13210   0.06680   0.01267  Uiso   1.00
C46    C     0.53970   0.11320   0.99190   0.01267  Uiso   1.00
C47    C     0.42180   0.07400   0.03740   0.01267  Uiso   1.00
C48    C     0.39090   0.95660   0.04930   0.01267  Uiso   1.00
O1     O     0.31690   0.37220   0.24630   0.01267  Uiso   1.00
O2     O     0.34120   0.48710   0.38170   0.01267  Uiso   1.00
O3     O     0.03000   0.85100   0.05850   0.01267  Uiso   1.00
O4     O     0.96740   0.71590   0.92520   0.01267  Uiso   1.00
O5     O     0.35190   0.21630   0.41140   0.01267  Uiso   1.00
O6     O     0.42720   0.35050   0.55760   0.01267  Uiso   1.00
O7     O     0.09720   0.97990   0.87830   0.01267  Uiso   1.00
O8     O     0.96340   0.87560   0.73580   0.01267  Uiso   1.00
O9     O     0.61680   0.41820   0.39900   0.01267  Uiso   1.00
O10    O     0.69520   0.26410   0.42870   0.01267  Uiso   1.00
O11    O     0.79210   0.92040   0.90320   0.01267  Uiso   1.00
O12    O     0.65300   0.76220   0.93360   0.01267  Uiso   1.00
O13    O     0.68310   0.62780   0.75370   0.01267  Uiso   1.00
O14    O     0.65880   0.51290   0.61830   0.01267  Uiso   1.00
O15    O     0.97000   0.14900   0.94150   0.01267  Uiso   1.00
O16    O     0.03260   0.28410   0.07480   0.01267  Uiso   1.00
O17    O     0.64810   0.78370   0.58860   0.01267  Uiso   1.00
O18    O     0.57280   0.64950   0.44240   0.01267  Uiso   1.00
O19    O     0.90280   0.02010   0.12170   0.01267  Uiso   1.00
O20    O     0.03660   0.12440   0.26420   0.01267  Uiso   1.00
O21    O     0.38320   0.58180   0.60100   0.01267  Uiso   1.00
O22    O     0.30480   0.73590   0.57130   0.01267  Uiso   1.00
O23    O     0.20790   0.07960   0.09680   0.01267  Uiso   1.00
O24    O     0.34700   0.23780   0.06640   0.01267  Uiso   1.00
