data_image0
_cell_length_a       9.6711
_cell_length_b       11.7849
_cell_length_c       14.3863
_cell_angle_alpha    90
_cell_angle_beta     122.276
_cell_angle_gamma    90

_symmetry_space_group_name_H-M    "P 1"
_symmetry_int_tables_number       1

loop_
  _symmetry_equiv_pos_as_xyz
  'x, y, z'

loop_
  _atom_site_label
  _atom_site_occupancy
  _atom_site_fract_x
  _atom_site_fract_y
  _atom_site_fract_z
  _atom_site_thermal_displace_type
  _atom_site_B_iso_or_equiv
  _atom_site_type_symbol
  Sm1      1.0000 0.61680  0.98358  0.33036  Biso   1.000  Sm
  O1       1.0000 0.70360  0.78320  0.34350  Biso   1.000  O
  O2       1.0000 0.61560  0.60450  0.30140  Biso   1.000  O
  O3       1.0000 0.30630  0.67990  0.17320  Biso   1.000  O
  O4       1.0000 0.39780  0.85760  0.20470  Biso   1.000  O
  O5       1.0000 0.51720  0.88170  0.43430  Biso   1.000  O
  O6       1.0000 0.46700  0.89190  0.56760  Biso   1.000  O
  O7       1.0000 0.89120  0.98470  0.35720  Biso   1.000  O
  O8       1.0000 0.15850  0.01240  0.47720  Biso   1.000  O
  C1       1.0000 0.59580  0.70950  0.29490  Biso   1.000  C
  C2       1.0000 0.41720  0.75360  0.21730  Biso   1.000  C
  C3       1.0000 0.49500  0.93480  0.50040  Biso   1.000  C
  C4       1.0000 0.01680  0.99990  0.45410  Biso   1.000  C
  Sm2      1.0000 0.38320  0.48358  0.16964  Biso   1.000  Sm
  O9       1.0000 0.29640  0.28320  0.15650  Biso   1.000  O
  O10      1.0000 0.38440  0.10450  0.19860  Biso   1.000  O
  O11      1.0000 0.69370  0.17990  0.32680  Biso   1.000  O
  O12      1.0000 0.60220  0.35760  0.29530  Biso   1.000  O
  O13      1.0000 0.48280  0.38170  0.06570  Biso   1.000  O
  O14      1.0000 0.53300  0.39190  0.93240  Biso   1.000  O
  O15      1.0000 0.10880  0.48470  0.14280  Biso   1.000  O
  O16      1.0000 0.84150  0.51240  0.02280  Biso   1.000  O
  C5       1.0000 0.40420  0.20950  0.20510  Biso   1.000  C
  C6       1.0000 0.58280  0.25360  0.28270  Biso   1.000  C
  C7       1.0000 0.50500  0.43480  0.99960  Biso   1.000  C
  C8       1.0000 0.98320  0.49990  0.04590  Biso   1.000  C
  Sm3      1.0000 0.38320  0.01642  0.66964  Biso   1.000  Sm
  O17      1.0000 0.29640  0.21680  0.65650  Biso   1.000  O
  O18      1.0000 0.38440  0.39550  0.69860  Biso   1.000  O
  O19      1.0000 0.69370  0.32010  0.82680  Biso   1.000  O
  O20      1.0000 0.60220  0.14240  0.79530  Biso   1.000  O
  O21      1.0000 0.48280  0.11830  0.56570  Biso   1.000  O
  O22      1.0000 0.53300  0.10810  0.43240  Biso   1.000  O
  O23      1.0000 0.10880  0.01530  0.64280  Biso   1.000  O
  O24      1.0000 0.84150  0.98760  0.52280  Biso   1.000  O
  C9       1.0000 0.40420  0.29050  0.70510  Biso   1.000  C
  C10      1.0000 0.58280  0.24640  0.78270  Biso   1.000  C
  C11      1.0000 0.50500  0.06520  0.49960  Biso   1.000  C
  C12      1.0000 0.98320  0.00010  0.54590  Biso   1.000  C
  Sm4      1.0000 0.61680  0.51642  0.83036  Biso   1.000  Sm
  O25      1.0000 0.70360  0.71680  0.84350  Biso   1.000  O
  O26      1.0000 0.61560  0.89550  0.80140  Biso   1.000  O
  O27      1.0000 0.30630  0.82010  0.67320  Biso   1.000  O
  O28      1.0000 0.39780  0.64240  0.70470  Biso   1.000  O
  O29      1.0000 0.51720  0.61830  0.93430  Biso   1.000  O
  O30      1.0000 0.46700  0.60810  0.06760  Biso   1.000  O
  O31      1.0000 0.89120  0.51530  0.85720  Biso   1.000  O
  O32      1.0000 0.15850  0.48760  0.97720  Biso   1.000  O
  C13      1.0000 0.59580  0.79050  0.79490  Biso   1.000  C
  C14      1.0000 0.41720  0.74640  0.71730  Biso   1.000  C
  C15      1.0000 0.49500  0.56520  0.00040  Biso   1.000  C
  C16      1.0000 0.01680  0.50010  0.95410  Biso   1.000  C
