data_image0
_cell_length_a       9.6008
_cell_length_b       11.5422
_cell_length_c       14.2886
_cell_angle_alpha    90
_cell_angle_beta     122.46
_cell_angle_gamma    90

_symmetry_space_group_name_H-M    "P 1"
_symmetry_int_tables_number       1

loop_
  _symmetry_equiv_pos_as_xyz
  'x, y, z'

loop_
  _atom_site_label
  _atom_site_occupancy
  _atom_site_fract_x
  _atom_site_fract_y
  _atom_site_fract_z
  _atom_site_thermal_displace_type
  _atom_site_B_iso_or_equiv
  _atom_site_type_symbol
  Y1       1.0000 0.61770  0.98846  0.33257  Biso   1.000  Y
  O1       1.0000 0.70490  0.78990  0.34286  Biso   1.000  O
  O2       1.0000 0.61670  0.60733  0.29500  Biso   1.000  O
  O3       1.0000 0.30540  0.68334  0.17013  Biso   1.000  O
  O4       1.0000 0.39590  0.86535  0.20743  Biso   1.000  O
  O5       1.0000 0.51980  0.88268  0.43190  Biso   1.000  O
  O6       1.0000 0.46130  0.88762  0.56330  Biso   1.000  O
  O7       1.0000 0.88920  0.99123  0.35640  Biso   1.000  O
  O8       1.0000 0.16110  0.01036  0.47848  Biso   1.000  O
  C1       1.0000 0.59600  0.71480  0.29190  Biso   1.000  C
  C2       1.0000 0.41630  0.75870  0.21660  Biso   1.000  C
  C3       1.0000 0.49470  0.93350  0.49840  Biso   1.000  C
  C4       1.0000 0.01510  0.00050  0.45240  Biso   1.000  C
  Y2       1.0000 0.38230  0.48846  0.16743  Biso   1.000  Y
  O9       1.0000 0.29510  0.28990  0.15714  Biso   1.000  O
  O10      1.0000 0.38330  0.10733  0.20500  Biso   1.000  O
  O11      1.0000 0.69460  0.18334  0.32987  Biso   1.000  O
  O12      1.0000 0.60410  0.36535  0.29257  Biso   1.000  O
  O13      1.0000 0.48020  0.38268  0.06810  Biso   1.000  O
  O14      1.0000 0.53870  0.38762  0.93670  Biso   1.000  O
  O15      1.0000 0.11080  0.49123  0.14360  Biso   1.000  O
  O16      1.0000 0.83890  0.51036  0.02152  Biso   1.000  O
  C5       1.0000 0.40400  0.21480  0.20810  Biso   1.000  C
  C6       1.0000 0.58370  0.25870  0.28340  Biso   1.000  C
  C7       1.0000 0.50530  0.43350  0.00160  Biso   1.000  C
  C8       1.0000 0.98490  0.50050  0.04760  Biso   1.000  C
  Y3       1.0000 0.38230  0.01154  0.66743  Biso   1.000  Y
  O17      1.0000 0.29510  0.21010  0.65714  Biso   1.000  O
  O18      1.0000 0.38330  0.39267  0.70500  Biso   1.000  O
  O19      1.0000 0.69460  0.31666  0.82987  Biso   1.000  O
  O20      1.0000 0.60410  0.13465  0.79257  Biso   1.000  O
  O21      1.0000 0.48020  0.11732  0.56810  Biso   1.000  O
  O22      1.0000 0.53870  0.11238  0.43670  Biso   1.000  O
  O23      1.0000 0.11080  0.00877  0.64360  Biso   1.000  O
  O24      1.0000 0.83890  0.98964  0.52152  Biso   1.000  O
  C9       1.0000 0.40400  0.28520  0.70810  Biso   1.000  C
  C10      1.0000 0.58370  0.24130  0.78340  Biso   1.000  C
  C11      1.0000 0.50530  0.06650  0.50160  Biso   1.000  C
  C12      1.0000 0.98490  0.99950  0.54760  Biso   1.000  C
  Y4       1.0000 0.61770  0.51154  0.83257  Biso   1.000  Y
  O25      1.0000 0.70490  0.71010  0.84286  Biso   1.000  O
  O26      1.0000 0.61670  0.89267  0.79500  Biso   1.000  O
  O27      1.0000 0.30540  0.81666  0.67013  Biso   1.000  O
  O28      1.0000 0.39590  0.63465  0.70743  Biso   1.000  O
  O29      1.0000 0.51980  0.61732  0.93190  Biso   1.000  O
  O30      1.0000 0.46130  0.61238  0.06330  Biso   1.000  O
  O31      1.0000 0.88920  0.50877  0.85640  Biso   1.000  O
  O32      1.0000 0.16110  0.48964  0.97848  Biso   1.000  O
  C13      1.0000 0.59600  0.78520  0.79190  Biso   1.000  C
  C14      1.0000 0.41630  0.74130  0.71660  Biso   1.000  C
  C15      1.0000 0.49470  0.56650  0.99840  Biso   1.000  C
  C16      1.0000 0.01510  0.49950  0.95240  Biso   1.000  C
