data_image0
_cell_length_a       12.7975
_cell_length_b       10.2182
_cell_length_c       14.8305
_cell_angle_alpha    90
_cell_angle_beta     90
_cell_angle_gamma    90

_symmetry_space_group_name_H-M    "P 1"
_symmetry_int_tables_number       1

loop_
  _symmetry_equiv_pos_as_xyz
  'x, y, z'

loop_
  _atom_site_label
  _atom_site_occupancy
  _atom_site_fract_x
  _atom_site_fract_y
  _atom_site_fract_z
  _atom_site_thermal_displace_type
  _atom_site_B_iso_or_equiv
  _atom_site_type_symbol
  Zn1      1.0000 0.66160  0.49641  0.06242  Biso   1.000  Zn
  P1       1.0000 0.43009  0.52847  0.13144  Biso   1.000  P
  H1       1.0000 0.40180  0.59300  0.20430  Biso   1.000  H
  P2       1.0000 0.70418  0.21315  0.15150  Biso   1.000  P
  H2       1.0000 0.77460  0.17700  0.21040  Biso   1.000  H
  O1       1.0000 0.53785  0.58014  0.10865  Biso   1.000  O
  O2       1.0000 0.71788  0.35834  0.13768  Biso   1.000  O
  O3       1.0000 0.34910  0.56400  0.06068  Biso   1.000  O
  O4       1.0000 0.72734  0.13215  0.06693  Biso   1.000  O
  O5       1.0000 0.42937  0.38440  0.15436  Biso   1.000  O
  O6       1.0000 0.59834  0.17500  0.18961  Biso   1.000  O
  Zn2      1.0000 0.83840  0.00359  0.56242  Biso   1.000  Zn
  P3       1.0000 0.06991  0.97153  0.63144  Biso   1.000  P
  H3       1.0000 0.09820  0.90700  0.70430  Biso   1.000  H
  P4       1.0000 0.79582  0.28685  0.65150  Biso   1.000  P
  H4       1.0000 0.72540  0.32300  0.71040  Biso   1.000  H
  O7       1.0000 0.96215  0.91986  0.60865  Biso   1.000  O
  O8       1.0000 0.78212  0.14166  0.63768  Biso   1.000  O
  O9       1.0000 0.15090  0.93600  0.56068  Biso   1.000  O
  O10      1.0000 0.77266  0.36785  0.56693  Biso   1.000  O
  O11      1.0000 0.07063  0.11560  0.65436  Biso   1.000  O
  O12      1.0000 0.90166  0.32500  0.68961  Biso   1.000  O
  Zn3      1.0000 0.33840  0.49641  0.43758  Biso   1.000  Zn
  P5       1.0000 0.56991  0.52847  0.36856  Biso   1.000  P
  H5       1.0000 0.59820  0.59300  0.29570  Biso   1.000  H
  P6       1.0000 0.29582  0.21315  0.34850  Biso   1.000  P
  H6       1.0000 0.22540  0.17700  0.28960  Biso   1.000  H
  O13      1.0000 0.46215  0.58014  0.39135  Biso   1.000  O
  O14      1.0000 0.28212  0.35834  0.36232  Biso   1.000  O
  O15      1.0000 0.65090  0.56400  0.43932  Biso   1.000  O
  O16      1.0000 0.27266  0.13215  0.43307  Biso   1.000  O
  O17      1.0000 0.57063  0.38440  0.34564  Biso   1.000  O
  O18      1.0000 0.40166  0.17500  0.31039  Biso   1.000  O
  Zn4      1.0000 0.16160  0.00359  0.93758  Biso   1.000  Zn
  P7       1.0000 0.93009  0.97153  0.86856  Biso   1.000  P
  H7       1.0000 0.90180  0.90700  0.79570  Biso   1.000  H
  P8       1.0000 0.20418  0.28685  0.84850  Biso   1.000  P
  H8       1.0000 0.27460  0.32300  0.78960  Biso   1.000  H
  O19      1.0000 0.03785  0.91986  0.89135  Biso   1.000  O
  O20      1.0000 0.21788  0.14166  0.86232  Biso   1.000  O
  O21      1.0000 0.84910  0.93600  0.93932  Biso   1.000  O
  O22      1.0000 0.22734  0.36785  0.93307  Biso   1.000  O
  O23      1.0000 0.92937  0.11560  0.84564  Biso   1.000  O
  O24      1.0000 0.09834  0.32500  0.81039  Biso   1.000  O
  Zn5      1.0000 0.33840  0.50359  0.93758  Biso   1.000  Zn
  P9       1.0000 0.56991  0.47153  0.86856  Biso   1.000  P
  H9       1.0000 0.59820  0.40700  0.79570  Biso   1.000  H
  P10      1.0000 0.29582  0.78685  0.84850  Biso   1.000  P
  H10      1.0000 0.22540  0.82300  0.78960  Biso   1.000  H
  O25      1.0000 0.46215  0.41986  0.89135  Biso   1.000  O
  O26      1.0000 0.28212  0.64166  0.86232  Biso   1.000  O
  O27      1.0000 0.65090  0.43600  0.93932  Biso   1.000  O
  O28      1.0000 0.27266  0.86785  0.93307  Biso   1.000  O
  O29      1.0000 0.57063  0.61560  0.84564  Biso   1.000  O
  O30      1.0000 0.40166  0.82500  0.81039  Biso   1.000  O
  Zn6      1.0000 0.16160  0.99641  0.43758  Biso   1.000  Zn
  P11      1.0000 0.93009  0.02847  0.36856  Biso   1.000  P
  H11      1.0000 0.90180  0.09300  0.29570  Biso   1.000  H
  P12      1.0000 0.20418  0.71315  0.34850  Biso   1.000  P
  H12      1.0000 0.27460  0.67700  0.28960  Biso   1.000  H
  O31      1.0000 0.03785  0.08014  0.39135  Biso   1.000  O
  O32      1.0000 0.21788  0.85834  0.36232  Biso   1.000  O
  O33      1.0000 0.84910  0.06400  0.43932  Biso   1.000  O
  O34      1.0000 0.22734  0.63215  0.43307  Biso   1.000  O
  O35      1.0000 0.92937  0.88440  0.34564  Biso   1.000  O
  O36      1.0000 0.09834  0.67500  0.31039  Biso   1.000  O
  Zn7      1.0000 0.66160  0.50359  0.56242  Biso   1.000  Zn
  P13      1.0000 0.43009  0.47153  0.63144  Biso   1.000  P
  H13      1.0000 0.40180  0.40700  0.70430  Biso   1.000  H
  P14      1.0000 0.70418  0.78685  0.65150  Biso   1.000  P
  H14      1.0000 0.77460  0.82300  0.71040  Biso   1.000  H
  O37      1.0000 0.53785  0.41986  0.60865  Biso   1.000  O
  O38      1.0000 0.71788  0.64166  0.63768  Biso   1.000  O
  O39      1.0000 0.34910  0.43600  0.56068  Biso   1.000  O
  O40      1.0000 0.72734  0.86785  0.56693  Biso   1.000  O
  O41      1.0000 0.42937  0.61560  0.65436  Biso   1.000  O
  O42      1.0000 0.59834  0.82500  0.68961  Biso   1.000  O
  Zn8      1.0000 0.83840  0.99641  0.06242  Biso   1.000  Zn
  P15      1.0000 0.06991  0.02847  0.13144  Biso   1.000  P
  H15      1.0000 0.09820  0.09300  0.20430  Biso   1.000  H
  P16      1.0000 0.79582  0.71315  0.15150  Biso   1.000  P
  H16      1.0000 0.72540  0.67700  0.21040  Biso   1.000  H
  O43      1.0000 0.96215  0.08014  0.10865  Biso   1.000  O
  O44      1.0000 0.78212  0.85834  0.13768  Biso   1.000  O
  O45      1.0000 0.15090  0.06400  0.06068  Biso   1.000  O
  O46      1.0000 0.77266  0.63215  0.06693  Biso   1.000  O
  O47      1.0000 0.07063  0.88440  0.15436  Biso   1.000  O
  O48      1.0000 0.90166  0.67500  0.18961  Biso   1.000  O
  Zn9      1.0000 0.50000  0.29115  0.25000  Biso   1.000  Zn
  Zn10     1.0000 0.00000  0.20885  0.75000  Biso   1.000  Zn
  Zn11     1.0000 0.50000  0.70885  0.75000  Biso   1.000  Zn
  Zn12     1.0000 0.00000  0.79115  0.25000  Biso   1.000  Zn
