data_image0
_cell_length_a       13.6605
_cell_length_b       15.0103
_cell_length_c       18.5345
_cell_angle_alpha    69.051
_cell_angle_beta     71.145
_cell_angle_gamma    65.014

_symmetry_space_group_name_H-M    "P 1"
_symmetry_int_tables_number       1

loop_
  _symmetry_equiv_pos_as_xyz
  'x, y, z'

loop_
  _atom_site_label
  _atom_site_occupancy
  _atom_site_fract_x
  _atom_site_fract_y
  _atom_site_fract_z
  _atom_site_thermal_displace_type
  _atom_site_B_iso_or_equiv
  _atom_site_type_symbol
  Dy1      1.0000 0.84786  0.49709  0.13764  Biso   1.000  Dy
  Dy2      1.0000 0.62999  0.50384  0.36986  Biso   1.000  Dy
  O1       1.0000 0.40660  0.61360  0.51440  Biso   1.000  O
  O2       1.0000 0.51730  0.65960  0.40180  Biso   1.000  O
  O3       1.0000 0.64740  0.36580  0.32470  Biso   1.000  O
  O4       1.0000 0.01140  0.37240  0.10310  Biso   1.000  O
  O5       1.0000 0.92280  0.42950  0.24920  Biso   1.000  O
  O6       1.0000 0.77100  0.37920  0.21260  Biso   1.000  O
  O7       1.0000 0.09110  0.39720  0.97650  Biso   1.000  O
  O8       1.0000 0.82280  0.63790  0.17700  Biso   1.000  O
  O9       1.0000 0.67010  0.60560  0.12050  Biso   1.000  O
  O10      1.0000 0.58750  0.58280  0.24600  Biso   1.000  O
  O11      1.0000 0.73320  0.60880  0.30120  Biso   1.000  O
  O12      1.0000 0.81430  0.39130  0.36610  Biso   1.000  O
  N1       1.0000 0.42940  0.88450  0.05760  Biso   1.000  N
  N2       1.0000 0.18730  0.06420  0.14630  Biso   1.000  N
  N3       1.0000 0.81210  0.09550  0.19840  Biso   1.000  N
  N4       1.0000 0.70470  0.88720  0.31880  Biso   1.000  N
  N5       1.0000 0.32360  0.96080  0.36820  Biso   1.000  N
  N6       1.0000 0.06460  0.12960  0.44780  Biso   1.000  N
  C1       1.0000 0.07570  0.34230  0.04420  Biso   1.000  C
  C2       1.0000 0.59410  0.63270  0.17610  Biso   1.000  C
  C3       1.0000 0.35150  0.92450  0.11520  Biso   1.000  C
  C4       1.0000 0.50310  0.79080  0.07770  Biso   1.000  C
  H1       1.0000 0.55520  0.76230  0.03780  Biso   1.000  H
  C5       1.0000 0.50480  0.73450  0.15570  Biso   1.000  C
  C6       1.0000 0.42250  0.77540  0.21600  Biso   1.000  C
  H2       1.0000 0.41980  0.73860  0.26850  Biso   1.000  H
  C7       1.0000 0.34590  0.87120  0.19540  Biso   1.000  C
  H3       1.0000 0.29120  0.90030  0.23400  Biso   1.000  H
  C8       1.0000 0.27560  0.03040  0.09100  Biso   1.000  C
  C9       1.0000 0.12400  0.16280  0.12800  Biso   1.000  C
  H4       1.0000 0.06230  0.18660  0.16550  Biso   1.000  H
  C10      1.0000 0.14450  0.22990  0.05780  Biso   1.000  C
  C11      1.0000 0.23250  0.19360  0.00040  Biso   1.000  C
  H5       1.0000 0.24690  0.23710  0.95110  Biso   1.000  H
  C12      1.0000 0.29960  0.09160  0.01690  Biso   1.000  C
  H6       1.0000 0.35890  0.06550  0.97900  Biso   1.000  H
  C13      1.0000 0.71400  0.33400  0.26750  Biso   1.000  C
  C14      1.0000 0.75500  0.03970  0.26010  Biso   1.000  C
  C15      1.0000 0.79760  0.19170  0.20120  Biso   1.000  C
  H7       1.0000 0.83420  0.23090  0.15960  Biso   1.000  H
  C16      1.0000 0.72960  0.23010  0.26470  Biso   1.000  C
  C17      1.0000 0.67720  0.16910  0.32760  Biso   1.000  C
  H8       1.0000 0.63380  0.19320  0.37160  Biso   1.000  H
  C18      1.0000 0.68850  0.07440  0.32590  Biso   1.000  C
  H9       1.0000 0.65260  0.03480  0.36760  Biso   1.000  H
  C19      1.0000 0.76280  0.94170  0.25620  Biso   1.000  C
  C20      1.0000 0.71020  0.79620  0.31290  Biso   1.000  C
  H10      1.0000 0.67260  0.75790  0.35440  Biso   1.000  H
  C21      1.0000 0.77050  0.76020  0.24640  Biso   1.000  C
  C22      1.0000 0.82840  0.81830  0.18440  Biso   1.000  C
  H11      1.0000 0.86910  0.79540  0.13950  Biso   1.000  H
  C23      1.0000 0.82530  0.90880  0.18960  Biso   1.000  C
  H12      1.0000 0.86440  0.94670  0.14910  Biso   1.000  H
  C24      1.0000 0.77580  0.66060  0.24120  Biso   1.000  C
  C25      1.0000 0.90390  0.37510  0.31820  Biso   1.000  C
  C26      1.0000 0.15210  0.09340  0.39280  Biso   1.000  C
  C27      1.0000 0.99060  0.22200  0.42280  Biso   1.000  C
  H13      1.0000 0.93060  0.24900  0.46000  Biso   1.000  H
  C28      1.0000 0.99880  0.27920  0.34440  Biso   1.000  C
  C29      1.0000 0.09020  0.24300  0.28930  Biso   1.000  C
  H14      1.0000 0.10010  0.28070  0.23700  Biso   1.000  H
  C30      1.0000 0.16680  0.14820  0.31470  Biso   1.000  C
  H15      1.0000 0.22900  0.12120  0.27880  Biso   1.000  H
  C31      1.0000 0.22820  0.98820  0.41850  Biso   1.000  C
  C32      1.0000 0.38810  0.86360  0.38400  Biso   1.000  C
  H16      1.0000 0.45570  0.84460  0.34970  Biso   1.000  H
  C33      1.0000 0.36180  0.78950  0.44750  Biso   1.000  C
  C34      1.0000 0.26520  0.82000  0.50180  Biso   1.000  C
  H17      1.0000 0.24650  0.77370  0.54800  Biso   1.000  H
  C35      1.0000 0.19770  0.92080  0.48590  Biso   1.000  C
  H18      1.0000 0.13170  0.94280  0.52080  Biso   1.000  H
  C36      1.0000 0.43530  0.67830  0.45600  Biso   1.000  C
  Dy3      1.0000 0.15214  0.50291  0.86236  Biso   1.000  Dy
  Dy4      1.0000 0.37001  0.49616  0.63014  Biso   1.000  Dy
  O13      1.0000 0.59340  0.38640  0.48560  Biso   1.000  O
  O14      1.0000 0.48270  0.34040  0.59820  Biso   1.000  O
  O15      1.0000 0.35260  0.63420  0.67530  Biso   1.000  O
  O16      1.0000 0.98860  0.62760  0.89690  Biso   1.000  O
  O17      1.0000 0.07720  0.57050  0.75080  Biso   1.000  O
  O18      1.0000 0.22900  0.62080  0.78740  Biso   1.000  O
  O19      1.0000 0.90890  0.60280  0.02350  Biso   1.000  O
  O20      1.0000 0.17720  0.36210  0.82300  Biso   1.000  O
  O21      1.0000 0.32990  0.39440  0.87950  Biso   1.000  O
  O22      1.0000 0.41250  0.41720  0.75400  Biso   1.000  O
  O23      1.0000 0.26680  0.39120  0.69880  Biso   1.000  O
  O24      1.0000 0.18570  0.60870  0.63390  Biso   1.000  O
  N7       1.0000 0.57060  0.11550  0.94240  Biso   1.000  N
  N8       1.0000 0.81270  0.93580  0.85370  Biso   1.000  N
  N9       1.0000 0.18790  0.90450  0.80160  Biso   1.000  N
  N10      1.0000 0.29530  0.11280  0.68120  Biso   1.000  N
  N11      1.0000 0.67640  0.03920  0.63180  Biso   1.000  N
  N12      1.0000 0.93540  0.87040  0.55220  Biso   1.000  N
  C37      1.0000 0.92430  0.65770  0.95580  Biso   1.000  C
  C38      1.0000 0.40590  0.36730  0.82390  Biso   1.000  C
  C39      1.0000 0.64850  0.07550  0.88480  Biso   1.000  C
  C40      1.0000 0.49690  0.20920  0.92230  Biso   1.000  C
  H19      1.0000 0.44480  0.23770  0.96220  Biso   1.000  H
  C41      1.0000 0.49520  0.26550  0.84430  Biso   1.000  C
  C42      1.0000 0.57750  0.22460  0.78400  Biso   1.000  C
  H20      1.0000 0.58020  0.26140  0.73150  Biso   1.000  H
  C43      1.0000 0.65410  0.12880  0.80460  Biso   1.000  C
  H21      1.0000 0.70880  0.09970  0.76600  Biso   1.000  H
  C44      1.0000 0.72440  0.96960  0.90900  Biso   1.000  C
  C45      1.0000 0.87600  0.83720  0.87200  Biso   1.000  C
  H22      1.0000 0.93770  0.81340  0.83450  Biso   1.000  H
  C46      1.0000 0.85550  0.77010  0.94220  Biso   1.000  C
  C47      1.0000 0.76750  0.80640  0.99960  Biso   1.000  C
  H23      1.0000 0.75310  0.76290  0.04890  Biso   1.000  H
  C48      1.0000 0.70040  0.90840  0.98310  Biso   1.000  C
  H24      1.0000 0.64110  0.93450  0.02100  Biso   1.000  H
  C49      1.0000 0.28600  0.66600  0.73250  Biso   1.000  C
  C50      1.0000 0.24500  0.96030  0.73990  Biso   1.000  C
  C51      1.0000 0.20240  0.80830  0.79880  Biso   1.000  C
  H25      1.0000 0.16580  0.76910  0.84040  Biso   1.000  H
  C52      1.0000 0.27040  0.76990  0.73530  Biso   1.000  C
  C53      1.0000 0.32280  0.83090  0.67240  Biso   1.000  C
  H26      1.0000 0.36620  0.80680  0.62840  Biso   1.000  H
  C54      1.0000 0.31150  0.92560  0.67410  Biso   1.000  C
  H27      1.0000 0.34740  0.96520  0.63240  Biso   1.000  H
  C55      1.0000 0.23720  0.05830  0.74380  Biso   1.000  C
  C56      1.0000 0.28980  0.20380  0.68710  Biso   1.000  C
  H28      1.0000 0.32740  0.24210  0.64560  Biso   1.000  H
  C57      1.0000 0.22950  0.23980  0.75360  Biso   1.000  C
  C58      1.0000 0.17160  0.18170  0.81560  Biso   1.000  C
  H29      1.0000 0.13090  0.20460  0.86050  Biso   1.000  H
  C59      1.0000 0.17470  0.09120  0.81040  Biso   1.000  C
  H30      1.0000 0.13560  0.05330  0.85090  Biso   1.000  H
  C60      1.0000 0.22420  0.33940  0.75880  Biso   1.000  C
  C61      1.0000 0.09610  0.62490  0.68180  Biso   1.000  C
  C62      1.0000 0.84790  0.90660  0.60720  Biso   1.000  C
  C63      1.0000 0.00940  0.77800  0.57720  Biso   1.000  C
  H31      1.0000 0.06940  0.75100  0.54000  Biso   1.000  H
  C64      1.0000 0.00120  0.72080  0.65560  Biso   1.000  C
  C65      1.0000 0.90980  0.75700  0.71070  Biso   1.000  C
  H32      1.0000 0.89990  0.71930  0.76300  Biso   1.000  H
  C66      1.0000 0.83320  0.85180  0.68530  Biso   1.000  C
  H33      1.0000 0.77100  0.87880  0.72120  Biso   1.000  H
  C67      1.0000 0.77180  0.01180  0.58150  Biso   1.000  C
  C68      1.0000 0.61190  0.13640  0.61600  Biso   1.000  C
  H34      1.0000 0.54430  0.15540  0.65030  Biso   1.000  H
  C69      1.0000 0.63820  0.21050  0.55250  Biso   1.000  C
  C70      1.0000 0.73480  0.18000  0.49820  Biso   1.000  C
  H35      1.0000 0.75350  0.22630  0.45200  Biso   1.000  H
  C71      1.0000 0.80230  0.07920  0.51410  Biso   1.000  C
  H36      1.0000 0.86830  0.05720  0.47920  Biso   1.000  H
  C72      1.0000 0.56470  0.32170  0.54400  Biso   1.000  C
