data_EVAKOB_charged
_audit_creation_date              2014-07-02
_audit_creation_method            'Materials Studio'
_symmetry_space_group_name_H-M    'P1'
_symmetry_Int_Tables_number       1
_symmetry_cell_setting            triclinic
loop_
_symmetry_equiv_pos_as_xyz
  x,y,z
_cell_length_a                    20.4056
_cell_length_b                    20.4056
_cell_length_c                    20.4056
_cell_angle_alpha                 109.4710
_cell_angle_beta                  109.4710
_cell_angle_gamma                 109.4710
loop_
_atom_site_label
_atom_site_type_symbol
_atom_site_fract_x
_atom_site_fract_y
_atom_site_fract_z
_atom_site_U_iso_or_equiv
_atom_site_adp_type
_atom_site_occupancy
Cu1    Cu    0.50000   0.25000   0.75000   0.01267  Uiso   1.00
Cu2    Cu    0.50000   0.75000   0.25000   0.01267  Uiso   1.00
Cu3    Cu    0.25000   0.50000   0.75000   0.01267  Uiso   1.00
Cu4    Cu    0.75000   0.50000   0.25000   0.01267  Uiso   1.00
Cu5    Cu    0.75000   0.25000   0.50000   0.01267  Uiso   1.00
Cu6    Cu    0.25000   0.75000   0.50000   0.01267  Uiso   1.00
H1     H     0.59760   0.16670   0.67350   0.01267  Uiso   1.00
H2     H     0.62930   0.24500   0.75110   0.01267  Uiso   1.00
H3     H     0.45680   0.36920   0.53880   0.01267  Uiso   1.00
H4     H     0.38060   0.28740   0.50000   0.01267  Uiso   1.00
H5     H     0.49320   0.92410   0.32650   0.01267  Uiso   1.00
H6     H     0.49390   0.87820   0.24890   0.01267  Uiso   1.00
H7     H     0.83040   0.91800   0.46120   0.01267  Uiso   1.00
H8     H     0.78740   0.88060   0.50000   0.01267  Uiso   1.00
H9     H     0.50680   0.83330   0.43090   0.01267  Uiso   1.00
H10    H     0.50610   0.75500   0.38430   0.01267  Uiso   1.00
H11    H     0.16960   0.63080   0.08760   0.01267  Uiso   1.00
H12    H     0.21260   0.71260   0.09320   0.01267  Uiso   1.00
H13    H     0.40240   0.07590   0.56910   0.01267  Uiso   1.00
H14    H     0.37070   0.12180   0.61570   0.01267  Uiso   1.00
H15    H     0.54320   0.08200   0.91240   0.01267  Uiso   1.00
H16    H     0.61940   0.11940   0.90680   0.01267  Uiso   1.00
H17    H     0.43090   0.50680   0.83330   0.01267  Uiso   1.00
H18    H     0.38430   0.50610   0.75500   0.01267  Uiso   1.00
H19    H     0.08760   0.16960   0.63080   0.01267  Uiso   1.00
H20    H     0.09320   0.21260   0.71260   0.01267  Uiso   1.00
H21    H     0.56910   0.40240   0.07590   0.01267  Uiso   1.00
H22    H     0.61570   0.37070   0.12180   0.01267  Uiso   1.00
H23    H     0.91240   0.54320   0.08200   0.01267  Uiso   1.00
H24    H     0.90680   0.61940   0.11940   0.01267  Uiso   1.00
H25    H     0.67350   0.59760   0.16670   0.01267  Uiso   1.00
H26    H     0.75110   0.62930   0.24500   0.01267  Uiso   1.00
H27    H     0.53880   0.45680   0.36920   0.01267  Uiso   1.00
H28    H     0.50000   0.38060   0.28740   0.01267  Uiso   1.00
H29    H     0.32650   0.49320   0.92410   0.01267  Uiso   1.00
H30    H     0.24890   0.49390   0.87820   0.01267  Uiso   1.00
H31    H     0.46120   0.83040   0.91800   0.01267  Uiso   1.00
H32    H     0.50000   0.78740   0.88060   0.01267  Uiso   1.00
H33    H     0.92410   0.32650   0.49320   0.01267  Uiso   1.00
H34    H     0.87820   0.24890   0.49390   0.01267  Uiso   1.00
H35    H     0.91800   0.46120   0.83040   0.01267  Uiso   1.00
H36    H     0.88060   0.50000   0.78740   0.01267  Uiso   1.00
H37    H     0.16670   0.67350   0.59760   0.01267  Uiso   1.00
H38    H     0.24500   0.75110   0.62930   0.01267  Uiso   1.00
H39    H     0.36920   0.53880   0.45680   0.01267  Uiso   1.00
H40    H     0.28740   0.50000   0.38060   0.01267  Uiso   1.00
H41    H     0.07590   0.56910   0.40240   0.01267  Uiso   1.00
H42    H     0.12180   0.61570   0.37070   0.01267  Uiso   1.00
H43    H     0.08200   0.91240   0.54320   0.01267  Uiso   1.00
H44    H     0.11940   0.90680   0.61940   0.01267  Uiso   1.00
H45    H     0.83330   0.43090   0.50680   0.01267  Uiso   1.00
H46    H     0.75500   0.38430   0.50610   0.01267  Uiso   1.00
H47    H     0.63080   0.08760   0.16960   0.01267  Uiso   1.00
H48    H     0.71260   0.09320   0.21260   0.01267  Uiso   1.00
H49    H     0.92410   0.49320   0.32650   0.01267  Uiso   1.00
H50    H     0.87820   0.49390   0.24890   0.01267  Uiso   1.00
H51    H     0.91800   0.83040   0.46120   0.01267  Uiso   1.00
H52    H     0.88060   0.78740   0.50000   0.01267  Uiso   1.00
H53    H     0.16670   0.59760   0.67350   0.01267  Uiso   1.00
H54    H     0.24500   0.62930   0.75110   0.01267  Uiso   1.00
H55    H     0.36920   0.45680   0.53880   0.01267  Uiso   1.00
H56    H     0.28740   0.38060   0.50000   0.01267  Uiso   1.00
H57    H     0.07590   0.40240   0.56910   0.01267  Uiso   1.00
H58    H     0.12180   0.37070   0.61570   0.01267  Uiso   1.00
H59    H     0.08200   0.54320   0.91240   0.01267  Uiso   1.00
H60    H     0.11940   0.61940   0.90680   0.01267  Uiso   1.00
H61    H     0.83330   0.50680   0.43090   0.01267  Uiso   1.00
H62    H     0.75500   0.50610   0.38430   0.01267  Uiso   1.00
H63    H     0.63080   0.16960   0.08760   0.01267  Uiso   1.00
H64    H     0.71260   0.21260   0.09320   0.01267  Uiso   1.00
H65    H     0.59760   0.67350   0.16670   0.01267  Uiso   1.00
H66    H     0.62930   0.75110   0.24500   0.01267  Uiso   1.00
H67    H     0.45680   0.53880   0.36920   0.01267  Uiso   1.00
H68    H     0.38060   0.50000   0.28740   0.01267  Uiso   1.00
H69    H     0.49320   0.32650   0.92410   0.01267  Uiso   1.00
H70    H     0.49390   0.24890   0.87820   0.01267  Uiso   1.00
H71    H     0.83040   0.46120   0.91800   0.01267  Uiso   1.00
H72    H     0.78740   0.50000   0.88060   0.01267  Uiso   1.00
H73    H     0.50680   0.43090   0.83330   0.01267  Uiso   1.00
H74    H     0.50610   0.38430   0.75500   0.01267  Uiso   1.00
H75    H     0.16960   0.08760   0.63080   0.01267  Uiso   1.00
H76    H     0.21260   0.09320   0.71260   0.01267  Uiso   1.00
H77    H     0.40240   0.56910   0.07590   0.01267  Uiso   1.00
H78    H     0.37070   0.61570   0.12180   0.01267  Uiso   1.00
H79    H     0.54320   0.91240   0.08200   0.01267  Uiso   1.00
H80    H     0.61940   0.90680   0.11940   0.01267  Uiso   1.00
H81    H     0.43090   0.83330   0.50680   0.01267  Uiso   1.00
H82    H     0.38430   0.75500   0.50610   0.01267  Uiso   1.00
H83    H     0.08760   0.63080   0.16960   0.01267  Uiso   1.00
H84    H     0.09320   0.71260   0.21260   0.01267  Uiso   1.00
H85    H     0.56910   0.07590   0.40240   0.01267  Uiso   1.00
H86    H     0.61570   0.12180   0.37070   0.01267  Uiso   1.00
H87    H     0.91240   0.08200   0.54320   0.01267  Uiso   1.00
H88    H     0.90680   0.11940   0.61940   0.01267  Uiso   1.00
H89    H     0.67350   0.16670   0.59760   0.01267  Uiso   1.00
H90    H     0.75110   0.24500   0.62930   0.01267  Uiso   1.00
H91    H     0.53880   0.36920   0.45680   0.01267  Uiso   1.00
H92    H     0.50000   0.28740   0.38060   0.01267  Uiso   1.00
H93    H     0.32650   0.92410   0.49320   0.01267  Uiso   1.00
H94    H     0.24890   0.87820   0.49390   0.01267  Uiso   1.00
H95    H     0.46120   0.91800   0.83040   0.01267  Uiso   1.00
H96    H     0.50000   0.88060   0.78740   0.01267  Uiso   1.00
H97    H     0.73760   0.23880   0.73760   0.01267  Uiso   1.00
H98    H     0.73520   0.31340   0.73520   0.01267  Uiso   1.00
H99    H     0.40790   0.31880   0.40790   0.01267  Uiso   1.00
H100   H     0.39620   0.23580   0.39620   0.01267  Uiso   1.00
H101   H     0.50120   0.00000   0.26240   0.01267  Uiso   1.00
H102   H     0.57820  -0.00000   0.26480   0.01267  Uiso   1.00
H103   H     0.91090  -0.00000   0.59210   0.01267  Uiso   1.00
H104   H     0.83960   0.00000   0.60380   0.01267  Uiso   1.00
H105   H     0.49880   0.76120   0.49880   0.01267  Uiso   1.00
H106   H     0.42180   0.68660   0.42180   0.01267  Uiso   1.00
H107   H     0.08910   0.68120   0.08910   0.01267  Uiso   1.00
H108   H     0.16040   0.76420   0.16040   0.01267  Uiso   1.00
H109   H     0.26240   1.00000   0.50120   0.01267  Uiso   1.00
H110   H     0.26480   0.00000   0.57820   0.01267  Uiso   1.00
H111   H     0.59210   0.00000   0.91090   0.01267  Uiso   1.00
H112   H     0.60380   1.00000   0.83960   0.01267  Uiso   1.00
H113   H     0.49880   0.49880   0.76120   0.01267  Uiso   1.00
H114   H     0.42180   0.42180   0.68660   0.01267  Uiso   1.00
H115   H     0.08910   0.08910   0.68120   0.01267  Uiso   1.00
H116   H     0.16040   0.16040   0.76420   0.01267  Uiso   1.00
H117   H     0.50120   0.26240   0.00000   0.01267  Uiso   1.00
H118   H     0.57820   0.26480   0.00000   0.01267  Uiso   1.00
H119   H     0.91090   0.59210   1.00000   0.01267  Uiso   1.00
H120   H     0.83960   0.60380  -0.00000   0.01267  Uiso   1.00
H121   H     0.73760   0.73760   0.23880   0.01267  Uiso   1.00
H122   H     0.73520   0.73520   0.31340   0.01267  Uiso   1.00
H123   H     0.40790   0.40790   0.31880   0.01267  Uiso   1.00
H124   H     0.39620   0.39620   0.23580   0.01267  Uiso   1.00
H125   H     0.26240   0.50120   0.00000   0.01267  Uiso   1.00
H126   H     0.26480   0.57820  -0.00000   0.01267  Uiso   1.00
H127   H     0.59210   0.91090   0.00000   0.01267  Uiso   1.00
H128   H     0.60380   0.83960   1.00000   0.01267  Uiso   1.00
H129   H     0.00000   0.26240   0.50120   0.01267  Uiso   1.00
H130   H     0.00000   0.26480   0.57820   0.01267  Uiso   1.00
H131   H     0.00000   0.59210   0.91090   0.01267  Uiso   1.00
H132   H     0.00000   0.60380   0.83960   0.01267  Uiso   1.00
H133   H     0.23880   0.73760   0.73760   0.01267  Uiso   1.00
H134   H     0.31340   0.73520   0.73520   0.01267  Uiso   1.00
H135   H     0.31880   0.40790   0.40790   0.01267  Uiso   1.00
H136   H     0.23580   0.39620   0.39620   0.01267  Uiso   1.00
H137   H     0.00000   0.50120   0.26240   0.01267  Uiso   1.00
H138   H     0.00000   0.57820   0.26480   0.01267  Uiso   1.00
H139   H     0.00000   0.91090   0.59210   0.01267  Uiso   1.00
H140   H     0.00000   0.83960   0.60380   0.01267  Uiso   1.00
H141   H     0.76120   0.49880   0.49880   0.01267  Uiso   1.00
H142   H     0.68660   0.42180   0.42180   0.01267  Uiso   1.00
H143   H     0.68120   0.08910   0.08910   0.01267  Uiso   1.00
H144   H     0.76420   0.16040   0.16040   0.01267  Uiso   1.00
C1     C     0.48400   0.29000   0.56120   0.01267  Uiso   1.00
C2     C     0.57560   0.24760   0.65060   0.01267  Uiso   1.00
C3     C     0.62430   0.22420   0.69890   0.01267  Uiso   1.00
C4     C     0.43430   0.31220   0.50910   0.01267  Uiso   1.00
C5     C     0.72880   0.92280   0.43880   0.01267  Uiso   1.00
C6     C     0.59700   0.92500   0.34940   0.01267  Uiso   1.00
C7     C     0.52530   0.92540   0.30110   0.01267  Uiso   1.00
C8     C     0.80310   0.92520   0.49090   0.01267  Uiso   1.00
C9     C     0.27120   0.71000   0.19400   0.01267  Uiso   1.00
C10    C     0.40300   0.75240   0.32800   0.01267  Uiso   1.00
C11    C     0.47470   0.77580   0.40010   0.01267  Uiso   1.00
C12    C     0.19690   0.68780   0.12210   0.01267  Uiso   1.00
C13    C     0.51600   0.07720   0.80600   0.01267  Uiso   1.00
C14    C     0.42440   0.07500   0.67200   0.01267  Uiso   1.00
C15    C     0.37570   0.07460   0.59990   0.01267  Uiso   1.00
C16    C     0.56570   0.07480   0.87790   0.01267  Uiso   1.00
C17    C     0.19400   0.27120   0.71000   0.01267  Uiso   1.00
C18    C     0.32800   0.40300   0.75240   0.01267  Uiso   1.00
C19    C     0.40010   0.47470   0.77580   0.01267  Uiso   1.00
C20    C     0.12210   0.19690   0.68780   0.01267  Uiso   1.00
C21    C     0.80600   0.51600   0.07720   0.01267  Uiso   1.00
C22    C     0.67200   0.42440   0.07500   0.01267  Uiso   1.00
C23    C     0.59990   0.37570   0.07460   0.01267  Uiso   1.00
C24    C     0.87790   0.56570   0.07480   0.01267  Uiso   1.00
C25    C     0.56120   0.48400   0.29000   0.01267  Uiso   1.00
C26    C     0.65060   0.57560   0.24760   0.01267  Uiso   1.00
C27    C     0.69890   0.62430   0.22420   0.01267  Uiso   1.00
C28    C     0.50910   0.43430   0.31220   0.01267  Uiso   1.00
C29    C     0.43880   0.72880   0.92280   0.01267  Uiso   1.00
C30    C     0.34940   0.59700   0.92500   0.01267  Uiso   1.00
C31    C     0.30110   0.52530   0.92540   0.01267  Uiso   1.00
C32    C     0.49090   0.80310   0.92520   0.01267  Uiso   1.00
C33    C     0.92280   0.43880   0.72880   0.01267  Uiso   1.00
C34    C     0.92500   0.34940   0.59700   0.01267  Uiso   1.00
C35    C     0.92540   0.30110   0.52530   0.01267  Uiso   1.00
C36    C     0.92520   0.49090   0.80310   0.01267  Uiso   1.00
C37    C     0.29000   0.56120   0.48400   0.01267  Uiso   1.00
C38    C     0.24760   0.65060   0.57560   0.01267  Uiso   1.00
C39    C     0.22420   0.69890   0.62430   0.01267  Uiso   1.00
C40    C     0.31220   0.50910   0.43430   0.01267  Uiso   1.00
C41    C     0.07720   0.80600   0.51600   0.01267  Uiso   1.00
C42    C     0.07500   0.67200   0.42440   0.01267  Uiso   1.00
C43    C     0.07460   0.59990   0.37570   0.01267  Uiso   1.00
C44    C     0.07480   0.87790   0.56570   0.01267  Uiso   1.00
C45    C     0.71000   0.19400   0.27120   0.01267  Uiso   1.00
C46    C     0.75240   0.32800   0.40300   0.01267  Uiso   1.00
C47    C     0.77580   0.40010   0.47470   0.01267  Uiso   1.00
C48    C     0.68780   0.12210   0.19690   0.01267  Uiso   1.00
C49    C     0.92280   0.72880   0.43880   0.01267  Uiso   1.00
C50    C     0.92500   0.59700   0.34940   0.01267  Uiso   1.00
C51    C     0.92540   0.52530   0.30110   0.01267  Uiso   1.00
C52    C     0.92520   0.80310   0.49090   0.01267  Uiso   1.00
C53    C     0.29000   0.48400   0.56120   0.01267  Uiso   1.00
C54    C     0.24760   0.57560   0.65060   0.01267  Uiso   1.00
C55    C     0.22420   0.62430   0.69890   0.01267  Uiso   1.00
C56    C     0.31220   0.43430   0.50910   0.01267  Uiso   1.00
C57    C     0.07720   0.51600   0.80600   0.01267  Uiso   1.00
C58    C     0.07500   0.42440   0.67200   0.01267  Uiso   1.00
C59    C     0.07460   0.37570   0.59990   0.01267  Uiso   1.00
C60    C     0.07480   0.56570   0.87790   0.01267  Uiso   1.00
C61    C     0.71000   0.27120   0.19400   0.01267  Uiso   1.00
C62    C     0.75240   0.40300   0.32800   0.01267  Uiso   1.00
C63    C     0.77580   0.47470   0.40010   0.01267  Uiso   1.00
C64    C     0.68780   0.19690   0.12210   0.01267  Uiso   1.00
C65    C     0.48400   0.56120   0.29000   0.01267  Uiso   1.00
C66    C     0.57560   0.65060   0.24760   0.01267  Uiso   1.00
C67    C     0.62430   0.69890   0.22420   0.01267  Uiso   1.00
C68    C     0.43430   0.50910   0.31220   0.01267  Uiso   1.00
C69    C     0.72880   0.43880   0.92280   0.01267  Uiso   1.00
C70    C     0.59700   0.34940   0.92500   0.01267  Uiso   1.00
C71    C     0.52530   0.30110   0.92540   0.01267  Uiso   1.00
C72    C     0.80310   0.49090   0.92520   0.01267  Uiso   1.00
C73    C     0.27120   0.19400   0.71000   0.01267  Uiso   1.00
C74    C     0.40300   0.32800   0.75240   0.01267  Uiso   1.00
C75    C     0.47470   0.40010   0.77580   0.01267  Uiso   1.00
C76    C     0.19690   0.12210   0.68780   0.01267  Uiso   1.00
C77    C     0.51600   0.80600   0.07720   0.01267  Uiso   1.00
C78    C     0.42440   0.67200   0.07500   0.01267  Uiso   1.00
C79    C     0.37570   0.59990   0.07460   0.01267  Uiso   1.00
C80    C     0.56570   0.87790   0.07480   0.01267  Uiso   1.00
C81    C     0.19400   0.71000   0.27120   0.01267  Uiso   1.00
C82    C     0.32800   0.75240   0.40300   0.01267  Uiso   1.00
C83    C     0.40010   0.77580   0.47470   0.01267  Uiso   1.00
C84    C     0.12210   0.68780   0.19690   0.01267  Uiso   1.00
C85    C     0.80600   0.07720   0.51600   0.01267  Uiso   1.00
C86    C     0.67200   0.07500   0.42440   0.01267  Uiso   1.00
C87    C     0.59990   0.07460   0.37570   0.01267  Uiso   1.00
C88    C     0.87790   0.07480   0.56570   0.01267  Uiso   1.00
C89    C     0.56120   0.29000   0.48400   0.01267  Uiso   1.00
C90    C     0.65060   0.24760   0.57560   0.01267  Uiso   1.00
C91    C     0.69890   0.22420   0.62430   0.01267  Uiso   1.00
C92    C     0.50910   0.31220   0.43430   0.01267  Uiso   1.00
C93    C     0.43880   0.92280   0.72880   0.01267  Uiso   1.00
C94    C     0.34940   0.92500   0.59700   0.01267  Uiso   1.00
C95    C     0.30110   0.92540   0.52530   0.01267  Uiso   1.00
C96    C     0.49090   0.92520   0.80310   0.01267  Uiso   1.00
C97    C     0.54350   0.27760   0.54350   0.01267  Uiso   1.00
C98    C     0.58810   0.25580   0.58810   0.01267  Uiso   1.00
C99    C     0.70720   0.25580   0.70720   0.01267  Uiso   1.00
C100   C     0.43130   0.29280   0.43130   0.01267  Uiso   1.00
C101   C     0.73410   0.00000   0.45650   0.01267  Uiso   1.00
C102   C     0.66770   0.00000   0.41190   0.01267  Uiso   1.00
C103   C     0.54860   0.00000   0.29280   0.01267  Uiso   1.00
C104   C     0.86150  -0.00000   0.56870   0.01267  Uiso   1.00
C105   C     0.26590   0.72240   0.26590   0.01267  Uiso   1.00
C106   C     0.33230   0.74420   0.33230   0.01267  Uiso   1.00
C107   C     0.45140   0.74420   0.45140   0.01267  Uiso   1.00
C108   C     0.13850   0.70720   0.13850   0.01267  Uiso   1.00
C109   C     0.45650   0.00000   0.73410   0.01267  Uiso   1.00
C110   C     0.41190   0.00000   0.66770   0.01267  Uiso   1.00
C111   C     0.29280   0.00000   0.54860   0.01267  Uiso   1.00
C112   C     0.56870   0.00000   0.86150   0.01267  Uiso   1.00
C113   C     0.26590   0.26590   0.72240   0.01267  Uiso   1.00
C114   C     0.33230   0.33230   0.74420   0.01267  Uiso   1.00
C115   C     0.45140   0.45140   0.74420   0.01267  Uiso   1.00
C116   C     0.13850   0.13850   0.70720   0.01267  Uiso   1.00
C117   C     0.73410   0.45650   0.00000   0.01267  Uiso   1.00
C118   C     0.66770   0.41190   0.00000   0.01267  Uiso   1.00
C119   C     0.54860   0.29280   0.00000   0.01267  Uiso   1.00
C120   C     0.86150   0.56870   1.00000   0.01267  Uiso   1.00
C121   C     0.54350   0.54350   0.27760   0.01267  Uiso   1.00
C122   C     0.58810   0.58810   0.25580   0.01267  Uiso   1.00
C123   C     0.70720   0.70720   0.25580   0.01267  Uiso   1.00
C124   C     0.43130   0.43130   0.29280   0.01267  Uiso   1.00
C125   C     0.45650   0.73410   0.00000   0.01267  Uiso   1.00
C126   C     0.41190   0.66770   0.00000   0.01267  Uiso   1.00
C127   C     0.29280   0.54860   0.00000   0.01267  Uiso   1.00
C128   C     0.56870   0.86150   0.00000   0.01267  Uiso   1.00
C129   C     0.00000   0.45650   0.73410   0.01267  Uiso   1.00
C130   C     0.00000   0.41190   0.66770   0.01267  Uiso   1.00
C131   C     0.00000   0.29280   0.54860   0.01267  Uiso   1.00
C132   C     0.00000   0.56870   0.86150   0.01267  Uiso   1.00
C133   C     0.27760   0.54350   0.54350   0.01267  Uiso   1.00
C134   C     0.25580   0.58810   0.58810   0.01267  Uiso   1.00
C135   C     0.25580   0.70720   0.70720   0.01267  Uiso   1.00
C136   C     0.29280   0.43130   0.43130   0.01267  Uiso   1.00
C137   C     0.00000   0.73410   0.45650   0.01267  Uiso   1.00
C138   C     0.00000   0.66770   0.41190   0.01267  Uiso   1.00
C139   C     0.00000   0.54860   0.29280   0.01267  Uiso   1.00
C140   C     0.00000   0.86150   0.56870   0.01267  Uiso   1.00
C141   C     0.72240   0.26590   0.26590   0.01267  Uiso   1.00
C142   C     0.74420   0.33230   0.33230   0.01267  Uiso   1.00
C143   C     0.74420   0.45140   0.45140   0.01267  Uiso   1.00
C144   C     0.70720   0.13850   0.13850   0.01267  Uiso   1.00
N1     N     0.52000   0.25880   0.66260   0.01267  Uiso   1.00
N2     N     0.47150   0.27840   0.61470   0.01267  Uiso   1.00
N3     N     0.59620   0.85740   0.33740   0.01267  Uiso   1.00
N4     N     0.66370   0.85680   0.38530   0.01267  Uiso   1.00
N5     N     0.40380   0.74120   0.26120   0.01267  Uiso   1.00
N6     N     0.33630   0.72160   0.19310   0.01267  Uiso   1.00
N7     N     0.48000   0.14260   0.73880   0.01267  Uiso   1.00
N8     N     0.52850   0.14320   0.80690   0.01267  Uiso   1.00
N9     N     0.26120   0.40380   0.74120   0.01267  Uiso   1.00
N10    N     0.19310   0.33630   0.72160   0.01267  Uiso   1.00
N11    N     0.73880   0.48000   0.14260   0.01267  Uiso   1.00
N12    N     0.80690   0.52850   0.14320   0.01267  Uiso   1.00
N13    N     0.66260   0.52000   0.25880   0.01267  Uiso   1.00
N14    N     0.61470   0.47150   0.27840   0.01267  Uiso   1.00
N15    N     0.33740   0.59620   0.85740   0.01267  Uiso   1.00
N16    N     0.38530   0.66370   0.85680   0.01267  Uiso   1.00
N17    N     0.85740   0.33740   0.59620   0.01267  Uiso   1.00
N18    N     0.85680   0.38530   0.66370   0.01267  Uiso   1.00
N19    N     0.25880   0.66260   0.52000   0.01267  Uiso   1.00
N20    N     0.27840   0.61470   0.47150   0.01267  Uiso   1.00
N21    N     0.14260   0.73880   0.48000   0.01267  Uiso   1.00
N22    N     0.14320   0.80690   0.52850   0.01267  Uiso   1.00
N23    N     0.74120   0.26120   0.40380   0.01267  Uiso   1.00
N24    N     0.72160   0.19310   0.33630   0.01267  Uiso   1.00
N25    N     0.85740   0.59620   0.33740   0.01267  Uiso   1.00
N26    N     0.85680   0.66370   0.38530   0.01267  Uiso   1.00
N27    N     0.25880   0.52000   0.66260   0.01267  Uiso   1.00
N28    N     0.27840   0.47150   0.61470   0.01267  Uiso   1.00
N29    N     0.14260   0.48000   0.73880   0.01267  Uiso   1.00
N30    N     0.14320   0.52850   0.80690   0.01267  Uiso   1.00
N31    N     0.74120   0.40380   0.26120   0.01267  Uiso   1.00
N32    N     0.72160   0.33630   0.19310   0.01267  Uiso   1.00
N33    N     0.52000   0.66260   0.25880   0.01267  Uiso   1.00
N34    N     0.47150   0.61470   0.27840   0.01267  Uiso   1.00
N35    N     0.59620   0.33740   0.85740   0.01267  Uiso   1.00
N36    N     0.66370   0.38530   0.85680   0.01267  Uiso   1.00
N37    N     0.40380   0.26120   0.74120   0.01267  Uiso   1.00
N38    N     0.33630   0.19310   0.72160   0.01267  Uiso   1.00
N39    N     0.48000   0.73880   0.14260   0.01267  Uiso   1.00
N40    N     0.52850   0.80690   0.14320   0.01267  Uiso   1.00
N41    N     0.26120   0.74120   0.40380   0.01267  Uiso   1.00
N42    N     0.19310   0.72160   0.33630   0.01267  Uiso   1.00
N43    N     0.73880   0.14260   0.48000   0.01267  Uiso   1.00
N44    N     0.80690   0.14320   0.52850   0.01267  Uiso   1.00
N45    N     0.66260   0.25880   0.52000   0.01267  Uiso   1.00
N46    N     0.61470   0.27840   0.47150   0.01267  Uiso   1.00
N47    N     0.33740   0.85740   0.59620   0.01267  Uiso   1.00
N48    N     0.38530   0.85680   0.66370   0.01267  Uiso   1.00
N49    N     0.54700   0.54700   0.54700   0.01267  Uiso   1.00
O1     O     0.52810   0.52810   0.59120   0.01267  Uiso   1.00
O2     O     0.59120   0.52810   0.52810   0.01267  Uiso   1.00
O3     O     0.52810   0.59120   0.52810   0.01267  Uiso   1.00
N50    N     0.00000   0.00000   0.45300   0.01267  Uiso   1.00
O4     O     0.93690   0.93690   0.40880   0.01267  Uiso   1.00
O5     O     0.00000   0.06310   0.47190   0.01267  Uiso   1.00
O6     O     0.06310   1.00000   0.47190   0.01267  Uiso   1.00
N51    N     0.00000   0.45300  -0.00000   0.01267  Uiso   1.00
O7     O     0.06310   0.47190  -0.00000   0.01267  Uiso   1.00
O8     O     0.00000   0.47190   0.06310   0.01267  Uiso   1.00
O9     O     0.93690   0.40880   0.93690   0.01267  Uiso   1.00
N52    N     0.45300   0.00000   0.00000   0.01267  Uiso   1.00
O10    O     0.47190   0.06310  -0.00000   0.01267  Uiso   1.00
O11    O     0.40880   0.93690   0.93690   0.01267  Uiso   1.00
O12    O     0.47190   1.00000   0.06310   0.01267  Uiso   1.00
