data_image0
_cell_length_a       15.6702
_cell_length_b       15.6702
_cell_length_c       15.6702
_cell_angle_alpha    90
_cell_angle_beta     90
_cell_angle_gamma    90

_symmetry_space_group_name_H-M    "P 1"
_symmetry_int_tables_number       1

loop_
  _symmetry_equiv_pos_as_xyz
  'x, y, z'

loop_
  _atom_site_label
  _atom_site_occupancy
  _atom_site_fract_x
  _atom_site_fract_y
  _atom_site_fract_z
  _atom_site_thermal_displace_type
  _atom_site_B_iso_or_equiv
  _atom_site_type_symbol
  N1       1.0000 0.41220  0.82100  0.19450  Biso   1.000  N
  C1       1.0000 0.39150  0.90200  0.21760  Biso   1.000  C
  N2       1.0000 0.08780  0.67900  0.19450  Biso   1.000  N
  C2       1.0000 0.10850  0.59800  0.21760  Biso   1.000  C
  N3       1.0000 0.08780  0.82100  0.30550  Biso   1.000  N
  C3       1.0000 0.10850  0.90200  0.28240  Biso   1.000  C
  N4       1.0000 0.41220  0.67900  0.30550  Biso   1.000  N
  C4       1.0000 0.39150  0.59800  0.28240  Biso   1.000  C
  N5       1.0000 0.19450  0.41220  0.82100  Biso   1.000  N
  C5       1.0000 0.21760  0.39150  0.90200  Biso   1.000  C
  N6       1.0000 0.19450  0.08780  0.67900  Biso   1.000  N
  C6       1.0000 0.21760  0.10850  0.59800  Biso   1.000  C
  N7       1.0000 0.30550  0.08780  0.82100  Biso   1.000  N
  C7       1.0000 0.28240  0.10850  0.90200  Biso   1.000  C
  N8       1.0000 0.30550  0.41220  0.67900  Biso   1.000  N
  C8       1.0000 0.28240  0.39150  0.59800  Biso   1.000  C
  N9       1.0000 0.82100  0.19450  0.41220  Biso   1.000  N
  C9       1.0000 0.90200  0.21760  0.39150  Biso   1.000  C
  N10      1.0000 0.67900  0.19450  0.08780  Biso   1.000  N
  C10      1.0000 0.59800  0.21760  0.10850  Biso   1.000  C
  N11      1.0000 0.82100  0.30550  0.08780  Biso   1.000  N
  C11      1.0000 0.90200  0.28240  0.10850  Biso   1.000  C
  N12      1.0000 0.67900  0.30550  0.41220  Biso   1.000  N
  C12      1.0000 0.59800  0.28240  0.39150  Biso   1.000  C
  N13      1.0000 0.32100  0.91220  0.80550  Biso   1.000  N
  C13      1.0000 0.40200  0.89150  0.78240  Biso   1.000  C
  N14      1.0000 0.17900  0.58780  0.80550  Biso   1.000  N
  C14      1.0000 0.09800  0.60850  0.78240  Biso   1.000  C
  N15      1.0000 0.32100  0.58780  0.69450  Biso   1.000  N
  C15      1.0000 0.40200  0.60850  0.71760  Biso   1.000  C
  N16      1.0000 0.17900  0.91220  0.69450  Biso   1.000  N
  C16      1.0000 0.09800  0.89150  0.71760  Biso   1.000  C
  N17      1.0000 0.91220  0.69450  0.17900  Biso   1.000  N
  C17      1.0000 0.89150  0.71760  0.09800  Biso   1.000  C
  N18      1.0000 0.58780  0.69450  0.32100  Biso   1.000  N
  C18      1.0000 0.60850  0.71760  0.40200  Biso   1.000  C
  N19      1.0000 0.58780  0.80550  0.17900  Biso   1.000  N
  C19      1.0000 0.60850  0.78240  0.09800  Biso   1.000  C
  N20      1.0000 0.91220  0.80550  0.32100  Biso   1.000  N
  C20      1.0000 0.89150  0.78240  0.40200  Biso   1.000  C
  N21      1.0000 0.69450  0.32100  0.58780  Biso   1.000  N
  C21      1.0000 0.71760  0.40200  0.60850  Biso   1.000  C
  N22      1.0000 0.69450  0.17900  0.91220  Biso   1.000  N
  C22      1.0000 0.71760  0.09800  0.89150  Biso   1.000  C
  N23      1.0000 0.80550  0.32100  0.91220  Biso   1.000  N
  C23      1.0000 0.78240  0.40200  0.89150  Biso   1.000  C
  N24      1.0000 0.80550  0.17900  0.58780  Biso   1.000  N
  C24      1.0000 0.78240  0.09800  0.60850  Biso   1.000  C
  N25      1.0000 0.58780  0.17900  0.80550  Biso   1.000  N
  C25      1.0000 0.60850  0.09800  0.78240  Biso   1.000  C
  N26      1.0000 0.91220  0.32100  0.80550  Biso   1.000  N
  C26      1.0000 0.89150  0.40200  0.78240  Biso   1.000  C
  N27      1.0000 0.91220  0.17900  0.69450  Biso   1.000  N
  C27      1.0000 0.89150  0.09800  0.71760  Biso   1.000  C
  N28      1.0000 0.58780  0.32100  0.69450  Biso   1.000  N
  C28      1.0000 0.60850  0.40200  0.71760  Biso   1.000  C
  N29      1.0000 0.80550  0.58780  0.17900  Biso   1.000  N
  C29      1.0000 0.78240  0.60850  0.09800  Biso   1.000  C
  N30      1.0000 0.80550  0.91220  0.32100  Biso   1.000  N
  C30      1.0000 0.78240  0.89150  0.40200  Biso   1.000  C
  N31      1.0000 0.69450  0.91220  0.17900  Biso   1.000  N
  C31      1.0000 0.71760  0.89150  0.09800  Biso   1.000  C
  N32      1.0000 0.69450  0.58780  0.32100  Biso   1.000  N
  C32      1.0000 0.71760  0.60850  0.40200  Biso   1.000  C
  N33      1.0000 0.17900  0.80550  0.58780  Biso   1.000  N
  C33      1.0000 0.09800  0.78240  0.60850  Biso   1.000  C
  N34      1.0000 0.32100  0.80550  0.91220  Biso   1.000  N
  C34      1.0000 0.40200  0.78240  0.89150  Biso   1.000  C
  N35      1.0000 0.17900  0.69450  0.91220  Biso   1.000  N
  C35      1.0000 0.09800  0.71760  0.89150  Biso   1.000  C
  N36      1.0000 0.32100  0.69450  0.58780  Biso   1.000  N
  C36      1.0000 0.40200  0.71760  0.60850  Biso   1.000  C
  N37      1.0000 0.67900  0.08780  0.19450  Biso   1.000  N
  C37      1.0000 0.59800  0.10850  0.21760  Biso   1.000  C
  N38      1.0000 0.82100  0.41220  0.19450  Biso   1.000  N
  C38      1.0000 0.90200  0.39150  0.21760  Biso   1.000  C
  N39      1.0000 0.67900  0.41220  0.30550  Biso   1.000  N
  C39      1.0000 0.59800  0.39150  0.28240  Biso   1.000  C
  N40      1.0000 0.82100  0.08780  0.30550  Biso   1.000  N
  C40      1.0000 0.90200  0.10850  0.28240  Biso   1.000  C
  N41      1.0000 0.08780  0.30550  0.82100  Biso   1.000  N
  C41      1.0000 0.10850  0.28240  0.90200  Biso   1.000  C
  N42      1.0000 0.41220  0.30550  0.67900  Biso   1.000  N
  C42      1.0000 0.39150  0.28240  0.59800  Biso   1.000  C
  N43      1.0000 0.41220  0.19450  0.82100  Biso   1.000  N
  C43      1.0000 0.39150  0.21760  0.90200  Biso   1.000  C
  N44      1.0000 0.08780  0.19450  0.67900  Biso   1.000  N
  C44      1.0000 0.10850  0.21760  0.59800  Biso   1.000  C
  N45      1.0000 0.30550  0.67900  0.41220  Biso   1.000  N
  C45      1.0000 0.28240  0.59800  0.39150  Biso   1.000  C
  N46      1.0000 0.30550  0.82100  0.08780  Biso   1.000  N
  C46      1.0000 0.28240  0.90200  0.10850  Biso   1.000  C
  N47      1.0000 0.19450  0.67900  0.08780  Biso   1.000  N
  C47      1.0000 0.21760  0.59800  0.10850  Biso   1.000  C
  N48      1.0000 0.19450  0.82100  0.41220  Biso   1.000  N
  C48      1.0000 0.21760  0.90200  0.39150  Biso   1.000  C
  Cu1      1.0000 0.50000  0.75000  0.25000  Biso   1.000  Cu
  Cu2      1.0000 0.00000  0.75000  0.25000  Biso   1.000  Cu
  Cu3      1.0000 0.25000  0.50000  0.75000  Biso   1.000  Cu
  Cu4      1.0000 0.25000  0.00000  0.75000  Biso   1.000  Cu
  Cu5      1.0000 0.75000  0.25000  0.50000  Biso   1.000  Cu
  Cu6      1.0000 0.75000  0.25000  0.00000  Biso   1.000  Cu
  Cu7      1.0000 0.50000  0.25000  0.75000  Biso   1.000  Cu
  Cu8      1.0000 0.00000  0.25000  0.75000  Biso   1.000  Cu
  Cu9      1.0000 0.75000  0.50000  0.25000  Biso   1.000  Cu
  Cu10     1.0000 0.75000  0.00000  0.25000  Biso   1.000  Cu
  Cu11     1.0000 0.25000  0.75000  0.50000  Biso   1.000  Cu
  Cu12     1.0000 0.25000  0.75000  0.00000  Biso   1.000  Cu
  C49      1.0000 0.37390  0.77830  0.12610  Biso   1.000  C
  C50      1.0000 0.32700  0.94710  0.17300  Biso   1.000  C
  O1       1.0000 0.39520  0.70790  0.10480  Biso   1.000  O
  C51      1.0000 0.12610  0.72170  0.12610  Biso   1.000  C
  C52      1.0000 0.17300  0.55290  0.17300  Biso   1.000  C
  O2       1.0000 0.10480  0.79210  0.10480  Biso   1.000  O
  C53      1.0000 0.12610  0.77830  0.37390  Biso   1.000  C
  C54      1.0000 0.17300  0.94710  0.32700  Biso   1.000  C
  O3       1.0000 0.10480  0.70790  0.39520  Biso   1.000  O
  C55      1.0000 0.37390  0.72170  0.37390  Biso   1.000  C
  C56      1.0000 0.32700  0.55290  0.32700  Biso   1.000  C
  O4       1.0000 0.39520  0.79210  0.39520  Biso   1.000  O
  C57      1.0000 0.12610  0.37390  0.77830  Biso   1.000  C
  C58      1.0000 0.17300  0.32700  0.94710  Biso   1.000  C
  O5       1.0000 0.10480  0.39520  0.70790  Biso   1.000  O
  C59      1.0000 0.12610  0.12610  0.72170  Biso   1.000  C
  C60      1.0000 0.17300  0.17300  0.55290  Biso   1.000  C
  O6       1.0000 0.10480  0.10480  0.79210  Biso   1.000  O
  C61      1.0000 0.37390  0.12610  0.77830  Biso   1.000  C
  C62      1.0000 0.32700  0.17300  0.94710  Biso   1.000  C
  O7       1.0000 0.39520  0.10480  0.70790  Biso   1.000  O
  C63      1.0000 0.37390  0.37390  0.72170  Biso   1.000  C
  C64      1.0000 0.32700  0.32700  0.55290  Biso   1.000  C
  O8       1.0000 0.39520  0.39520  0.79210  Biso   1.000  O
  C65      1.0000 0.77830  0.12610  0.37390  Biso   1.000  C
  C66      1.0000 0.94710  0.17300  0.32700  Biso   1.000  C
  O9       1.0000 0.70790  0.10480  0.39520  Biso   1.000  O
  C67      1.0000 0.72170  0.12610  0.12610  Biso   1.000  C
  C68      1.0000 0.55290  0.17300  0.17300  Biso   1.000  C
  O10      1.0000 0.79210  0.10480  0.10480  Biso   1.000  O
  C69      1.0000 0.77830  0.37390  0.12610  Biso   1.000  C
  C70      1.0000 0.94710  0.32700  0.17300  Biso   1.000  C
  O11      1.0000 0.70790  0.39520  0.10480  Biso   1.000  O
  C71      1.0000 0.72170  0.37390  0.37390  Biso   1.000  C
  C72      1.0000 0.55290  0.32700  0.32700  Biso   1.000  C
  O12      1.0000 0.79210  0.39520  0.39520  Biso   1.000  O
  C73      1.0000 0.27830  0.87390  0.87390  Biso   1.000  C
  C74      1.0000 0.44710  0.82700  0.82700  Biso   1.000  C
  O13      1.0000 0.20790  0.89520  0.89520  Biso   1.000  O
  C75      1.0000 0.22170  0.62610  0.87390  Biso   1.000  C
  C76      1.0000 0.05290  0.67300  0.82700  Biso   1.000  C
  O14      1.0000 0.29210  0.60480  0.89520  Biso   1.000  O
  C77      1.0000 0.27830  0.62610  0.62610  Biso   1.000  C
  C78      1.0000 0.44710  0.67300  0.67300  Biso   1.000  C
  O15      1.0000 0.20790  0.60480  0.60480  Biso   1.000  O
  C79      1.0000 0.22170  0.87390  0.62610  Biso   1.000  C
  C80      1.0000 0.05290  0.82700  0.67300  Biso   1.000  C
  O16      1.0000 0.29210  0.89520  0.60480  Biso   1.000  O
  C81      1.0000 0.87390  0.62610  0.22170  Biso   1.000  C
  C82      1.0000 0.82700  0.67300  0.05290  Biso   1.000  C
  O17      1.0000 0.89520  0.60480  0.29210  Biso   1.000  O
  C83      1.0000 0.62610  0.62610  0.27830  Biso   1.000  C
  C84      1.0000 0.67300  0.67300  0.44710  Biso   1.000  C
  O18      1.0000 0.60480  0.60480  0.20790  Biso   1.000  O
  C85      1.0000 0.62610  0.87390  0.22170  Biso   1.000  C
  C86      1.0000 0.67300  0.82700  0.05290  Biso   1.000  C
  O19      1.0000 0.60480  0.89520  0.29210  Biso   1.000  O
  C87      1.0000 0.87390  0.87390  0.27830  Biso   1.000  C
  C88      1.0000 0.82700  0.82700  0.44710  Biso   1.000  C
  O20      1.0000 0.89520  0.89520  0.20790  Biso   1.000  O
  C89      1.0000 0.62610  0.27830  0.62610  Biso   1.000  C
  C90      1.0000 0.67300  0.44710  0.67300  Biso   1.000  C
  O21      1.0000 0.60480  0.20790  0.60480  Biso   1.000  O
  C91      1.0000 0.62610  0.22170  0.87390  Biso   1.000  C
  C92      1.0000 0.67300  0.05290  0.82700  Biso   1.000  C
  O22      1.0000 0.60480  0.29210  0.89520  Biso   1.000  O
  C93      1.0000 0.87390  0.27830  0.87390  Biso   1.000  C
  C94      1.0000 0.82700  0.44710  0.82700  Biso   1.000  C
  O23      1.0000 0.89520  0.20790  0.89520  Biso   1.000  O
  C95      1.0000 0.87390  0.22170  0.62610  Biso   1.000  C
  C96      1.0000 0.82700  0.05290  0.67300  Biso   1.000  C
  O24      1.0000 0.89520  0.29210  0.60480  Biso   1.000  O
