data_EVEGER_clean
_audit_creation_date              2014-07-02
_audit_creation_method            'Materials Studio'
_symmetry_space_group_name_H-M    'P1'
_symmetry_Int_Tables_number       1
_symmetry_cell_setting            triclinic
loop_
_symmetry_equiv_pos_as_xyz
  x,y,z
_cell_length_a                    15.4400
_cell_length_b                    15.4400
_cell_length_c                    16.2540
_cell_angle_alpha                 90.0000
_cell_angle_beta                  90.0000
_cell_angle_gamma                 120.0000
loop_
_atom_site_label
_atom_site_type_symbol
_atom_site_fract_x
_atom_site_fract_y
_atom_site_fract_z
_atom_site_U_iso_or_equiv
_atom_site_adp_type
_atom_site_occupancy
Yb1    Yb    0.66667   0.33334   0.75000   0.01267  Uiso   1.00
Yb2    Yb    0.33333   0.66666   0.75000   0.01267  Uiso   1.00
Yb3    Yb    0.33333   0.66666   0.25000   0.01267  Uiso   1.00
Yb4    Yb    0.66667   0.33334   0.25000   0.01267  Uiso   1.00
Mn1    Mn    0.50000  -0.00000   0.00000   0.01267  Uiso   1.00
Mn2    Mn    0.50000   0.50000   0.00000   0.01267  Uiso   1.00
Mn3    Mn    1.00000   0.50000   0.00000   0.01267  Uiso   1.00
Mn4    Mn    0.50000  -0.00000   0.50000   0.01267  Uiso   1.00
Mn5    Mn    1.00000   0.50000   0.50000   0.01267  Uiso   1.00
Mn6    Mn    0.50000   0.50000   0.50000   0.01267  Uiso   1.00
H1     H     0.29150   0.05950   0.84370   0.01267  Uiso   1.00
H2     H     0.76800   0.70850   0.84370   0.01267  Uiso   1.00
H3     H     0.94050   0.23200   0.84370   0.01267  Uiso   1.00
H4     H     0.70850   0.94050   0.84370   0.01267  Uiso   1.00
H5     H     0.23200   0.29150   0.84370   0.01267  Uiso   1.00
H6     H     0.05950   0.76800   0.84370   0.01267  Uiso   1.00
H7     H     0.23200   0.94050   0.65630   0.01267  Uiso   1.00
H8     H     0.05950   0.29150   0.65630   0.01267  Uiso   1.00
H9     H     0.70850   0.76800   0.65630   0.01267  Uiso   1.00
H10    H     0.76800   0.05950   0.65630   0.01267  Uiso   1.00
H11    H     0.94050   0.70850   0.65630   0.01267  Uiso   1.00
H12    H     0.29150   0.23200   0.65630   0.01267  Uiso   1.00
H13    H     0.70850   0.94050   0.15630   0.01267  Uiso   1.00
H14    H     0.23200   0.29150   0.15630   0.01267  Uiso   1.00
H15    H     0.05950   0.76800   0.15630   0.01267  Uiso   1.00
H16    H     0.29150   0.05950   0.15630   0.01267  Uiso   1.00
H17    H     0.76800   0.70850   0.15630   0.01267  Uiso   1.00
H18    H     0.94050   0.23200   0.15630   0.01267  Uiso   1.00
H19    H     0.76800   0.05950   0.34370   0.01267  Uiso   1.00
H20    H     0.94050   0.70850   0.34370   0.01267  Uiso   1.00
H21    H     0.29150   0.23200   0.34370   0.01267  Uiso   1.00
H22    H     0.23200   0.94050   0.34370   0.01267  Uiso   1.00
H23    H     0.05950   0.29150   0.34370   0.01267  Uiso   1.00
H24    H     0.70850   0.76800   0.34370   0.01267  Uiso   1.00
H25    H     0.20280   0.10140   0.75000   0.01267  Uiso   1.00
H26    H     0.89860   0.79720   0.75000   0.01267  Uiso   1.00
H27    H     0.89860   0.10140   0.75000   0.01267  Uiso   1.00
H28    H     0.79720   0.89860   0.75000   0.01267  Uiso   1.00
H29    H     0.10140   0.20280   0.75000   0.01267  Uiso   1.00
H30    H     0.10140   0.89860   0.75000   0.01267  Uiso   1.00
H31    H     0.79720   0.89860   0.25000   0.01267  Uiso   1.00
H32    H     0.10140   0.20280   0.25000   0.01267  Uiso   1.00
H33    H     0.10140   0.89860   0.25000   0.01267  Uiso   1.00
H34    H     0.20280   0.10140   0.25000   0.01267  Uiso   1.00
H35    H     0.89860   0.79720   0.25000   0.01267  Uiso   1.00
H36    H     0.89860   0.10140   0.25000   0.01267  Uiso   1.00
C1     C     0.32520   0.11060   0.80570   0.01267  Uiso   1.00
C2     C     0.42870   0.16310   0.80280   0.01267  Uiso   1.00
C3     C     0.49580   0.14260   0.86040   0.01267  Uiso   1.00
C4     C     0.78540   0.67480   0.80570   0.01267  Uiso   1.00
C5     C     0.73440   0.57130   0.80280   0.01267  Uiso   1.00
C6     C     0.64680   0.50420   0.86040   0.01267  Uiso   1.00
C7     C     0.88940   0.21460   0.80570   0.01267  Uiso   1.00
C8     C     0.83690   0.26560   0.80280   0.01267  Uiso   1.00
C9     C     0.85740   0.35320   0.86040   0.01267  Uiso   1.00
C10    C     0.67480   0.88940   0.80570   0.01267  Uiso   1.00
C11    C     0.57130   0.83690   0.80280   0.01267  Uiso   1.00
C12    C     0.50420   0.85740   0.86040   0.01267  Uiso   1.00
C13    C     0.21460   0.32520   0.80570   0.01267  Uiso   1.00
C14    C     0.26560   0.42870   0.80280   0.01267  Uiso   1.00
C15    C     0.35320   0.49580   0.86040   0.01267  Uiso   1.00
C16    C     0.11060   0.78540   0.80570   0.01267  Uiso   1.00
C17    C     0.16310   0.73440   0.80280   0.01267  Uiso   1.00
C18    C     0.14260   0.64680   0.86040   0.01267  Uiso   1.00
C19    C     0.21460   0.88940   0.69430   0.01267  Uiso   1.00
C20    C     0.26560   0.83690   0.69720   0.01267  Uiso   1.00
C21    C     0.35320   0.85740   0.63960   0.01267  Uiso   1.00
C22    C     0.11060   0.32520   0.69430   0.01267  Uiso   1.00
C23    C     0.16310   0.42870   0.69720   0.01267  Uiso   1.00
C24    C     0.14260   0.49580   0.63960   0.01267  Uiso   1.00
C25    C     0.67480   0.78540   0.69430   0.01267  Uiso   1.00
C26    C     0.57130   0.73440   0.69720   0.01267  Uiso   1.00
C27    C     0.50420   0.64680   0.63960   0.01267  Uiso   1.00
C28    C     0.78540   0.11060   0.69430   0.01267  Uiso   1.00
C29    C     0.73440   0.16310   0.69720   0.01267  Uiso   1.00
C30    C     0.64680   0.14260   0.63960   0.01267  Uiso   1.00
C31    C     0.88940   0.67480   0.69430   0.01267  Uiso   1.00
C32    C     0.83690   0.57130   0.69720   0.01267  Uiso   1.00
C33    C     0.85740   0.50420   0.63960   0.01267  Uiso   1.00
C34    C     0.32520   0.21460   0.69430   0.01267  Uiso   1.00
C35    C     0.42870   0.26560   0.69720   0.01267  Uiso   1.00
C36    C     0.49580   0.35320   0.63960   0.01267  Uiso   1.00
C37    C     0.67480   0.88940   0.19430   0.01267  Uiso   1.00
C38    C     0.57130   0.83690   0.19720   0.01267  Uiso   1.00
C39    C     0.50420   0.85740   0.13960   0.01267  Uiso   1.00
C40    C     0.21460   0.32520   0.19430   0.01267  Uiso   1.00
C41    C     0.26560   0.42870   0.19720   0.01267  Uiso   1.00
C42    C     0.35320   0.49580   0.13960   0.01267  Uiso   1.00
C43    C     0.11060   0.78540   0.19430   0.01267  Uiso   1.00
C44    C     0.16310   0.73440   0.19720   0.01267  Uiso   1.00
C45    C     0.14260   0.64680   0.13960   0.01267  Uiso   1.00
C46    C     0.32520   0.11060   0.19430   0.01267  Uiso   1.00
C47    C     0.42870   0.16310   0.19720   0.01267  Uiso   1.00
C48    C     0.49580   0.14260   0.13960   0.01267  Uiso   1.00
C49    C     0.78540   0.67480   0.19430   0.01267  Uiso   1.00
C50    C     0.73440   0.57130   0.19720   0.01267  Uiso   1.00
C51    C     0.64680   0.50420   0.13960   0.01267  Uiso   1.00
C52    C     0.88940   0.21460   0.19430   0.01267  Uiso   1.00
C53    C     0.83690   0.26560   0.19720   0.01267  Uiso   1.00
C54    C     0.85740   0.35320   0.13960   0.01267  Uiso   1.00
C55    C     0.78540   0.11060   0.30570   0.01267  Uiso   1.00
C56    C     0.73440   0.16310   0.30280   0.01267  Uiso   1.00
C57    C     0.64680   0.14260   0.36040   0.01267  Uiso   1.00
C58    C     0.88940   0.67480   0.30570   0.01267  Uiso   1.00
C59    C     0.83690   0.57130   0.30280   0.01267  Uiso   1.00
C60    C     0.85740   0.50420   0.36040   0.01267  Uiso   1.00
C61    C     0.32520   0.21460   0.30570   0.01267  Uiso   1.00
C62    C     0.42870   0.26560   0.30280   0.01267  Uiso   1.00
C63    C     0.49580   0.35320   0.36040   0.01267  Uiso   1.00
C64    C     0.21460   0.88940   0.30570   0.01267  Uiso   1.00
C65    C     0.26560   0.83690   0.30280   0.01267  Uiso   1.00
C66    C     0.35320   0.85740   0.36040   0.01267  Uiso   1.00
C67    C     0.11060   0.32520   0.30570   0.01267  Uiso   1.00
C68    C     0.16310   0.42870   0.30280   0.01267  Uiso   1.00
C69    C     0.14260   0.49580   0.36040   0.01267  Uiso   1.00
C70    C     0.67480   0.78540   0.30570   0.01267  Uiso   1.00
C71    C     0.57130   0.73440   0.30280   0.01267  Uiso   1.00
C72    C     0.50420   0.64680   0.36040   0.01267  Uiso   1.00
C73    C     0.27230   0.13615   0.75000   0.01267  Uiso   1.00
C74    C     0.86385   0.72770   0.75000   0.01267  Uiso   1.00
C75    C     0.86385   0.13615   0.75000   0.01267  Uiso   1.00
C76    C     0.72770   0.86385   0.75000   0.01267  Uiso   1.00
C77    C     0.13615   0.27230   0.75000   0.01267  Uiso   1.00
C78    C     0.13615   0.86385   0.75000   0.01267  Uiso   1.00
C79    C     0.72770   0.86385   0.25000   0.01267  Uiso   1.00
C80    C     0.13615   0.27230   0.25000   0.01267  Uiso   1.00
C81    C     0.13615   0.86385   0.25000   0.01267  Uiso   1.00
C82    C     0.27230   0.13615   0.25000   0.01267  Uiso   1.00
C83    C     0.86385   0.72770   0.25000   0.01267  Uiso   1.00
C84    C     0.86385   0.13615   0.25000   0.01267  Uiso   1.00
N1     N     0.48100   0.24050   0.75000   0.01267  Uiso   1.00
N2     N     0.75950   0.51900   0.75000   0.01267  Uiso   1.00
N3     N     0.75950   0.24050   0.75000   0.01267  Uiso   1.00
N4     N     0.51900   0.75950   0.75000   0.01267  Uiso   1.00
N5     N     0.24050   0.48100   0.75000   0.01267  Uiso   1.00
N6     N     0.24050   0.75950   0.75000   0.01267  Uiso   1.00
N7     N     0.51900   0.75950   0.25000   0.01267  Uiso   1.00
N8     N     0.24050   0.48100   0.25000   0.01267  Uiso   1.00
N9     N     0.24050   0.75950   0.25000   0.01267  Uiso   1.00
N10    N     0.48100   0.24050   0.25000   0.01267  Uiso   1.00
N11    N     0.75950   0.51900   0.25000   0.01267  Uiso   1.00
N12    N     0.75950   0.24050   0.25000   0.01267  Uiso   1.00
O1     O     0.59130   0.20170   0.85410   0.01267  Uiso   1.00
O2     O     0.45100   0.06750   0.90730   0.01267  Uiso   1.00
O3     O     0.61040   0.40870   0.85410   0.01267  Uiso   1.00
O4     O     0.61650   0.54900   0.90730   0.01267  Uiso   1.00
O5     O     0.79830   0.38960   0.85410   0.01267  Uiso   1.00
O6     O     0.93250   0.38350   0.90730   0.01267  Uiso   1.00
O7     O     0.40870   0.79830   0.85410   0.01267  Uiso   1.00
O8     O     0.54900   0.93250   0.90730   0.01267  Uiso   1.00
O9     O     0.38960   0.59130   0.85410   0.01267  Uiso   1.00
O10    O     0.38350   0.45100   0.90730   0.01267  Uiso   1.00
O11    O     0.20170   0.61040   0.85410   0.01267  Uiso   1.00
O12    O     0.06750   0.61650   0.90730   0.01267  Uiso   1.00
O13    O     0.38960   0.79830   0.64590   0.01267  Uiso   1.00
O14    O     0.38350   0.93250   0.59270   0.01267  Uiso   1.00
O15    O     0.20170   0.59130   0.64590   0.01267  Uiso   1.00
O16    O     0.06750   0.45100   0.59270   0.01267  Uiso   1.00
O17    O     0.40870   0.61040   0.64590   0.01267  Uiso   1.00
O18    O     0.54900   0.61650   0.59270   0.01267  Uiso   1.00
O19    O     0.61040   0.20170   0.64590   0.01267  Uiso   1.00
O20    O     0.61650   0.06750   0.59270   0.01267  Uiso   1.00
O21    O     0.79830   0.40870   0.64590   0.01267  Uiso   1.00
O22    O     0.93250   0.54900   0.59270   0.01267  Uiso   1.00
O23    O     0.59130   0.38960   0.64590   0.01267  Uiso   1.00
O24    O     0.45100   0.38350   0.59270   0.01267  Uiso   1.00
O25    O     0.40870   0.79830   0.14590   0.01267  Uiso   1.00
O26    O     0.54900   0.93250   0.09270   0.01267  Uiso   1.00
O27    O     0.38960   0.59130   0.14590   0.01267  Uiso   1.00
O28    O     0.38350   0.45100   0.09270   0.01267  Uiso   1.00
O29    O     0.20170   0.61040   0.14590   0.01267  Uiso   1.00
O30    O     0.06750   0.61650   0.09270   0.01267  Uiso   1.00
O31    O     0.59130   0.20170   0.14590   0.01267  Uiso   1.00
O32    O     0.45100   0.06750   0.09270   0.01267  Uiso   1.00
O33    O     0.61040   0.40870   0.14590   0.01267  Uiso   1.00
O34    O     0.61650   0.54900   0.09270   0.01267  Uiso   1.00
O35    O     0.79830   0.38960   0.14590   0.01267  Uiso   1.00
O36    O     0.93250   0.38350   0.09270   0.01267  Uiso   1.00
O37    O     0.61040   0.20170   0.35410   0.01267  Uiso   1.00
O38    O     0.61650   0.06750   0.40730   0.01267  Uiso   1.00
O39    O     0.79830   0.40870   0.35410   0.01267  Uiso   1.00
O40    O     0.93250   0.54900   0.40730   0.01267  Uiso   1.00
O41    O     0.59130   0.38960   0.35410   0.01267  Uiso   1.00
O42    O     0.45100   0.38350   0.40730   0.01267  Uiso   1.00
O43    O     0.38960   0.79830   0.35410   0.01267  Uiso   1.00
O44    O     0.38350   0.93250   0.40730   0.01267  Uiso   1.00
O45    O     0.20170   0.59130   0.35410   0.01267  Uiso   1.00
O46    O     0.06750   0.45100   0.40730   0.01267  Uiso   1.00
O47    O     0.40870   0.61040   0.35410   0.01267  Uiso   1.00
O48    O     0.54900   0.61650   0.40730   0.01267  Uiso   1.00
