data_image0
_cell_length_a       12.721
_cell_length_b       12.855
_cell_length_c       17.454
_cell_angle_alpha    106.426
_cell_angle_beta     102.724
_cell_angle_gamma    99.862

_symmetry_space_group_name_H-M    "P 1"
_symmetry_int_tables_number       1

loop_
  _symmetry_equiv_pos_as_xyz
  'x, y, z'

loop_
  _atom_site_label
  _atom_site_occupancy
  _atom_site_fract_x
  _atom_site_fract_y
  _atom_site_fract_z
  _atom_site_thermal_displace_type
  _atom_site_B_iso_or_equiv
  _atom_site_type_symbol
  C1       1.0000 0.38640  0.48970  0.10650  Biso   1.000  C
  C2       1.0000 0.89530  0.79430  0.56610  Biso   1.000  C
  H1       1.0000 0.89600  0.73710  0.59310  Biso   1.000  H
  H2       1.0000 0.84380  0.76150  0.50980  Biso   1.000  H
  H3       1.0000 0.87120  0.85650  0.59860  Biso   1.000  H
  C3       1.0000 0.09540  0.88140  0.64700  Biso   1.000  C
  H4       1.0000 0.07390  0.94250  0.68310  Biso   1.000  H
  H5       1.0000 0.16990  0.90910  0.64280  Biso   1.000  H
  H6       1.0000 0.09590  0.82080  0.67070  Biso   1.000  H
  C4       1.0000 0.46000  0.49200  0.18840  Biso   1.000  C
  H7       1.0000 0.41650  0.49420  0.22850  Biso   1.000  H
  H8       1.0000 0.52260  0.55860  0.21030  Biso   1.000  H
  H9       1.0000 0.48840  0.42460  0.17940  Biso   1.000  H
  C5       1.0000 0.04710  0.74260  0.50370  Biso   1.000  C
  H10      1.0000 0.04330  0.67950  0.52490  Biso   1.000  H
  H11      1.0000 0.12340  0.76970  0.50260  Biso   1.000  H
  H12      1.0000 0.99660  0.71790  0.44720  Biso   1.000  H
  C6       1.0000 0.01260  0.83760  0.56090  Biso   1.000  C
  C7       1.0000 0.28940  0.38630  0.07110  Biso   1.000  C
  H13      1.0000 0.31780  0.31900  0.06330  Biso   1.000  H
  H14      1.0000 0.24390  0.38460  0.01730  Biso   1.000  H
  H15      1.0000 0.24380  0.38870  0.10980  Biso   1.000  H
  C8       1.0000 0.34110  0.59560  0.12000  Biso   1.000  C
  H16      1.0000 0.29610  0.59700  0.15900  Biso   1.000  H
  H17      1.0000 0.29490  0.59430  0.06660  Biso   1.000  H
  H18      1.0000 0.40340  0.66240  0.14290  Biso   1.000  H
  N1       1.0000 0.01880  0.93290  0.52660  Biso   1.000  N
  N2       1.0000 0.45310  0.48470  0.04510  Biso   1.000  N
  Na1      1.0000 0.15259  0.31854  0.77870  Biso   1.000  Na
  Na2      1.0000 0.25476  0.01960  0.50634  Biso   1.000  Na
  P1       1.0000 0.41097  0.45432  0.94006  Biso   1.000  P
  P2       1.0000 0.02871  0.07091  0.57387  Biso   1.000  P
  S1       1.0000 0.36426  0.29159  0.87526  Biso   1.000  S
  S2       1.0000 0.92315  0.10155  0.64060  Biso   1.000  S
  Cl1      1.0000 0.30625  0.53938  0.90178  Biso   1.000  Cl
  Cl2      1.0000 0.18388  0.16049  0.63281  Biso   1.000  Cl
  C9       1.0000 0.76350  0.15640  0.07400  Biso   1.000  C
  H19      1.0000 0.74390  0.16390  0.01860  Biso   1.000  H
  H20      1.0000 0.73450  0.20860  0.11160  Biso   1.000  H
  H21      1.0000 0.84460  0.17350  0.09570  Biso   1.000  H
  C10      1.0000 0.71240  0.03570  0.06770  Biso   1.000  C
  C11      1.0000 0.76230  0.95370  0.01220  Biso   1.000  C
  H22      1.0000 0.84360  0.97560  0.03400  Biso   1.000  H
  H23      1.0000 0.73420  0.87770  0.01200  Biso   1.000  H
  H24      1.0000 0.74070  0.95550  0.95520  Biso   1.000  H
  C12      1.0000 0.73570  0.02640  0.15380  Biso   1.000  C
  H25      1.0000 0.70030  0.07620  0.18760  Biso   1.000  H
  H26      1.0000 0.70560  0.94900  0.14970  Biso   1.000  H
  H27      1.0000 0.81620  0.04810  0.18000  Biso   1.000  H
  N3       1.0000 0.58880  0.00350  0.02970  Biso   1.000  N
  Na3      1.0000 0.53377  0.25130  0.99040  Biso   1.000  Na
  P3       1.0000 0.51429  0.96429  0.92786  Biso   1.000  P
  S3       1.0000 0.48806  0.80207  0.86646  Biso   1.000  S
  Cl3      1.0000 0.56350  0.06253  0.86674  Biso   1.000  Cl
  C13      1.0000 0.41560  0.82610  0.36500  Biso   1.000  C
  C14      1.0000 0.35060  0.72860  0.38370  Biso   1.000  C
  H28      1.0000 0.40040  0.70950  0.42610  Biso   1.000  H
  H29      1.0000 0.28930  0.75080  0.40430  Biso   1.000  H
  H30      1.0000 0.32060  0.66350  0.33260  Biso   1.000  H
  C15      1.0000 0.51600  0.79530  0.33760  Biso   1.000  C
  H31      1.0000 0.49000  0.73060  0.28610  Biso   1.000  H
  H32      1.0000 0.55850  0.85900  0.32790  Biso   1.000  H
  H33      1.0000 0.56370  0.77650  0.38140  Biso   1.000  H
  C16      1.0000 0.34020  0.85280  0.29660  Biso   1.000  C
  H34      1.0000 0.27850  0.87690  0.31550  Biso   1.000  H
  H35      1.0000 0.38290  0.91300  0.28320  Biso   1.000  H
  H36      1.0000 0.31060  0.78580  0.24680  Biso   1.000  H
  N4       1.0000 0.45230  0.92570  0.44240  Biso   1.000  N
  P4       1.0000 0.50166  0.06427  0.45637  Biso   1.000  P
  S4       1.0000 0.38421  0.14356  0.43277  Biso   1.000  S
  Cl4      1.0000 0.62326  0.09601  0.40517  Biso   1.000  Cl
  Na4      1.0000 0.52686  0.84230  0.71720  Biso   1.000  Na
  C17      1.0000 0.61360  0.51030  0.89350  Biso   1.000  C
  C18      1.0000 0.10470  0.20570  0.43390  Biso   1.000  C
  H37      1.0000 0.10400  0.26290  0.40690  Biso   1.000  H
  H38      1.0000 0.15620  0.23850  0.49020  Biso   1.000  H
  H39      1.0000 0.12880  0.14350  0.40140  Biso   1.000  H
  C19      1.0000 0.90460  0.11860  0.35300  Biso   1.000  C
  H40      1.0000 0.92610  0.05750  0.31690  Biso   1.000  H
  H41      1.0000 0.83010  0.09090  0.35720  Biso   1.000  H
  H42      1.0000 0.90410  0.17920  0.32930  Biso   1.000  H
  C20      1.0000 0.54000  0.50800  0.81160  Biso   1.000  C
  H43      1.0000 0.58350  0.50580  0.77150  Biso   1.000  H
  H44      1.0000 0.47740  0.44140  0.78970  Biso   1.000  H
  H45      1.0000 0.51160  0.57540  0.82060  Biso   1.000  H
  C21      1.0000 0.95290  0.25740  0.49630  Biso   1.000  C
  H46      1.0000 0.95670  0.32050  0.47510  Biso   1.000  H
  H47      1.0000 0.87660  0.23030  0.49740  Biso   1.000  H
  H48      1.0000 0.00340  0.28210  0.55280  Biso   1.000  H
  C22      1.0000 0.98740  0.16240  0.43910  Biso   1.000  C
  C23      1.0000 0.71060  0.61370  0.92890  Biso   1.000  C
  H49      1.0000 0.68220  0.68100  0.93670  Biso   1.000  H
  H50      1.0000 0.75610  0.61540  0.98270  Biso   1.000  H
  H51      1.0000 0.75620  0.61130  0.89020  Biso   1.000  H
  C24      1.0000 0.65890  0.40440  0.88000  Biso   1.000  C
  H52      1.0000 0.70390  0.40300  0.84100  Biso   1.000  H
  H53      1.0000 0.70510  0.40570  0.93340  Biso   1.000  H
  H54      1.0000 0.59660  0.33760  0.85710  Biso   1.000  H
  N5       1.0000 0.98120  0.06710  0.47340  Biso   1.000  N
  N6       1.0000 0.54690  0.51530  0.95490  Biso   1.000  N
  Na5      1.0000 0.84741  0.68146  0.22130  Biso   1.000  Na
  Na6      1.0000 0.74524  0.98040  0.49366  Biso   1.000  Na
  P5       1.0000 0.58903  0.54568  0.05994  Biso   1.000  P
  P6       1.0000 0.97129  0.92909  0.42613  Biso   1.000  P
  S5       1.0000 0.63574  0.70841  0.12474  Biso   1.000  S
  S6       1.0000 0.07685  0.89845  0.35940  Biso   1.000  S
  Cl5      1.0000 0.69375  0.46062  0.09822  Biso   1.000  Cl
  Cl6      1.0000 0.81612  0.83951  0.36719  Biso   1.000  Cl
  C25      1.0000 0.23650  0.84360  0.92600  Biso   1.000  C
  H55      1.0000 0.25610  0.83610  0.98140  Biso   1.000  H
  H56      1.0000 0.26550  0.79140  0.88840  Biso   1.000  H
  H57      1.0000 0.15540  0.82650  0.90430  Biso   1.000  H
  C26      1.0000 0.28760  0.96430  0.93230  Biso   1.000  C
  C27      1.0000 0.23770  0.04630  0.98780  Biso   1.000  C
  H58      1.0000 0.15640  0.02440  0.96600  Biso   1.000  H
  H59      1.0000 0.26580  0.12230  0.98800  Biso   1.000  H
  H60      1.0000 0.25930  0.04450  0.04480  Biso   1.000  H
  C28      1.0000 0.26430  0.97360  0.84620  Biso   1.000  C
  H61      1.0000 0.29970  0.92380  0.81240  Biso   1.000  H
  H62      1.0000 0.29440  0.05100  0.85030  Biso   1.000  H
  H63      1.0000 0.18380  0.95190  0.82000  Biso   1.000  H
  N7       1.0000 0.41120  0.99650  0.97030  Biso   1.000  N
  Na7      1.0000 0.46623  0.74870  0.00960  Biso   1.000  Na
  P7       1.0000 0.48571  0.03571  0.07214  Biso   1.000  P
  S7       1.0000 0.51194  0.19793  0.13354  Biso   1.000  S
  Cl7      1.0000 0.43650  0.93747  0.13326  Biso   1.000  Cl
  C29      1.0000 0.58440  0.17390  0.63500  Biso   1.000  C
  C30      1.0000 0.64940  0.27140  0.61630  Biso   1.000  C
  H64      1.0000 0.59960  0.29050  0.57390  Biso   1.000  H
  H65      1.0000 0.71070  0.24920  0.59570  Biso   1.000  H
  H66      1.0000 0.67940  0.33650  0.66740  Biso   1.000  H
  C31      1.0000 0.48400  0.20470  0.66240  Biso   1.000  C
  H67      1.0000 0.51000  0.26940  0.71390  Biso   1.000  H
  H68      1.0000 0.44150  0.14100  0.67210  Biso   1.000  H
  H69      1.0000 0.43630  0.22350  0.61860  Biso   1.000  H
  C32      1.0000 0.65980  0.14720  0.70340  Biso   1.000  C
  H70      1.0000 0.72150  0.12310  0.68450  Biso   1.000  H
  H71      1.0000 0.61710  0.08700  0.71680  Biso   1.000  H
  H72      1.0000 0.68940  0.21420  0.75320  Biso   1.000  H
  N8       1.0000 0.54770  0.07430  0.55760  Biso   1.000  N
  P8       1.0000 0.49834  0.93573  0.54363  Biso   1.000  P
  S8       1.0000 0.61579  0.85644  0.56723  Biso   1.000  S
  Cl8      1.0000 0.37674  0.90399  0.59483  Biso   1.000  Cl
  Na8      1.0000 0.47314  0.15770  0.28280  Biso   1.000  Na
