data_image0
_cell_length_a       13.4801
_cell_length_b       13.4801
_cell_length_c       24.582
_cell_angle_alpha    90
_cell_angle_beta     90
_cell_angle_gamma    90

_symmetry_space_group_name_H-M    "P 1"
_symmetry_int_tables_number       1

loop_
  _symmetry_equiv_pos_as_xyz
  'x, y, z'

loop_
  _atom_site_label
  _atom_site_occupancy
  _atom_site_fract_x
  _atom_site_fract_y
  _atom_site_fract_z
  _atom_site_thermal_displace_type
  _atom_site_B_iso_or_equiv
  _atom_site_type_symbol
  O1       1.0000 0.16130  0.03880  0.05893  Biso   1.000  O
  O2       1.0000 0.20650  0.19450  0.06833  Biso   1.000  O
  C1       1.0000 0.21190  0.10560  0.08212  Biso   1.000  C
  C2       1.0000 0.28070  0.07780  0.12790  Biso   1.000  C
  C3       1.0000 0.29840  0.97970  0.14100  Biso   1.000  C
  H1       1.0000 0.26460  0.92900  0.12240  Biso   1.000  H
  C4       1.0000 0.36630  0.95580  0.18170  Biso   1.000  C
  H2       1.0000 0.37880  0.88880  0.18980  Biso   1.000  H
  C5       1.0000 0.41610  0.02970  0.21054  Biso   1.000  C
  C6       1.0000 0.39680  0.12710  0.19700  Biso   1.000  C
  H3       1.0000 0.42990  0.17820  0.21560  Biso   1.000  H
  C7       1.0000 0.32960  0.15100  0.15640  Biso   1.000  C
  H4       1.0000 0.31710  0.21790  0.14820  Biso   1.000  H
  O3       1.0000 0.66130  0.53880  0.55893  Biso   1.000  O
  O4       1.0000 0.70650  0.69450  0.56833  Biso   1.000  O
  C8       1.0000 0.71190  0.60560  0.58212  Biso   1.000  C
  C9       1.0000 0.78070  0.57780  0.62790  Biso   1.000  C
  C10      1.0000 0.79840  0.47970  0.64100  Biso   1.000  C
  H5       1.0000 0.76460  0.42900  0.62240  Biso   1.000  H
  C11      1.0000 0.86630  0.45580  0.68170  Biso   1.000  C
  H6       1.0000 0.87880  0.38880  0.68980  Biso   1.000  H
  C12      1.0000 0.91610  0.52970  0.71054  Biso   1.000  C
  C13      1.0000 0.89680  0.62710  0.69700  Biso   1.000  C
  H7       1.0000 0.92990  0.67820  0.71560  Biso   1.000  H
  C14      1.0000 0.82960  0.65100  0.65640  Biso   1.000  C
  H8       1.0000 0.81710  0.71790  0.64820  Biso   1.000  H
  O5       1.0000 0.83870  0.96120  0.05893  Biso   1.000  O
  O6       1.0000 0.79350  0.80550  0.06833  Biso   1.000  O
  C15      1.0000 0.78810  0.89440  0.08212  Biso   1.000  C
  C16      1.0000 0.71930  0.92220  0.12790  Biso   1.000  C
  C17      1.0000 0.70160  0.02030  0.14100  Biso   1.000  C
  H9       1.0000 0.73540  0.07100  0.12240  Biso   1.000  H
  C18      1.0000 0.63370  0.04420  0.18170  Biso   1.000  C
  H10      1.0000 0.62120  0.11120  0.18980  Biso   1.000  H
  C19      1.0000 0.58390  0.97030  0.21054  Biso   1.000  C
  C20      1.0000 0.60320  0.87290  0.19700  Biso   1.000  C
  H11      1.0000 0.57010  0.82180  0.21560  Biso   1.000  H
  C21      1.0000 0.67040  0.84900  0.15640  Biso   1.000  C
  H12      1.0000 0.68290  0.78210  0.14820  Biso   1.000  H
  O7       1.0000 0.33870  0.46120  0.55893  Biso   1.000  O
  O8       1.0000 0.29350  0.30550  0.56833  Biso   1.000  O
  C22      1.0000 0.28810  0.39440  0.58212  Biso   1.000  C
  C23      1.0000 0.21930  0.42220  0.62790  Biso   1.000  C
  C24      1.0000 0.20160  0.52030  0.64100  Biso   1.000  C
  H13      1.0000 0.23540  0.57100  0.62240  Biso   1.000  H
  C25      1.0000 0.13370  0.54420  0.68170  Biso   1.000  C
  H14      1.0000 0.12120  0.61120  0.68980  Biso   1.000  H
  C26      1.0000 0.08390  0.47030  0.71054  Biso   1.000  C
  C27      1.0000 0.10320  0.37290  0.69700  Biso   1.000  C
  H15      1.0000 0.07010  0.32180  0.71560  Biso   1.000  H
  C28      1.0000 0.17040  0.34900  0.65640  Biso   1.000  C
  H16      1.0000 0.18290  0.28210  0.64820  Biso   1.000  H
  O9       1.0000 0.96120  0.16130  0.05893  Biso   1.000  O
  O10      1.0000 0.80550  0.20650  0.06833  Biso   1.000  O
  C29      1.0000 0.89440  0.21190  0.08212  Biso   1.000  C
  C30      1.0000 0.92220  0.28070  0.12790  Biso   1.000  C
  C31      1.0000 0.02030  0.29840  0.14100  Biso   1.000  C
  H17      1.0000 0.07100  0.26460  0.12240  Biso   1.000  H
  C32      1.0000 0.04420  0.36630  0.18170  Biso   1.000  C
  H18      1.0000 0.11120  0.37880  0.18980  Biso   1.000  H
  C33      1.0000 0.97030  0.41610  0.21054  Biso   1.000  C
  C34      1.0000 0.87290  0.39680  0.19700  Biso   1.000  C
  H19      1.0000 0.82180  0.42990  0.21560  Biso   1.000  H
  C35      1.0000 0.84900  0.32960  0.15640  Biso   1.000  C
  H20      1.0000 0.78210  0.31710  0.14820  Biso   1.000  H
  O11      1.0000 0.46120  0.66130  0.55893  Biso   1.000  O
  O12      1.0000 0.30550  0.70650  0.56833  Biso   1.000  O
  C36      1.0000 0.39440  0.71190  0.58212  Biso   1.000  C
  C37      1.0000 0.42220  0.78070  0.62790  Biso   1.000  C
  C38      1.0000 0.52030  0.79840  0.64100  Biso   1.000  C
  H21      1.0000 0.57100  0.76460  0.62240  Biso   1.000  H
  C39      1.0000 0.54420  0.86630  0.68170  Biso   1.000  C
  H22      1.0000 0.61120  0.87880  0.68980  Biso   1.000  H
  C40      1.0000 0.47030  0.91610  0.71054  Biso   1.000  C
  C41      1.0000 0.37290  0.89680  0.69700  Biso   1.000  C
  H23      1.0000 0.32180  0.92990  0.71560  Biso   1.000  H
  C42      1.0000 0.34900  0.82960  0.65640  Biso   1.000  C
  H24      1.0000 0.28210  0.81710  0.64820  Biso   1.000  H
  O13      1.0000 0.03880  0.83870  0.05893  Biso   1.000  O
  O14      1.0000 0.19450  0.79350  0.06833  Biso   1.000  O
  C43      1.0000 0.10560  0.78810  0.08212  Biso   1.000  C
  C44      1.0000 0.07780  0.71930  0.12790  Biso   1.000  C
  C45      1.0000 0.97970  0.70160  0.14100  Biso   1.000  C
  H25      1.0000 0.92900  0.73540  0.12240  Biso   1.000  H
  C46      1.0000 0.95580  0.63370  0.18170  Biso   1.000  C
  H26      1.0000 0.88880  0.62120  0.18980  Biso   1.000  H
  C47      1.0000 0.02970  0.58390  0.21054  Biso   1.000  C
  C48      1.0000 0.12710  0.60320  0.19700  Biso   1.000  C
  H27      1.0000 0.17820  0.57010  0.21560  Biso   1.000  H
  C49      1.0000 0.15100  0.67040  0.15640  Biso   1.000  C
  H28      1.0000 0.21790  0.68290  0.14820  Biso   1.000  H
  O15      1.0000 0.53880  0.33870  0.55893  Biso   1.000  O
  O16      1.0000 0.69450  0.29350  0.56833  Biso   1.000  O
  C50      1.0000 0.60560  0.28810  0.58212  Biso   1.000  C
  C51      1.0000 0.57780  0.21930  0.62790  Biso   1.000  C
  C52      1.0000 0.47970  0.20160  0.64100  Biso   1.000  C
  H29      1.0000 0.42900  0.23540  0.62240  Biso   1.000  H
  C53      1.0000 0.45580  0.13370  0.68170  Biso   1.000  C
  H30      1.0000 0.38880  0.12120  0.68980  Biso   1.000  H
  C54      1.0000 0.52970  0.08390  0.71054  Biso   1.000  C
  C55      1.0000 0.62710  0.10320  0.69700  Biso   1.000  C
  H31      1.0000 0.67820  0.07010  0.71560  Biso   1.000  H
  C56      1.0000 0.65100  0.17040  0.65640  Biso   1.000  C
  H32      1.0000 0.71790  0.18290  0.64820  Biso   1.000  H
  O17      1.0000 0.83870  0.96120  0.94107  Biso   1.000  O
  O18      1.0000 0.79350  0.80550  0.93167  Biso   1.000  O
  C57      1.0000 0.78810  0.89440  0.91788  Biso   1.000  C
  C58      1.0000 0.71930  0.92220  0.87210  Biso   1.000  C
  C59      1.0000 0.70160  0.02030  0.85900  Biso   1.000  C
  H33      1.0000 0.73540  0.07100  0.87760  Biso   1.000  H
  C60      1.0000 0.63370  0.04420  0.81830  Biso   1.000  C
  H34      1.0000 0.62120  0.11120  0.81020  Biso   1.000  H
  C61      1.0000 0.58390  0.97030  0.78946  Biso   1.000  C
  C62      1.0000 0.60320  0.87290  0.80300  Biso   1.000  C
  H35      1.0000 0.57010  0.82180  0.78440  Biso   1.000  H
  C63      1.0000 0.67040  0.84900  0.84360  Biso   1.000  C
  H36      1.0000 0.68290  0.78210  0.85180  Biso   1.000  H
  O19      1.0000 0.33870  0.46120  0.44107  Biso   1.000  O
  O20      1.0000 0.29350  0.30550  0.43167  Biso   1.000  O
  C64      1.0000 0.28810  0.39440  0.41788  Biso   1.000  C
  C65      1.0000 0.21930  0.42220  0.37210  Biso   1.000  C
  C66      1.0000 0.20160  0.52030  0.35900  Biso   1.000  C
  H37      1.0000 0.23540  0.57100  0.37760  Biso   1.000  H
  C67      1.0000 0.13370  0.54420  0.31830  Biso   1.000  C
  H38      1.0000 0.12120  0.61120  0.31020  Biso   1.000  H
  C68      1.0000 0.08390  0.47030  0.28946  Biso   1.000  C
  C69      1.0000 0.10320  0.37290  0.30300  Biso   1.000  C
  H39      1.0000 0.07010  0.32180  0.28440  Biso   1.000  H
  C70      1.0000 0.17040  0.34900  0.34360  Biso   1.000  C
  H40      1.0000 0.18290  0.28210  0.35180  Biso   1.000  H
  O21      1.0000 0.16130  0.03880  0.94107  Biso   1.000  O
  O22      1.0000 0.20650  0.19450  0.93167  Biso   1.000  O
  C71      1.0000 0.21190  0.10560  0.91788  Biso   1.000  C
  C72      1.0000 0.28070  0.07780  0.87210  Biso   1.000  C
  C73      1.0000 0.29840  0.97970  0.85900  Biso   1.000  C
  H41      1.0000 0.26460  0.92900  0.87760  Biso   1.000  H
  C74      1.0000 0.36630  0.95580  0.81830  Biso   1.000  C
  H42      1.0000 0.37880  0.88880  0.81020  Biso   1.000  H
  C75      1.0000 0.41610  0.02970  0.78946  Biso   1.000  C
  C76      1.0000 0.39680  0.12710  0.80300  Biso   1.000  C
  H43      1.0000 0.42990  0.17820  0.78440  Biso   1.000  H
  C77      1.0000 0.32960  0.15100  0.84360  Biso   1.000  C
  H44      1.0000 0.31710  0.21790  0.85180  Biso   1.000  H
  O23      1.0000 0.66130  0.53880  0.44107  Biso   1.000  O
  O24      1.0000 0.70650  0.69450  0.43167  Biso   1.000  O
  C78      1.0000 0.71190  0.60560  0.41788  Biso   1.000  C
  C79      1.0000 0.78070  0.57780  0.37210  Biso   1.000  C
  C80      1.0000 0.79840  0.47970  0.35900  Biso   1.000  C
  H45      1.0000 0.76460  0.42900  0.37760  Biso   1.000  H
  C81      1.0000 0.86630  0.45580  0.31830  Biso   1.000  C
  H46      1.0000 0.87880  0.38880  0.31020  Biso   1.000  H
  C82      1.0000 0.91610  0.52970  0.28946  Biso   1.000  C
  C83      1.0000 0.89680  0.62710  0.30300  Biso   1.000  C
  H47      1.0000 0.92990  0.67820  0.28440  Biso   1.000  H
  C84      1.0000 0.82960  0.65100  0.34360  Biso   1.000  C
  H48      1.0000 0.81710  0.71790  0.35180  Biso   1.000  H
  O25      1.0000 0.03880  0.83870  0.94107  Biso   1.000  O
  O26      1.0000 0.19450  0.79350  0.93167  Biso   1.000  O
  C85      1.0000 0.10560  0.78810  0.91788  Biso   1.000  C
  C86      1.0000 0.07780  0.71930  0.87210  Biso   1.000  C
  C87      1.0000 0.97970  0.70160  0.85900  Biso   1.000  C
  H49      1.0000 0.92900  0.73540  0.87760  Biso   1.000  H
  C88      1.0000 0.95580  0.63370  0.81830  Biso   1.000  C
  H50      1.0000 0.88880  0.62120  0.81020  Biso   1.000  H
  C89      1.0000 0.02970  0.58390  0.78946  Biso   1.000  C
  C90      1.0000 0.12710  0.60320  0.80300  Biso   1.000  C
  H51      1.0000 0.17820  0.57010  0.78440  Biso   1.000  H
  C91      1.0000 0.15100  0.67040  0.84360  Biso   1.000  C
  H52      1.0000 0.21790  0.68290  0.85180  Biso   1.000  H
  O27      1.0000 0.53880  0.33870  0.44107  Biso   1.000  O
  O28      1.0000 0.69450  0.29350  0.43167  Biso   1.000  O
  C92      1.0000 0.60560  0.28810  0.41788  Biso   1.000  C
  C93      1.0000 0.57780  0.21930  0.37210  Biso   1.000  C
  C94      1.0000 0.47970  0.20160  0.35900  Biso   1.000  C
  H53      1.0000 0.42900  0.23540  0.37760  Biso   1.000  H
  C95      1.0000 0.45580  0.13370  0.31830  Biso   1.000  C
  H54      1.0000 0.38880  0.12120  0.31020  Biso   1.000  H
  C96      1.0000 0.52970  0.08390  0.28946  Biso   1.000  C
  C97      1.0000 0.62710  0.10320  0.30300  Biso   1.000  C
  H55      1.0000 0.67820  0.07010  0.28440  Biso   1.000  H
  C98      1.0000 0.65100  0.17040  0.34360  Biso   1.000  C
  H56      1.0000 0.71790  0.18290  0.35180  Biso   1.000  H
  O29      1.0000 0.96120  0.16130  0.94107  Biso   1.000  O
  O30      1.0000 0.80550  0.20650  0.93167  Biso   1.000  O
  C99      1.0000 0.89440  0.21190  0.91788  Biso   1.000  C
  C100     1.0000 0.92220  0.28070  0.87210  Biso   1.000  C
  C101     1.0000 0.02030  0.29840  0.85900  Biso   1.000  C
  H57      1.0000 0.07100  0.26460  0.87760  Biso   1.000  H
  C102     1.0000 0.04420  0.36630  0.81830  Biso   1.000  C
  H58      1.0000 0.11120  0.37880  0.81020  Biso   1.000  H
  C103     1.0000 0.97030  0.41610  0.78946  Biso   1.000  C
  C104     1.0000 0.87290  0.39680  0.80300  Biso   1.000  C
  H59      1.0000 0.82180  0.42990  0.78440  Biso   1.000  H
  C105     1.0000 0.84900  0.32960  0.84360  Biso   1.000  C
  H60      1.0000 0.78210  0.31710  0.85180  Biso   1.000  H
  O31      1.0000 0.46120  0.66130  0.44107  Biso   1.000  O
  O32      1.0000 0.30550  0.70650  0.43167  Biso   1.000  O
  C106     1.0000 0.39440  0.71190  0.41788  Biso   1.000  C
  C107     1.0000 0.42220  0.78070  0.37210  Biso   1.000  C
  C108     1.0000 0.52030  0.79840  0.35900  Biso   1.000  C
  H61      1.0000 0.57100  0.76460  0.37760  Biso   1.000  H
  C109     1.0000 0.54420  0.86630  0.31830  Biso   1.000  C
  H62      1.0000 0.61120  0.87880  0.31020  Biso   1.000  H
  C110     1.0000 0.47030  0.91610  0.28946  Biso   1.000  C
  C111     1.0000 0.37290  0.89680  0.30300  Biso   1.000  C
  H63      1.0000 0.32180  0.92990  0.28440  Biso   1.000  H
  C112     1.0000 0.34900  0.82960  0.34360  Biso   1.000  C
  H64      1.0000 0.28210  0.81710  0.35180  Biso   1.000  H
  Cd1      1.0000 0.09122  0.17813  0.00000  Biso   1.000  Cd
  Cd2      1.0000 0.59122  0.67813  0.50000  Biso   1.000  Cd
  Cd3      1.0000 0.90878  0.82187  0.00000  Biso   1.000  Cd
  Cd4      1.0000 0.40878  0.32187  0.50000  Biso   1.000  Cd
  Cd5      1.0000 0.82187  0.09122  0.00000  Biso   1.000  Cd
  Cd6      1.0000 0.32187  0.59122  0.50000  Biso   1.000  Cd
  Cd7      1.0000 0.17813  0.90878  0.00000  Biso   1.000  Cd
  Cd8      1.0000 0.67813  0.40878  0.50000  Biso   1.000  Cd
  C113     1.0000 0.50000  0.00000  0.25000  Biso   1.000  C
  C114     1.0000 0.00000  0.50000  0.25000  Biso   1.000  C
  C115     1.0000 0.50000  0.00000  0.75000  Biso   1.000  C
  C116     1.0000 0.00000  0.50000  0.75000  Biso   1.000  C
