data_EVUMUE_clean
_audit_creation_date              2014-07-02
_audit_creation_method            'Materials Studio'
_symmetry_space_group_name_H-M    'P1'
_symmetry_Int_Tables_number       1
_symmetry_cell_setting            triclinic
loop_
_symmetry_equiv_pos_as_xyz
  x,y,z
_cell_length_a                    9.8078
_cell_length_b                    13.1867
_cell_length_c                    16.7923
_cell_angle_alpha                 81.5216
_cell_angle_beta                  73.0204
_cell_angle_gamma                 68.1683
loop_
_atom_site_label
_atom_site_type_symbol
_atom_site_fract_x
_atom_site_fract_y
_atom_site_fract_z
_atom_site_U_iso_or_equiv
_atom_site_adp_type
_atom_site_occupancy
La1    La    0.63209   0.38801   0.57397   0.01267  Uiso   1.00
La2    La    0.59407   0.11199   0.92603   0.01267  Uiso   1.00
La3    La    0.36791   0.61199   0.42603   0.01267  Uiso   1.00
La4    La    0.40593   0.88801   0.07397   0.01267  Uiso   1.00
Zn1    Zn    0.25493   0.10873   0.31575   0.01267  Uiso   1.00
Zn2    Zn    0.18193   0.16126   0.54290   0.01267  Uiso   1.00
Zn3    Zn    0.67941   0.39127   0.18425   0.01267  Uiso   1.00
Zn4    Zn    0.88609   0.33874   0.95710   0.01267  Uiso   1.00
Zn5    Zn    0.74507   0.89127   0.68425   0.01267  Uiso   1.00
Zn6    Zn    0.81807   0.83874   0.45710   0.01267  Uiso   1.00
Zn7    Zn    0.32059   0.60873   0.81575   0.01267  Uiso   1.00
Zn8    Zn    0.11391   0.66126   0.04290   0.01267  Uiso   1.00
H1     H     0.03070   0.18830   0.18330   0.01267  Uiso   1.00
H2     H     0.41200   0.93490   0.63030   0.01267  Uiso   1.00
H3     H     0.40230   0.31170   0.31670   0.01267  Uiso   1.00
H4     H     0.97720   0.56510   0.86970   0.01267  Uiso   1.00
H5     H     0.96930   0.81170   0.81670   0.01267  Uiso   1.00
H6     H     0.58800   0.06510   0.36970   0.01267  Uiso   1.00
H7     H     0.59770   0.68830   0.68330   0.01267  Uiso   1.00
H8     H     0.02280   0.43490   0.13030   0.01267  Uiso   1.00
C1     C     0.98680   0.26850   0.43470   0.01267  Uiso   1.00
C2     C     0.94570   0.27310   0.35570   0.01267  Uiso   1.00
C3     C     0.81760   0.33280   0.32680   0.01267  Uiso   1.00
C4     C     0.67340   0.42150   0.35710   0.01267  Uiso   1.00
C5     C     0.98350   0.22400   0.23320   0.01267  Uiso   1.00
C6     C     0.73330   0.10410   0.59430   0.01267  Uiso   1.00
C7     C     0.59850   0.08510   0.58870   0.01267  Uiso   1.00
C8     C     0.47340   0.14520   0.55880   0.01267  Uiso   1.00
C9     C     0.42040   0.25440   0.51900   0.01267  Uiso   1.00
C10    C     0.45090   0.99110   0.61250   0.01267  Uiso   1.00
C11    C     0.69000   0.23150   0.06530   0.01267  Uiso   1.00
C12    C     0.57450   0.22690   0.14430   0.01267  Uiso   1.00
C13    C     0.47720   0.16720   0.17320   0.01267  Uiso   1.00
C14    C     0.45200   0.07850   0.14290   0.01267  Uiso   1.00
C15    C     0.44070   0.27600   0.26680   0.01267  Uiso   1.00
C16    C     0.43170   0.39590   0.90570   0.01267  Uiso   1.00
C17    C     0.27230   0.41490   0.91130   0.01267  Uiso   1.00
C18    C     0.17740   0.35480   0.94120   0.01267  Uiso   1.00
C19    C     0.19380   0.24560   0.98100   0.01267  Uiso   1.00
C20    C     0.05450   0.50890   0.88750   0.01267  Uiso   1.00
C21    C     0.01320   0.73150   0.56530   0.01267  Uiso   1.00
C22    C     0.05430   0.72690   0.64430   0.01267  Uiso   1.00
C23    C     0.18240   0.66720   0.67320   0.01267  Uiso   1.00
C24    C     0.32660   0.57850   0.64290   0.01267  Uiso   1.00
C25    C     0.01650   0.77600   0.76680   0.01267  Uiso   1.00
C26    C     0.26670   0.89590   0.40570   0.01267  Uiso   1.00
C27    C     0.40150   0.91490   0.41130   0.01267  Uiso   1.00
C28    C     0.52660   0.85480   0.44120   0.01267  Uiso   1.00
C29    C     0.57960   0.74560   0.48100   0.01267  Uiso   1.00
C30    C     0.54910   0.00890   0.38750   0.01267  Uiso   1.00
C31    C     0.31000   0.76850   0.93470   0.01267  Uiso   1.00
C32    C     0.42550   0.77310   0.85570   0.01267  Uiso   1.00
C33    C     0.52280   0.83280   0.82680   0.01267  Uiso   1.00
C34    C     0.54800   0.92150   0.85710   0.01267  Uiso   1.00
C35    C     0.55930   0.72400   0.73320   0.01267  Uiso   1.00
C36    C     0.56830   0.60410   0.09430   0.01267  Uiso   1.00
C37    C     0.72770   0.58510   0.08870   0.01267  Uiso   1.00
C38    C     0.82260   0.64520   0.05880   0.01267  Uiso   1.00
C39    C     0.80620   0.75440   0.01900   0.01267  Uiso   1.00
C40    C     0.94550   0.49110   0.11250   0.01267  Uiso   1.00
C41    C     0.53460   0.25000   0.75000   0.01267  Uiso   1.00
C42    C     0.69340   0.25000   0.75000   0.01267  Uiso   1.00
C43    C     0.46540   0.75000   0.25000   0.01267  Uiso   1.00
C44    C     0.30660   0.75000   0.25000   0.01267  Uiso   1.00
N1     N     0.84570   0.29990   0.24770   0.01267  Uiso   1.00
N2     N     0.04860   0.20360   0.29600   0.01267  Uiso   1.00
N3     N     0.38140   0.08350   0.57390   0.01267  Uiso   1.00
N4     N     0.58230   0.98800   0.62280   0.01267  Uiso   1.00
N5     N     0.39330   0.20010   0.25230   0.01267  Uiso   1.00
N6     N     0.54820   0.29640   0.20400   0.01267  Uiso   1.00
N7     N     0.03880   0.41650   0.92610   0.01267  Uiso   1.00
N8     N     0.19310   0.51200   0.87720   0.01267  Uiso   1.00
N9     N     0.15430   0.70010   0.75230   0.01267  Uiso   1.00
N10    N     0.95140   0.79640   0.70400   0.01267  Uiso   1.00
N11    N     0.61860   0.91650   0.42610   0.01267  Uiso   1.00
N12    N     0.41770   0.01200   0.37720   0.01267  Uiso   1.00
N13    N     0.60670   0.79990   0.74770   0.01267  Uiso   1.00
N14    N     0.45180   0.70360   0.79600   0.01267  Uiso   1.00
N15    N     0.96120   0.58350   0.07390   0.01267  Uiso   1.00
N16    N     0.80690   0.48800   0.12280   0.01267  Uiso   1.00
O1     O     0.90470   0.33350   0.49090   0.01267  Uiso   1.00
O2     O     0.11450   0.19500   0.43920   0.01267  Uiso   1.00
O3     O     0.63910   0.46400   0.42720   0.01267  Uiso   1.00
O4     O     0.58260   0.45810   0.31110   0.01267  Uiso   1.00
O5     O     0.81780   0.03050   0.63430   0.01267  Uiso   1.00
O6     O     0.76120   0.18820   0.56140   0.01267  Uiso   1.00
O7     O     0.49130   0.31900   0.50740   0.01267  Uiso   1.00
O8     O     0.29890   0.27880   0.49680   0.01267  Uiso   1.00
O9     O     0.47820   0.30400   0.69260   0.01267  Uiso   1.00
O10    O     0.75114   0.31412   0.69620   0.01267  Uiso   1.00
O11    O     0.72910   0.16650   0.00910   0.01267  Uiso   1.00
O12    O     0.74870   0.30500   0.06080   0.01267  Uiso   1.00
O13    O     0.53030   0.03600   0.07280   0.01267  Uiso   1.00
O14    O     0.35180   0.04190   0.18890   0.01267  Uiso   1.00
O15    O     0.48260   0.46950   0.86570   0.01267  Uiso   1.00
O16    O     0.51080   0.31180   0.93860   0.01267  Uiso   1.00
O17    O     0.31770   0.18100   0.99260   0.01267  Uiso   1.00
O18    O     0.07450   0.22120   0.00320   0.01267  Uiso   1.00
O19    O     0.47480   0.19600   0.80740   0.01267  Uiso   1.00
O20    O     0.76146   0.18588   0.80380   0.01267  Uiso   1.00
O21    O     0.09530   0.66650   0.50910   0.01267  Uiso   1.00
O22    O     0.88550   0.80500   0.56080   0.01267  Uiso   1.00
O23    O     0.36090   0.53600   0.57280   0.01267  Uiso   1.00
O24    O     0.41740   0.54190   0.68890   0.01267  Uiso   1.00
O25    O     0.18220   0.96950   0.36570   0.01267  Uiso   1.00
O26    O     0.23880   0.81180   0.43860   0.01267  Uiso   1.00
O27    O     0.50870   0.68100   0.49260   0.01267  Uiso   1.00
O28    O     0.70110   0.72120   0.50320   0.01267  Uiso   1.00
O29    O     0.52180   0.69600   0.30740   0.01267  Uiso   1.00
O30    O     0.24886   0.68588   0.30380   0.01267  Uiso   1.00
O31    O     0.27090   0.83350   0.99090   0.01267  Uiso   1.00
O32    O     0.25130   0.69500   0.93920   0.01267  Uiso   1.00
O33    O     0.46970   0.96400   0.92720   0.01267  Uiso   1.00
O34    O     0.64820   0.95810   0.81110   0.01267  Uiso   1.00
O35    O     0.51740   0.53050   0.13430   0.01267  Uiso   1.00
O36    O     0.48920   0.68820   0.06140   0.01267  Uiso   1.00
O37    O     0.68230   0.81900   0.00740   0.01267  Uiso   1.00
O38    O     0.92550   0.77880   0.99680   0.01267  Uiso   1.00
O39    O     0.52520   0.80400   0.19260   0.01267  Uiso   1.00
O40    O     0.23854   0.81412   0.19620   0.01267  Uiso   1.00
