data_EVUNAL_clean
_audit_creation_date              2014-07-02
_audit_creation_method            'Materials Studio'
_symmetry_space_group_name_H-M    'P1'
_symmetry_Int_Tables_number       1
_symmetry_cell_setting            triclinic
loop_
_symmetry_equiv_pos_as_xyz
  x,y,z
_cell_length_a                    9.8214
_cell_length_b                    13.1994
_cell_length_c                    16.6115
_cell_angle_alpha                 81.3527
_cell_angle_beta                  72.8053
_cell_angle_gamma                 68.1586
loop_
_atom_site_label
_atom_site_type_symbol
_atom_site_fract_x
_atom_site_fract_y
_atom_site_fract_z
_atom_site_U_iso_or_equiv
_atom_site_adp_type
_atom_site_occupancy
Nd1    Nd    0.62844   0.38400   0.57350   0.01267  Uiso   1.00
Nd2    Nd    0.58594   0.11600   0.92650   0.01267  Uiso   1.00
Nd3    Nd    0.37156   0.61600   0.42650   0.01267  Uiso   1.00
Nd4    Nd    0.41406   0.88400   0.07350   0.01267  Uiso   1.00
Zn1    Zn    0.25010   0.10961   0.31669   0.01267  Uiso   1.00
Zn2    Zn    0.18080   0.16040   0.54452   0.01267  Uiso   1.00
Zn3    Zn    0.67640   0.39039   0.18331   0.01267  Uiso   1.00
Zn4    Zn    0.88572   0.33960   0.95548   0.01267  Uiso   1.00
Zn5    Zn    0.74990   0.89039   0.68331   0.01267  Uiso   1.00
Zn6    Zn    0.81920   0.83960   0.45548   0.01267  Uiso   1.00
Zn7    Zn    0.32360   0.60961   0.81669   0.01267  Uiso   1.00
Zn8    Zn    0.11428   0.66040   0.04452   0.01267  Uiso   1.00
H1     H     0.02480   0.18640   0.18380   0.01267  Uiso   1.00
H2     H     0.41300   0.93230   0.63050   0.01267  Uiso   1.00
H3     H     0.39500   0.31360   0.31620   0.01267  Uiso   1.00
H4     H     0.97580   0.56770   0.86950   0.01267  Uiso   1.00
H5     H     0.97520   0.81360   0.81620   0.01267  Uiso   1.00
H6     H     0.58700   0.06770   0.36950   0.01267  Uiso   1.00
H7     H     0.60500   0.68640   0.68380   0.01267  Uiso   1.00
H8     H     0.02420   0.43230   0.13050   0.01267  Uiso   1.00
C1     C     0.97990   0.27000   0.43700   0.01267  Uiso   1.00
C2     C     0.93820   0.27300   0.35800   0.01267  Uiso   1.00
C3     C     0.81200   0.33270   0.32770   0.01267  Uiso   1.00
C4     C     0.66810   0.42350   0.35790   0.01267  Uiso   1.00
C5     C     0.97760   0.22290   0.23390   0.01267  Uiso   1.00
C6     C     0.73400   0.10270   0.59290   0.01267  Uiso   1.00
C7     C     0.59810   0.08350   0.58890   0.01267  Uiso   1.00
C8     C     0.47220   0.14380   0.55980   0.01267  Uiso   1.00
C9     C     0.41950   0.25380   0.51920   0.01267  Uiso   1.00
C10    C     0.45140   0.98890   0.61270   0.01267  Uiso   1.00
C11    C     0.68690   0.23000   0.06300   0.01267  Uiso   1.00
C12    C     0.56920   0.22700   0.14200   0.01267  Uiso   1.00
C13    C     0.47240   0.16730   0.17230   0.01267  Uiso   1.00
C14    C     0.44950   0.07650   0.14210   0.01267  Uiso   1.00
C15    C     0.43440   0.27710   0.26610   0.01267  Uiso   1.00
C16    C     0.42960   0.39730   0.90710   0.01267  Uiso   1.00
C17    C     0.27050   0.41650   0.91110   0.01267  Uiso   1.00
C18    C     0.17580   0.35620   0.94020   0.01267  Uiso   1.00
C19    C     0.19250   0.24620   0.98080   0.01267  Uiso   1.00
C20    C     0.05300   0.51110   0.88730   0.01267  Uiso   1.00
C21    C     0.02010   0.73000   0.56300   0.01267  Uiso   1.00
C22    C     0.06180   0.72700   0.64200   0.01267  Uiso   1.00
C23    C     0.18800   0.66730   0.67230   0.01267  Uiso   1.00
C24    C     0.33190   0.57650   0.64210   0.01267  Uiso   1.00
C25    C     0.02240   0.77710   0.76610   0.01267  Uiso   1.00
C26    C     0.26600   0.89730   0.40710   0.01267  Uiso   1.00
C27    C     0.40190   0.91650   0.41110   0.01267  Uiso   1.00
C28    C     0.52780   0.85620   0.44020   0.01267  Uiso   1.00
C29    C     0.58050   0.74620   0.48080   0.01267  Uiso   1.00
C30    C     0.54860   0.01110   0.38730   0.01267  Uiso   1.00
C31    C     0.31310   0.77000   0.93700   0.01267  Uiso   1.00
C32    C     0.43080   0.77300   0.85800   0.01267  Uiso   1.00
C33    C     0.52760   0.83270   0.82770   0.01267  Uiso   1.00
C34    C     0.55050   0.92350   0.85790   0.01267  Uiso   1.00
C35    C     0.56560   0.72290   0.73390   0.01267  Uiso   1.00
C36    C     0.57040   0.60270   0.09290   0.01267  Uiso   1.00
C37    C     0.72950   0.58350   0.08890   0.01267  Uiso   1.00
C38    C     0.82420   0.64380   0.05980   0.01267  Uiso   1.00
C39    C     0.80750   0.75380   0.01920   0.01267  Uiso   1.00
C40    C     0.94700   0.48890   0.11270   0.01267  Uiso   1.00
C41    C     0.53010   0.25000   0.75000   0.01267  Uiso   1.00
C42    C     0.68770   0.25000   0.75000   0.01267  Uiso   1.00
C43    C     0.46990   0.75000   0.25000   0.01267  Uiso   1.00
C44    C     0.31230   0.75000   0.25000   0.01267  Uiso   1.00
N1     N     0.83931   0.29868   0.24850   0.01267  Uiso   1.00
N2     N     0.04251   0.20398   0.29680   0.01267  Uiso   1.00
N3     N     0.38019   0.08262   0.57480   0.01267  Uiso   1.00
N4     N     0.58387   0.98536   0.62210   0.01267  Uiso   1.00
N5     N     0.38649   0.20132   0.25150   0.01267  Uiso   1.00
N6     N     0.54329   0.29602   0.20320   0.01267  Uiso   1.00
N7     N     0.03761   0.41738   0.92520   0.01267  Uiso   1.00
N8     N     0.19133   0.51464   0.87790   0.01267  Uiso   1.00
N9     N     0.16069   0.70132   0.75150   0.01267  Uiso   1.00
N10    N     0.95749   0.79602   0.70320   0.01267  Uiso   1.00
N11    N     0.61981   0.91738   0.42520   0.01267  Uiso   1.00
N12    N     0.41613   0.01464   0.37790   0.01267  Uiso   1.00
N13    N     0.61351   0.79868   0.74850   0.01267  Uiso   1.00
N14    N     0.45671   0.70398   0.79680   0.01267  Uiso   1.00
N15    N     0.96239   0.58262   0.07480   0.01267  Uiso   1.00
N16    N     0.80867   0.48536   0.12210   0.01267  Uiso   1.00
O1     O     0.89694   0.33340   0.49392   0.01267  Uiso   1.00
O2     O     0.10855   0.19770   0.44060   0.01267  Uiso   1.00
O3     O     0.63382   0.46436   0.42880   0.01267  Uiso   1.00
O4     O     0.58082   0.46161   0.30995   0.01267  Uiso   1.00
O5     O     0.82047   0.02866   0.63080   0.01267  Uiso   1.00
O6     O     0.75809   0.18852   0.56130   0.01267  Uiso   1.00
O7     O     0.49027   0.31806   0.50820   0.01267  Uiso   1.00
O8     O     0.29715   0.27850   0.49780   0.01267  Uiso   1.00
O9     O     0.47408   0.30408   0.69176   0.01267  Uiso   1.00
O10    O     0.74197   0.31156   0.69550   0.01267  Uiso   1.00
O11    O     0.72426   0.16660   0.00608   0.01267  Uiso   1.00
O12    O     0.74685   0.30230   0.05940   0.01267  Uiso   1.00
O13    O     0.52698   0.03564   0.07120   0.01267  Uiso   1.00
O14    O     0.35238   0.03839   0.19005   0.01267  Uiso   1.00
O15    O     0.47993   0.47134   0.86920   0.01267  Uiso   1.00
O16    O     0.50791   0.31148   0.93870   0.01267  Uiso   1.00
O17    O     0.31653   0.18194   0.99180   0.01267  Uiso   1.00
O18    O     0.07345   0.22150   0.00220   0.01267  Uiso   1.00
O19    O     0.46992   0.19592   0.80824   0.01267  Uiso   1.00
O20    O     0.74903   0.18844   0.80450   0.01267  Uiso   1.00
O21    O     0.10306   0.66660   0.50608   0.01267  Uiso   1.00
O22    O     0.89145   0.80230   0.55940   0.01267  Uiso   1.00
O23    O     0.36618   0.53564   0.57120   0.01267  Uiso   1.00
O24    O     0.41918   0.53839   0.69005   0.01267  Uiso   1.00
O25    O     0.17953   0.97134   0.36920   0.01267  Uiso   1.00
O26    O     0.24191   0.81148   0.43870   0.01267  Uiso   1.00
O27    O     0.50973   0.68194   0.49180   0.01267  Uiso   1.00
O28    O     0.70285   0.72150   0.50220   0.01267  Uiso   1.00
O29    O     0.52592   0.69592   0.30824   0.01267  Uiso   1.00
O30    O     0.25803   0.68844   0.30450   0.01267  Uiso   1.00
O31    O     0.27574   0.83340   0.99392   0.01267  Uiso   1.00
O32    O     0.25315   0.69770   0.94060   0.01267  Uiso   1.00
O33    O     0.47302   0.96436   0.92880   0.01267  Uiso   1.00
O34    O     0.64762   0.96161   0.80995   0.01267  Uiso   1.00
O35    O     0.52007   0.52866   0.13080   0.01267  Uiso   1.00
O36    O     0.49209   0.68852   0.06130   0.01267  Uiso   1.00
O37    O     0.68347   0.81806   0.00820   0.01267  Uiso   1.00
O38    O     0.92655   0.77850   0.99780   0.01267  Uiso   1.00
O39    O     0.53008   0.80408   0.19176   0.01267  Uiso   1.00
O40    O     0.25097   0.81156   0.19550   0.01267  Uiso   1.00
