data_EVUNIT_clean_h
_audit_creation_date              2014-07-02
_audit_creation_method            'Materials Studio'
_symmetry_space_group_name_H-M    'P1'
_symmetry_Int_Tables_number       1
_symmetry_cell_setting            triclinic
loop_
_symmetry_equiv_pos_as_xyz
  x,y,z
_cell_length_a                    9.8438
_cell_length_b                    13.2067
_cell_length_c                    16.4919
_cell_angle_alpha                 81.1208
_cell_angle_beta                  72.6358
_cell_angle_gamma                 68.1188
loop_
_atom_site_label
_atom_site_type_symbol
_atom_site_fract_x
_atom_site_fract_y
_atom_site_fract_z
_atom_site_U_iso_or_equiv
_atom_site_adp_type
_atom_site_occupancy
Eu1    Eu    0.58145   0.61809   0.42715   0.01267  Uiso   1.00
Eu2    Eu    0.62669   0.88191   0.07285   0.01267  Uiso   1.00
Eu3    Eu    0.41855   0.38191   0.57285   0.01267  Uiso   1.00
Eu4    Eu    0.37331   0.11809   0.92715   0.01267  Uiso   1.00
Zn1    Zn    0.32462   0.11040   0.31778   0.01267  Uiso   1.00
Zn2    Zn    0.11411   0.16050   0.54572   0.01267  Uiso   1.00
Zn3    Zn    0.75280   0.38960   0.18222   0.01267  Uiso   1.00
Zn4    Zn    0.82033   0.33950   0.95428   0.01267  Uiso   1.00
Zn5    Zn    0.67538   0.88960   0.68222   0.01267  Uiso   1.00
Zn6    Zn    0.88589   0.83950   0.45428   0.01267  Uiso   1.00
Zn7    Zn    0.24720   0.61040   0.81778   0.01267  Uiso   1.00
Zn8    Zn    0.17967   0.66050   0.04572   0.01267  Uiso   1.00
C1     C     0.42730   0.89740   0.40860   0.01267  Uiso   1.00
C2     C     0.26870   0.91720   0.41180   0.01267  Uiso   1.00
C3     C     0.17430   0.85670   0.43990   0.01267  Uiso   1.00
C4     C     0.19130   0.74570   0.48030   0.01267  Uiso   1.00
C5     C     0.05150   0.01360   0.38740   0.01267  Uiso   1.00
C6     C     0.55190   0.42420   0.35740   0.01267  Uiso   1.00
C7     C     0.52985   0.33240   0.32810   0.01267  Uiso   1.00
C8     C     0.43324   0.27282   0.35830   0.01267  Uiso   1.00
C9     C     0.31450   0.27030   0.43770   0.01267  Uiso   1.00
C10    C     0.56950   0.22130   0.23310   0.01267  Uiso   1.00
C11    C     0.73330   0.60260   0.09140   0.01267  Uiso   1.00
C12    C     0.59770   0.58280   0.08820   0.01267  Uiso   1.00
C13    C     0.47090   0.64330   0.06010   0.01267  Uiso   1.00
C14    C     0.41730   0.75430   0.01970   0.01267  Uiso   1.00
C15    C     0.45250   0.48640   0.11260   0.01267  Uiso   1.00
C16    C     0.33350   0.07580   0.14260   0.01267  Uiso   1.00
C17    C     0.19035   0.16760   0.17190   0.01267  Uiso   1.00
C18    C     0.06436   0.22718   0.14170   0.01267  Uiso   1.00
C19    C     0.02250   0.22970   0.06230   0.01267  Uiso   1.00
C20    C     0.02390   0.27870   0.26690   0.01267  Uiso   1.00
C21    C     0.57270   0.10260   0.59140   0.01267  Uiso   1.00
C22    C     0.73130   0.08280   0.58820   0.01267  Uiso   1.00
C23    C     0.82570   0.14330   0.56010   0.01267  Uiso   1.00
C24    C     0.80870   0.25430   0.51970   0.01267  Uiso   1.00
C25    C     0.94850   0.98640   0.61260   0.01267  Uiso   1.00
C26    C     0.44810   0.57580   0.64260   0.01267  Uiso   1.00
C27    C     0.47015   0.66760   0.67190   0.01267  Uiso   1.00
C28    C     0.56676   0.72718   0.64170   0.01267  Uiso   1.00
C29    C     0.68550   0.72970   0.56230   0.01267  Uiso   1.00
C30    C     0.43050   0.77870   0.76690   0.01267  Uiso   1.00
C31    C     0.26670   0.39740   0.90860   0.01267  Uiso   1.00
C32    C     0.40230   0.41720   0.91180   0.01267  Uiso   1.00
C33    C     0.52910   0.35670   0.93990   0.01267  Uiso   1.00
C34    C     0.58270   0.24570   0.98030   0.01267  Uiso   1.00
C35    C     0.54750   0.51360   0.88740   0.01267  Uiso   1.00
C36    C     0.66650   0.92420   0.85740   0.01267  Uiso   1.00
C37    C     0.80965   0.83240   0.82810   0.01267  Uiso   1.00
C38    C     0.93564   0.77282   0.85830   0.01267  Uiso   1.00
C39    C     0.97750   0.77030   0.93770   0.01267  Uiso   1.00
C40    C     0.97610   0.72130   0.73310   0.01267  Uiso   1.00
C41    C     0.68530   0.75000   0.25000   0.01267  Uiso   1.00
C42    C     0.52710   0.75000   0.25000   0.01267  Uiso   1.00
C43    C     0.31470   0.25000   0.75000   0.01267  Uiso   1.00
C44    C     0.47290   0.25000   0.75000   0.01267  Uiso   1.00
N1     N     0.19043   0.01594   0.37880   0.01267  Uiso   1.00
N2     N     0.03654   0.91832   0.42420   0.01267  Uiso   1.00
N3     N     0.61730   0.29770   0.24850   0.01267  Uiso   1.00
N4     N     0.45964   0.20352   0.29740   0.01267  Uiso   1.00
N5     N     0.58517   0.48406   0.12120   0.01267  Uiso   1.00
N6     N     0.37906   0.58168   0.07580   0.01267  Uiso   1.00
N7     N     0.16350   0.20230   0.25150   0.01267  Uiso   1.00
N8     N     0.96056   0.29648   0.20260   0.01267  Uiso   1.00
N9     N     0.80957   0.98406   0.62120   0.01267  Uiso   1.00
N10    N     0.96346   0.08168   0.57580   0.01267  Uiso   1.00
N11    N     0.38270   0.70230   0.75150   0.01267  Uiso   1.00
N12    N     0.54036   0.79648   0.70260   0.01267  Uiso   1.00
N13    N     0.41483   0.51594   0.87880   0.01267  Uiso   1.00
N14    N     0.62094   0.41832   0.92420   0.01267  Uiso   1.00
N15    N     0.83650   0.79770   0.74850   0.01267  Uiso   1.00
N16    N     0.03944   0.70352   0.79740   0.01267  Uiso   1.00
O1     O     0.47806   0.97228   0.37200   0.01267  Uiso   1.00
O2     O     0.50565   0.81040   0.43950   0.01267  Uiso   1.00
O3     O     0.31586   0.68178   0.49130   0.01267  Uiso   1.00
O4     O     0.07269   0.72112   0.50190   0.01267  Uiso   1.00
O5     O     0.64692   0.46344   0.30852   0.01267  Uiso   1.00
O6     O     0.47528   0.46482   0.42962   0.01267  Uiso   1.00
O7     O     0.27794   0.33388   0.49524   0.01267  Uiso   1.00
O8     O     0.25351   0.19910   0.44128   0.01267  Uiso   1.00
O9     O     0.74499   0.68894   0.30548   0.01267  Uiso   1.00
O10    O     0.46778   0.69593   0.30891   0.01267  Uiso   1.00
O11    O     0.82234   0.52772   0.12800   0.01267  Uiso   1.00
O12    O     0.75555   0.68960   0.06050   0.01267  Uiso   1.00
O13    O     0.48894   0.81822   0.00870   0.01267  Uiso   1.00
O14    O     0.29571   0.77888   0.99810   0.01267  Uiso   1.00
O15    O     0.41888   0.03656   0.19148   0.01267  Uiso   1.00
O16    O     0.36972   0.03518   0.07038   0.01267  Uiso   1.00
O17    O     0.10706   0.16612   0.00476   0.01267  Uiso   1.00
O18    O     0.89389   0.30090   0.05872   0.01267  Uiso   1.00
O19    O     0.73941   0.81106   0.19452   0.01267  Uiso   1.00
O20    O     0.47262   0.80407   0.19109   0.01267  Uiso   1.00
O21    O     0.52194   0.02772   0.62800   0.01267  Uiso   1.00
O22    O     0.49435   0.18960   0.56050   0.01267  Uiso   1.00
O23    O     0.68414   0.31822   0.50870   0.01267  Uiso   1.00
O24    O     0.92731   0.27888   0.49810   0.01267  Uiso   1.00
O25    O     0.35308   0.53656   0.69148   0.01267  Uiso   1.00
O26    O     0.52472   0.53518   0.57038   0.01267  Uiso   1.00
O27    O     0.72206   0.66612   0.50476   0.01267  Uiso   1.00
O28    O     0.74649   0.80090   0.55872   0.01267  Uiso   1.00
O29    O     0.25501   0.31106   0.69452   0.01267  Uiso   1.00
O30    O     0.53222   0.30407   0.69109   0.01267  Uiso   1.00
O31    O     0.17766   0.47228   0.87200   0.01267  Uiso   1.00
O32    O     0.24445   0.31040   0.93950   0.01267  Uiso   1.00
O33    O     0.51106   0.18178   0.99130   0.01267  Uiso   1.00
O34    O     0.70429   0.22112   0.00190   0.01267  Uiso   1.00
O35    O     0.58112   0.96344   0.80852   0.01267  Uiso   1.00
O36    O     0.63028   0.96482   0.92962   0.01267  Uiso   1.00
O37    O     0.89294   0.83388   0.99524   0.01267  Uiso   1.00
O38    O     0.10611   0.69910   0.94128   0.01267  Uiso   1.00
O39    O     0.26059   0.18894   0.80548   0.01267  Uiso   1.00
O40    O     0.52738   0.19593   0.80891   0.01267  Uiso   1.00
H1     H     0.96276   0.08716   0.36456   0.01267  Uiso   1.00
H2     H     0.62273   0.17938   0.17002   0.01267  Uiso   1.00
H3     H     0.41448   0.41284   0.13544   0.01267  Uiso   1.00
H4     H     0.97212   0.32062   0.32998   0.01267  Uiso   1.00
H5     H     0.37727   0.82062   0.82998   0.01267  Uiso   1.00
H6     H     0.58552   0.58716   0.86456   0.01267  Uiso   1.00
H7     H     0.02788   0.67938   0.67002   0.01267  Uiso   1.00
