data_image0
_cell_length_a       11.09
_cell_length_b       11.32
_cell_length_c       16.243
_cell_angle_alpha    74.94
_cell_angle_beta     82.76
_cell_angle_gamma    75.06

_symmetry_space_group_name_H-M    "P 1"
_symmetry_int_tables_number       1

loop_
  _symmetry_equiv_pos_as_xyz
  'x, y, z'

loop_
  _atom_site_label
  _atom_site_occupancy
  _atom_site_fract_x
  _atom_site_fract_y
  _atom_site_fract_z
  _atom_site_thermal_displace_type
  _atom_site_B_iso_or_equiv
  _atom_site_type_symbol
  O1       1.0000 0.35210  0.43380  0.00730  Biso   1.000  O
  O2       1.0000 0.52120  0.42230  0.91640  Biso   1.000  O
  O3       1.0000 0.92510  0.50140  0.76170  Biso   1.000  O
  O4       1.0000 0.93090  0.48000  0.89910  Biso   1.000  O
  C1       1.0000 0.12390  0.43650  0.81640  Biso   1.000  C
  O5       1.0000 0.85920  0.78840  0.72730  Biso   1.000  O
  O6       1.0000 0.72360  0.70450  0.82430  Biso   1.000  O
  C2       1.0000 0.77810  0.79070  0.78740  Biso   1.000  C
  C3       1.0000 0.73410  0.91280  0.81740  Biso   1.000  C
  C4       1.0000 0.77710  0.01950  0.77110  Biso   1.000  C
  H1       1.0000 0.83120  0.01550  0.72280  Biso   1.000  H
  C5       1.0000 0.65390  0.91700  0.88800  Biso   1.000  C
  H2       1.0000 0.62510  0.84620  0.91700  Biso   1.000  H
  O7       1.0000 0.29760  0.33420  0.35430  Biso   1.000  O
  O8       1.0000 0.43600  0.40340  0.25080  Biso   1.000  O
  C6       1.0000 0.40360  0.36100  0.32790  Biso   1.000  C
  C7       1.0000 0.40740  0.42430  0.93480  Biso   1.000  C
  Nd1      1.0000 0.08707  0.34091  0.37296  Biso   1.000  Nd
  Nd2      1.0000 0.70867  0.49371  0.86533  Biso   1.000  Nd
  O9       1.0000 0.88670  0.38290  0.45750  Biso   1.000  O
  O10      1.0000 0.87670  0.31750  0.34660  Biso   1.000  O
  O11      1.0000 0.74230  0.34570  0.78350  Biso   1.000  O
  N1       1.0000 0.36110  0.36030  0.64600  Biso   1.000  N
  O12      1.0000 0.85760  0.24170  0.69010  Biso   1.000  O
  C8       1.0000 0.78570  0.24640  0.75480  Biso   1.000  C
  C9       1.0000 0.82530  0.34550  0.41430  Biso   1.000  C
  N2       1.0000 0.47740  0.35010  0.62960  Biso   1.000  N
  C10      1.0000 0.48720  0.34510  0.39800  Biso   1.000  C
  C11      1.0000 0.19940  0.43900  0.88130  Biso   1.000  C
  H3       1.0000 0.16250  0.45520  0.93320  Biso   1.000  H
  C12      1.0000 0.61280  0.34360  0.37630  Biso   1.000  C
  H4       1.0000 0.64380  0.34550  0.32010  Biso   1.000  H
  N3       1.0000 0.52440  0.04580  0.98460  Biso   1.000  N
  C13      1.0000 0.44000  0.34410  0.48070  Biso   1.000  C
  H5       1.0000 0.35590  0.34530  0.49540  Biso   1.000  H
  C14      1.0000 0.65830  0.13470  0.87000  Biso   1.000  C
  H6       1.0000 0.63240  0.20920  0.88820  Biso   1.000  H
  C15      1.0000 0.51920  0.34110  0.54340  Biso   1.000  C
  C16      1.0000 0.61460  0.02840  0.91710  Biso   1.000  C
  C17      1.0000 0.69420  0.33940  0.43750  Biso   1.000  C
  C18      1.0000 0.31580  0.38020  0.72840  Biso   1.000  C
  C19      1.0000 0.38870  0.38820  0.79220  Biso   1.000  C
  H7       1.0000 0.47530  0.37420  0.78390  Biso   1.000  H
  C20      1.0000 0.64520  0.34020  0.52270  Biso   1.000  C
  H8       1.0000 0.69640  0.34010  0.56390  Biso   1.000  H
  C21      1.0000 0.32890  0.41650  0.86550  Biso   1.000  C
  C22      1.0000 0.73750  0.13150  0.79860  Biso   1.000  C
  C23      1.0000 0.18790  0.40400  0.74070  Biso   1.000  C
  H9       1.0000 0.14160  0.39870  0.69840  Biso   1.000  H
  C24      1.0000 0.98740  0.47700  0.82880  Biso   1.000  C
  O13      1.0000 0.64790  0.56620  0.99270  Biso   1.000  O
  O14      1.0000 0.47880  0.57770  0.08360  Biso   1.000  O
  O15      1.0000 0.07490  0.49860  0.23830  Biso   1.000  O
  O16      1.0000 0.06910  0.52000  0.10090  Biso   1.000  O
  C25      1.0000 0.87610  0.56350  0.18360  Biso   1.000  C
  O17      1.0000 0.14080  0.21160  0.27270  Biso   1.000  O
  O18      1.0000 0.27640  0.29550  0.17570  Biso   1.000  O
  C26      1.0000 0.22190  0.20930  0.21260  Biso   1.000  C
  C27      1.0000 0.26590  0.08720  0.18260  Biso   1.000  C
  C28      1.0000 0.22290  0.98050  0.22890  Biso   1.000  C
  H10      1.0000 0.16880  0.98450  0.27720  Biso   1.000  H
  C29      1.0000 0.34610  0.08300  0.11200  Biso   1.000  C
  H11      1.0000 0.37490  0.15380  0.08300  Biso   1.000  H
  O19      1.0000 0.70240  0.66580  0.64570  Biso   1.000  O
  O20      1.0000 0.56400  0.59660  0.74920  Biso   1.000  O
  C30      1.0000 0.59640  0.63900  0.67210  Biso   1.000  C
  C31      1.0000 0.59260  0.57570  0.06520  Biso   1.000  C
  Nd3      1.0000 0.91293  0.65909  0.62704  Biso   1.000  Nd
  Nd4      1.0000 0.29133  0.50629  0.13467  Biso   1.000  Nd
  O21      1.0000 0.11330  0.61710  0.54250  Biso   1.000  O
  O22      1.0000 0.12330  0.68250  0.65340  Biso   1.000  O
  O23      1.0000 0.25770  0.65430  0.21650  Biso   1.000  O
  N4       1.0000 0.63890  0.63970  0.35400  Biso   1.000  N
  O24      1.0000 0.14240  0.75830  0.30990  Biso   1.000  O
  C32      1.0000 0.21430  0.75360  0.24520  Biso   1.000  C
  C33      1.0000 0.17470  0.65450  0.58570  Biso   1.000  C
  N5       1.0000 0.52260  0.64990  0.37040  Biso   1.000  N
  C34      1.0000 0.51280  0.65490  0.60200  Biso   1.000  C
  C35      1.0000 0.80060  0.56100  0.11870  Biso   1.000  C
  H12      1.0000 0.83750  0.54480  0.06680  Biso   1.000  H
  C36      1.0000 0.38720  0.65640  0.62370  Biso   1.000  C
  H13      1.0000 0.35620  0.65450  0.67990  Biso   1.000  H
  N6       1.0000 0.47560  0.95420  0.01540  Biso   1.000  N
  C37      1.0000 0.56000  0.65590  0.51930  Biso   1.000  C
  H14      1.0000 0.64410  0.65470  0.50460  Biso   1.000  H
  C38      1.0000 0.34170  0.86530  0.13000  Biso   1.000  C
  H15      1.0000 0.36760  0.79080  0.11180  Biso   1.000  H
  C39      1.0000 0.48080  0.65890  0.45660  Biso   1.000  C
  C40      1.0000 0.38540  0.97160  0.08290  Biso   1.000  C
  C41      1.0000 0.30580  0.66060  0.56250  Biso   1.000  C
  C42      1.0000 0.68420  0.61980  0.27160  Biso   1.000  C
  C43      1.0000 0.61130  0.61180  0.20780  Biso   1.000  C
  H16      1.0000 0.52470  0.62580  0.21610  Biso   1.000  H
  C44      1.0000 0.35480  0.65980  0.47730  Biso   1.000  C
  H17      1.0000 0.30360  0.65990  0.43610  Biso   1.000  H
  C45      1.0000 0.67110  0.58350  0.13450  Biso   1.000  C
  C46      1.0000 0.26250  0.86850  0.20140  Biso   1.000  C
  C47      1.0000 0.81210  0.59600  0.25930  Biso   1.000  C
  H18      1.0000 0.85840  0.60130  0.30160  Biso   1.000  H
  C48      1.0000 0.01260  0.52300  0.17120  Biso   1.000  C
