data_EVUQOC_clean
_audit_creation_date              2014-07-02
_audit_creation_method            'Materials Studio'
_symmetry_space_group_name_H-M    'P1'
_symmetry_Int_Tables_number       1
_symmetry_cell_setting            triclinic
loop_
_symmetry_equiv_pos_as_xyz
  x,y,z
_cell_length_a                    10.1340
_cell_length_b                    10.3552
_cell_length_c                    10.7436
_cell_angle_alpha                 78.1625
_cell_angle_beta                  89.4300
_cell_angle_gamma                 65.2390
loop_
_atom_site_label
_atom_site_type_symbol
_atom_site_fract_x
_atom_site_fract_y
_atom_site_fract_z
_atom_site_U_iso_or_equiv
_atom_site_adp_type
_atom_site_occupancy
La1    La    0.03339   0.20630   0.00051   0.01267  Uiso   1.00
La2    La    0.96661   0.79370   0.99949   0.01267  Uiso   1.00
H1     H     0.52170   0.83080   0.96960   0.01267  Uiso   1.00
H2     H     0.65690   0.44590   0.85990   0.01267  Uiso   1.00
H3     H     0.23220   0.73440   0.79300   0.01267  Uiso   1.00
H4     H     0.43380   0.68460   0.56520   0.01267  Uiso   1.00
H5     H     0.31210   0.76790   0.36020   0.01267  Uiso   1.00
H6     H     0.10930   0.50250   0.45840   0.01267  Uiso   1.00
H7     H     0.25000   0.38560   0.78100   0.01267  Uiso   1.00
H8     H     0.14420   0.36470   0.68080   0.01267  Uiso   1.00
H9     H     0.47830   0.16920   0.03040   0.01267  Uiso   1.00
H10    H     0.34310   0.55410   0.14010   0.01267  Uiso   1.00
H11    H     0.76780   0.26560   0.20700   0.01267  Uiso   1.00
H12    H     0.56620   0.31540   0.43480   0.01267  Uiso   1.00
H13    H     0.68790   0.23210   0.63980   0.01267  Uiso   1.00
H14    H     0.89070   0.49750   0.54160   0.01267  Uiso   1.00
H15    H     0.75000   0.61440   0.21900   0.01267  Uiso   1.00
H16    H     0.85580   0.63530   0.31920   0.01267  Uiso   1.00
C1     C     0.23480   0.94270   0.89590   0.01267  Uiso   1.00
C2     C     0.35840   0.80370   0.88410   0.01267  Uiso   1.00
C3     C     0.50050   0.76560   0.93180   0.01267  Uiso   1.00
C4     C     0.61040   0.63230   0.92360   0.01267  Uiso   1.00
C5     C     0.76530   0.58520   0.97720   0.01267  Uiso   1.00
C6     C     0.58170   0.53790   0.86460   0.01267  Uiso   1.00
C7     C     0.44100   0.58080   0.81290   0.01267  Uiso   1.00
C8     C     0.32880   0.70960   0.82480   0.01267  Uiso   1.00
C9     C     0.34330   0.54420   0.63160   0.01267  Uiso   1.00
C10    C     0.36790   0.64770   0.54310   0.01267  Uiso   1.00
C11    C     0.29550   0.69720   0.42160   0.01267  Uiso   1.00
C12    C     0.19900   0.64310   0.39030   0.01267  Uiso   1.00
C13    C     0.11870   0.69600   0.26050   0.01267  Uiso   1.00
C14    C     0.17580   0.53870   0.48040   0.01267  Uiso   1.00
C15    C     0.24840   0.48630   0.60230   0.01267  Uiso   1.00
C16    C     0.76520   0.05730   0.10410   0.01267  Uiso   1.00
C17    C     0.64160   0.19630   0.11590   0.01267  Uiso   1.00
C18    C     0.49950   0.23440   0.06820   0.01267  Uiso   1.00
C19    C     0.38960   0.36770   0.07640   0.01267  Uiso   1.00
C20    C     0.23470   0.41480   0.02280   0.01267  Uiso   1.00
C21    C     0.41830   0.46210   0.13540   0.01267  Uiso   1.00
C22    C     0.55900   0.41920   0.18710   0.01267  Uiso   1.00
C23    C     0.67120   0.29040   0.17520   0.01267  Uiso   1.00
C24    C     0.65670   0.45580   0.36840   0.01267  Uiso   1.00
C25    C     0.63210   0.35230   0.45690   0.01267  Uiso   1.00
C26    C     0.70450   0.30280   0.57840   0.01267  Uiso   1.00
C27    C     0.80100   0.35690   0.60970   0.01267  Uiso   1.00
C28    C     0.88130   0.30400   0.73950   0.01267  Uiso   1.00
C29    C     0.82420   0.46130   0.51960   0.01267  Uiso   1.00
C30    C     0.75160   0.51370   0.39770   0.01267  Uiso   1.00
N1     N     0.23690   0.37480   0.69220   0.01267  Uiso   1.00
N2     N     0.76310   0.62520   0.30780   0.01267  Uiso   1.00
O1     O     0.10840   0.94660   0.91150   0.01267  Uiso   1.00
O2     O     0.25830   0.05380   0.89250   0.01267  Uiso   1.00
O3     O     0.85200   0.45280   0.99090   0.01267  Uiso   1.00
O4     O     0.79680   0.68190   0.00600   0.01267  Uiso   1.00
O5     O     0.41550   0.48500   0.75340   0.01267  Uiso   1.00
O6     O     0.15850   0.76910   0.17170   0.01267  Uiso   1.00
O7     O     0.01520   0.66410   0.24080   0.01267  Uiso   1.00
O8     O     0.89160   0.05340   0.08850   0.01267  Uiso   1.00
O9     O     0.74170   0.94620   0.10750   0.01267  Uiso   1.00
O10    O     0.14800   0.54720   0.00910   0.01267  Uiso   1.00
O11    O     0.20320   0.31810   0.99400   0.01267  Uiso   1.00
O12    O     0.58450   0.51500   0.24660   0.01267  Uiso   1.00
O13    O     0.84150   0.23090   0.82830   0.01267  Uiso   1.00
O14    O     0.98480   0.33590   0.75920   0.01267  Uiso   1.00
