data_image0
_cell_length_a       10.464
_cell_length_b       12.0162
_cell_length_c       13.1846
_cell_angle_alpha    83.78
_cell_angle_beta     86.014
_cell_angle_gamma    75.659

_symmetry_space_group_name_H-M    "P 1"
_symmetry_int_tables_number       1

loop_
  _symmetry_equiv_pos_as_xyz
  'x, y, z'

loop_
  _atom_site_label
  _atom_site_occupancy
  _atom_site_fract_x
  _atom_site_fract_y
  _atom_site_fract_z
  _atom_site_thermal_displace_type
  _atom_site_B_iso_or_equiv
  _atom_site_type_symbol
  Eu1      1.0000 0.39268  0.38214  0.95242  Biso   1.000  Eu
  O1       1.0000 0.15410  0.39870  0.02246  Biso   1.000  O
  O2       1.0000 0.28990  0.22730  0.00797  Biso   1.000  O
  O3       1.0000 0.38950  0.39090  0.13165  Biso   1.000  O
  O4       1.0000 0.45470  0.54960  0.15731  Biso   1.000  O
  O5       1.0000 0.66670  0.42010  0.04289  Biso   1.000  O
  O6       1.0000 0.60070  0.26560  0.00839  Biso   1.000  O
  O7       1.0000 0.35220  0.11190  0.43020  Biso   1.000  O
  H1       1.0000 0.33020  0.05460  0.46210  Biso   1.000  H
  O8       1.0000 0.34830  0.16690  0.58700  Biso   1.000  O
  C1       1.0000 0.47960  0.46140  0.46710  Biso   1.000  C
  C2       1.0000 0.47090  0.48940  0.36150  Biso   1.000  C
  H2       1.0000 0.49220  0.55850  0.33150  Biso   1.000  H
  C3       1.0000 0.17480  0.29180  0.01880  Biso   1.000  C
  C4       1.0000 0.42510  0.45500  0.18700  Biso   1.000  C
  C5       1.0000 0.06060  0.23600  0.02070  Biso   1.000  C
  C6       1.0000 0.39880  0.31750  0.34090  Biso   1.000  C
  H3       1.0000 0.37170  0.26930  0.29840  Biso   1.000  H
  C7       1.0000 0.44600  0.35890  0.50760  Biso   1.000  C
  H4       1.0000 0.45070  0.33720  0.57900  Biso   1.000  H
  C8       1.0000 0.93180  0.30190  0.02510  Biso   1.000  C
  H5       1.0000 0.91370  0.38270  0.03010  Biso   1.000  H
  C9       1.0000 0.08710  0.11820  0.01190  Biso   1.000  C
  H6       1.0000 0.17610  0.07440  0.00970  Biso   1.000  H
  C10      1.0000 0.68840  0.31620  0.02530  Biso   1.000  C
  C11      1.0000 0.85580  0.12990  0.01270  Biso   1.000  C
  H7       1.0000 0.78440  0.09450  0.01060  Biso   1.000  H
  C12      1.0000 0.43200  0.41880  0.29970  Biso   1.000  C
  C13      1.0000 0.98560  0.06260  0.00620  Biso   1.000  C
  C14      1.0000 0.82970  0.24760  0.02210  Biso   1.000  C
  C15      1.0000 0.40630  0.28850  0.44580  Biso   1.000  C
  C16      1.0000 0.36660  0.18300  0.49570  Biso   1.000  C
  Eu2      1.0000 0.60732  0.61786  0.04758  Biso   1.000  Eu
  O9       1.0000 0.84590  0.60130  0.97754  Biso   1.000  O
  O10      1.0000 0.71010  0.77270  0.99203  Biso   1.000  O
  O11      1.0000 0.61050  0.60910  0.86835  Biso   1.000  O
  O12      1.0000 0.54530  0.45040  0.84269  Biso   1.000  O
  O13      1.0000 0.33330  0.57990  0.95711  Biso   1.000  O
  O14      1.0000 0.39930  0.73440  0.99161  Biso   1.000  O
  O15      1.0000 0.64780  0.88810  0.56980  Biso   1.000  O
  H8       1.0000 0.66980  0.94540  0.53790  Biso   1.000  H
  O16      1.0000 0.65170  0.83310  0.41300  Biso   1.000  O
  C17      1.0000 0.52040  0.53860  0.53290  Biso   1.000  C
  C18      1.0000 0.52910  0.51060  0.63850  Biso   1.000  C
  H9       1.0000 0.50780  0.44150  0.66850  Biso   1.000  H
  C19      1.0000 0.82520  0.70820  0.98120  Biso   1.000  C
  C20      1.0000 0.57490  0.54500  0.81300  Biso   1.000  C
  C21      1.0000 0.93940  0.76400  0.97930  Biso   1.000  C
  C22      1.0000 0.60120  0.68250  0.65910  Biso   1.000  C
  H10      1.0000 0.62830  0.73070  0.70160  Biso   1.000  H
  C23      1.0000 0.55400  0.64110  0.49240  Biso   1.000  C
  H11      1.0000 0.54930  0.66280  0.42100  Biso   1.000  H
  C24      1.0000 0.06820  0.69810  0.97490  Biso   1.000  C
  H12      1.0000 0.08630  0.61730  0.96990  Biso   1.000  H
  C25      1.0000 0.91290  0.88180  0.98810  Biso   1.000  C
  H13      1.0000 0.82390  0.92560  0.99030  Biso   1.000  H
  C26      1.0000 0.31160  0.68380  0.97470  Biso   1.000  C
  C27      1.0000 0.14420  0.87010  0.98730  Biso   1.000  C
  H14      1.0000 0.21560  0.90550  0.98940  Biso   1.000  H
  C28      1.0000 0.56800  0.58120  0.70030  Biso   1.000  C
  C29      1.0000 0.01440  0.93740  0.99380  Biso   1.000  C
  C30      1.0000 0.17030  0.75240  0.97790  Biso   1.000  C
  C31      1.0000 0.59370  0.71150  0.55420  Biso   1.000  C
  C32      1.0000 0.63340  0.81700  0.50430  Biso   1.000  C
