data_image0
_cell_length_a       10.4702
_cell_length_b       12.0131
_cell_length_c       13.1765
_cell_angle_alpha    83.827
_cell_angle_beta     85.92
_cell_angle_gamma    75.686

_symmetry_space_group_name_H-M    "P 1"
_symmetry_int_tables_number       1

loop_
  _symmetry_equiv_pos_as_xyz
  'x, y, z'

loop_
  _atom_site_label
  _atom_site_occupancy
  _atom_site_fract_x
  _atom_site_fract_y
  _atom_site_fract_z
  _atom_site_thermal_displace_type
  _atom_site_B_iso_or_equiv
  _atom_site_type_symbol
  Eu1      1.0000 0.39278  0.88220  0.45222  Biso   1.000  Eu
  O1       1.0000 0.54620  0.95002  0.34285  Biso   1.000  O
  O2       1.0000 0.61060  0.10937  0.36839  Biso   1.000  O
  O3       1.0000 0.15400  0.89927  0.52222  Biso   1.000  O
  O4       1.0000 0.66680  0.92010  0.54321  Biso   1.000  O
  O5       1.0000 0.28990  0.72722  0.50723  Biso   1.000  O
  O6       1.0000 0.64800  0.38910  0.06973  Biso   1.000  O
  O7       1.0000 0.65170  0.33340  0.91270  Biso   1.000  O
  C1       1.0000 0.17470  0.79120  0.51830  Biso   1.000  C
  C2       1.0000 0.56870  0.08060  0.20050  Biso   1.000  C
  C3       1.0000 0.57590  0.04410  0.31340  Biso   1.000  C
  C4       1.0000 0.52050  0.03800  0.03320  Biso   1.000  C
  C5       1.0000 0.60120  0.18190  0.15920  Biso   1.000  C
  H1       1.0000 0.62800  0.23000  0.20190  Biso   1.000  H
  C6       1.0000 0.06050  0.73610  0.52060  Biso   1.000  C
  C7       1.0000 0.55420  0.14120  0.99240  Biso   1.000  C
  H2       1.0000 0.54980  0.16270  0.92100  Biso   1.000  H
  C8       1.0000 0.52880  0.01070  0.13830  Biso   1.000  C
  H3       1.0000 0.50650  0.94200  0.16830  Biso   1.000  H
  C9       1.0000 0.59380  0.21210  0.05430  Biso   1.000  C
  C10      1.0000 0.63370  0.31720  0.00410  Biso   1.000  C
  O8       1.0000 0.60130  0.76483  0.50828  Biso   1.000  O
  C11      1.0000 0.82870  0.74730  0.52220  Biso   1.000  C
  C12      1.0000 0.93130  0.80250  0.52510  Biso   1.000  C
  H4       1.0000 0.91310  0.88320  0.53000  Biso   1.000  H
  C13      1.0000 0.68790  0.81560  0.52500  Biso   1.000  C
  C14      1.0000 0.08610  0.61860  0.51140  Biso   1.000  C
  H5       1.0000 0.17510  0.57500  0.50850  Biso   1.000  H
  C15      1.0000 0.98590  0.56300  0.50640  Biso   1.000  C
  C16      1.0000 0.85600  0.62980  0.51290  Biso   1.000  C
  H6       1.0000 0.78510  0.59380  0.51090  Biso   1.000  H
  Eu2      1.0000 0.60722  0.11780  0.54778  Biso   1.000  Eu
  O9       1.0000 0.45380  0.04998  0.65715  Biso   1.000  O
  O10      1.0000 0.38940  0.89063  0.63161  Biso   1.000  O
  O11      1.0000 0.84600  0.10073  0.47778  Biso   1.000  O
  O12      1.0000 0.33320  0.07990  0.45679  Biso   1.000  O
  O13      1.0000 0.71010  0.27278  0.49277  Biso   1.000  O
  O14      1.0000 0.35200  0.61090  0.93027  Biso   1.000  O
  O15      1.0000 0.34830  0.66660  0.08730  Biso   1.000  O
  C17      1.0000 0.82530  0.20880  0.48170  Biso   1.000  C
  C18      1.0000 0.43130  0.91940  0.79950  Biso   1.000  C
  C19      1.0000 0.42410  0.95590  0.68660  Biso   1.000  C
  C20      1.0000 0.47950  0.96200  0.96680  Biso   1.000  C
  C21      1.0000 0.39880  0.81810  0.84080  Biso   1.000  C
  H7       1.0000 0.37200  0.77000  0.79810  Biso   1.000  H
  C22      1.0000 0.93950  0.26390  0.47940  Biso   1.000  C
  C23      1.0000 0.44580  0.85880  0.00760  Biso   1.000  C
  H8       1.0000 0.45020  0.83730  0.07900  Biso   1.000  H
  C24      1.0000 0.47120  0.98930  0.86170  Biso   1.000  C
  H9       1.0000 0.49350  0.05800  0.83170  Biso   1.000  H
  C25      1.0000 0.40620  0.78790  0.94570  Biso   1.000  C
  C26      1.0000 0.36630  0.68280  0.99590  Biso   1.000  C
  O16      1.0000 0.39870  0.23517  0.49172  Biso   1.000  O
  C27      1.0000 0.17130  0.25270  0.47780  Biso   1.000  C
  C28      1.0000 0.06870  0.19750  0.47490  Biso   1.000  C
  H10      1.0000 0.08690  0.11680  0.47000  Biso   1.000  H
  C29      1.0000 0.31210  0.18440  0.47500  Biso   1.000  C
  C30      1.0000 0.91390  0.38140  0.48860  Biso   1.000  C
  H11      1.0000 0.82490  0.42500  0.49150  Biso   1.000  H
  C31      1.0000 0.01410  0.43700  0.49360  Biso   1.000  C
  C32      1.0000 0.14400  0.37020  0.48710  Biso   1.000  C
  H12      1.0000 0.21490  0.40620  0.48910  Biso   1.000  H
