data_image0
_cell_length_a       15.75
_cell_length_b       14.501
_cell_length_c       19.363
_cell_angle_alpha    90
_cell_angle_beta     113.67
_cell_angle_gamma    90

_symmetry_space_group_name_H-M    "P 1"
_symmetry_int_tables_number       1

loop_
  _symmetry_equiv_pos_as_xyz
  'x, y, z'

loop_
  _atom_site_label
  _atom_site_occupancy
  _atom_site_fract_x
  _atom_site_fract_y
  _atom_site_fract_z
  _atom_site_thermal_displace_type
  _atom_site_B_iso_or_equiv
  _atom_site_type_symbol
  Cd1      1.0000 0.20624  0.85687  0.46326  Biso   1.000  Cd
  Cd2      1.0000 0.65509  0.30050  0.34824  Biso   1.000  Cd
  Cd3      1.0000 0.76699  0.41976  0.21520  Biso   1.000  Cd
  O1       1.0000 0.09090  0.95330  0.38517  Biso   1.000  O
  O2       1.0000 0.88340  0.22650  0.10632  Biso   1.000  O
  O3       1.0000 0.78990  0.29830  0.14822  Biso   1.000  O
  O4       1.0000 0.30470  0.97320  0.50186  Biso   1.000  O
  O5       1.0000 0.66750  0.24660  0.47698  Biso   1.000  O
  O6       1.0000 0.86840  0.12740  0.46074  Biso   1.000  O
  O7       1.0000 0.73710  0.16670  0.36440  Biso   1.000  O
  O8       1.0000 0.77780  0.38280  0.41488  Biso   1.000  O
  O9       1.0000 0.65010  0.17150  0.72833  Biso   1.000  O
  O10      1.0000 0.50790  0.19340  0.72032  Biso   1.000  O
  O11      1.0000 0.54170  0.22630  0.37277  Biso   1.000  O
  O12      1.0000 0.84750  0.37140  0.33493  Biso   1.000  O
  O13      1.0000 0.10390  0.99100  0.27738  Biso   1.000  O
  O14      1.0000 0.31490  0.99610  0.39092  Biso   1.000  O
  C1       1.0000 0.06830  0.99650  0.32510  Biso   1.000  C
  C2       1.0000 0.98730  0.06230  0.30540  Biso   1.000  C
  C3       1.0000 0.85080  0.23580  0.15460  Biso   1.000  C
  C4       1.0000 0.88140  0.17490  0.22290  Biso   1.000  C
  C5       1.0000 0.95650  0.11460  0.23960  Biso   1.000  C
  C6       1.0000 0.58500  0.21810  0.44320  Biso   1.000  C
  C7       1.0000 0.53620  0.17640  0.48790  Biso   1.000  C
  C8       1.0000 0.57090  0.19250  0.56550  Biso   1.000  C
  C9       1.0000 0.52530  0.15470  0.60740  Biso   1.000  C
  C10      1.0000 0.33820  0.01140  0.46020  Biso   1.000  C
  C11      1.0000 0.41520  0.08010  0.49580  Biso   1.000  C
  C12      1.0000 0.45830  0.12020  0.45340  Biso   1.000  C
  C13      1.0000 0.82100  0.14320  0.39160  Biso   1.000  C
  C14      1.0000 0.86830  0.13030  0.33840  Biso   1.000  C
  C15      1.0000 0.94450  0.07230  0.35570  Biso   1.000  C
  C16      1.0000 0.83440  0.18040  0.27030  Biso   1.000  C
  C17      1.0000 0.84430  0.39730  0.39540  Biso   1.000  C
  C18      1.0000 0.92520  0.45030  0.44960  Biso   1.000  C
  C19      1.0000 0.98560  0.49440  0.42390  Biso   1.000  C
  C20      1.0000 0.93920  0.45640  0.52600  Biso   1.000  C
  C21      1.0000 0.56220  0.17430  0.69030  Biso   1.000  C
  C22      1.0000 0.44750  0.09940  0.57310  Biso   1.000  C
  Cd4      1.0000 0.79376  0.35687  0.03674  Biso   1.000  Cd
  Cd5      1.0000 0.34491  0.80050  0.15176  Biso   1.000  Cd
  Cd6      1.0000 0.23301  0.91976  0.28480  Biso   1.000  Cd
  O15      1.0000 0.90910  0.45330  0.11483  Biso   1.000  O
  O16      1.0000 0.11660  0.72650  0.39368  Biso   1.000  O
  O17      1.0000 0.21010  0.79830  0.35178  Biso   1.000  O
  O18      1.0000 0.69530  0.47320  0.99814  Biso   1.000  O
  O19      1.0000 0.33250  0.74660  0.02302  Biso   1.000  O
  O20      1.0000 0.13160  0.62740  0.03926  Biso   1.000  O
  O21      1.0000 0.26290  0.66670  0.13560  Biso   1.000  O
  O22      1.0000 0.22220  0.88280  0.08512  Biso   1.000  O
  O23      1.0000 0.34990  0.67150  0.77167  Biso   1.000  O
  O24      1.0000 0.49210  0.69340  0.77968  Biso   1.000  O
  O25      1.0000 0.45830  0.72630  0.12723  Biso   1.000  O
  O26      1.0000 0.15250  0.87140  0.16507  Biso   1.000  O
  O27      1.0000 0.89610  0.49100  0.22262  Biso   1.000  O
  O28      1.0000 0.68510  0.49610  0.10908  Biso   1.000  O
  C23      1.0000 0.93170  0.49650  0.17490  Biso   1.000  C
  C24      1.0000 0.01270  0.56230  0.19460  Biso   1.000  C
  C25      1.0000 0.14920  0.73580  0.34540  Biso   1.000  C
  C26      1.0000 0.11860  0.67490  0.27710  Biso   1.000  C
  C27      1.0000 0.04350  0.61460  0.26040  Biso   1.000  C
  C28      1.0000 0.41500  0.71810  0.05680  Biso   1.000  C
  C29      1.0000 0.46380  0.67640  0.01210  Biso   1.000  C
  C30      1.0000 0.42910  0.69250  0.93450  Biso   1.000  C
  C31      1.0000 0.47470  0.65470  0.89260  Biso   1.000  C
  C32      1.0000 0.66180  0.51140  0.03980  Biso   1.000  C
  C33      1.0000 0.58480  0.58010  0.00420  Biso   1.000  C
  C34      1.0000 0.54170  0.62020  0.04660  Biso   1.000  C
  C35      1.0000 0.17900  0.64320  0.10840  Biso   1.000  C
  C36      1.0000 0.13170  0.63030  0.16160  Biso   1.000  C
  C37      1.0000 0.05550  0.57230  0.14430  Biso   1.000  C
  C38      1.0000 0.16560  0.68040  0.22970  Biso   1.000  C
  C39      1.0000 0.15570  0.89730  0.10460  Biso   1.000  C
  C40      1.0000 0.07480  0.95030  0.05040  Biso   1.000  C
  C41      1.0000 0.01440  0.99440  0.07610  Biso   1.000  C
  C42      1.0000 0.06080  0.95640  0.97400  Biso   1.000  C
  C43      1.0000 0.43780  0.67430  0.80970  Biso   1.000  C
  C44      1.0000 0.55250  0.59940  0.92690  Biso   1.000  C
  Cd7      1.0000 0.79376  0.14313  0.53674  Biso   1.000  Cd
  Cd8      1.0000 0.34491  0.69950  0.65176  Biso   1.000  Cd
  Cd9      1.0000 0.23301  0.58024  0.78480  Biso   1.000  Cd
  O29      1.0000 0.90910  0.04670  0.61483  Biso   1.000  O
  O30      1.0000 0.11660  0.77350  0.89368  Biso   1.000  O
  O31      1.0000 0.21010  0.70170  0.85178  Biso   1.000  O
  O32      1.0000 0.69530  0.02680  0.49814  Biso   1.000  O
  O33      1.0000 0.33250  0.75340  0.52302  Biso   1.000  O
  O34      1.0000 0.13160  0.87260  0.53926  Biso   1.000  O
  O35      1.0000 0.26290  0.83330  0.63560  Biso   1.000  O
  O36      1.0000 0.22220  0.61720  0.58512  Biso   1.000  O
  O37      1.0000 0.34990  0.82850  0.27167  Biso   1.000  O
  O38      1.0000 0.49210  0.80660  0.27968  Biso   1.000  O
  O39      1.0000 0.45830  0.77370  0.62723  Biso   1.000  O
  O40      1.0000 0.15250  0.62860  0.66507  Biso   1.000  O
  O41      1.0000 0.89610  0.00900  0.72262  Biso   1.000  O
  O42      1.0000 0.68510  0.00390  0.60908  Biso   1.000  O
  C45      1.0000 0.93170  0.00350  0.67490  Biso   1.000  C
  C46      1.0000 0.01270  0.93770  0.69460  Biso   1.000  C
  C47      1.0000 0.14920  0.76420  0.84540  Biso   1.000  C
  C48      1.0000 0.11860  0.82510  0.77710  Biso   1.000  C
  C49      1.0000 0.04350  0.88540  0.76040  Biso   1.000  C
  C50      1.0000 0.41500  0.78190  0.55680  Biso   1.000  C
  C51      1.0000 0.46380  0.82360  0.51210  Biso   1.000  C
  C52      1.0000 0.42910  0.80750  0.43450  Biso   1.000  C
  C53      1.0000 0.47470  0.84530  0.39260  Biso   1.000  C
  C54      1.0000 0.66180  0.98860  0.53980  Biso   1.000  C
  C55      1.0000 0.58480  0.91990  0.50420  Biso   1.000  C
  C56      1.0000 0.54170  0.87980  0.54660  Biso   1.000  C
  C57      1.0000 0.17900  0.85680  0.60840  Biso   1.000  C
  C58      1.0000 0.13170  0.86970  0.66160  Biso   1.000  C
  C59      1.0000 0.05550  0.92770  0.64430  Biso   1.000  C
  C60      1.0000 0.16560  0.81960  0.72970  Biso   1.000  C
  C61      1.0000 0.15570  0.60270  0.60460  Biso   1.000  C
  C62      1.0000 0.07480  0.54970  0.55040  Biso   1.000  C
  C63      1.0000 0.01440  0.50560  0.57610  Biso   1.000  C
  C64      1.0000 0.06080  0.54360  0.47400  Biso   1.000  C
  C65      1.0000 0.43780  0.82570  0.30970  Biso   1.000  C
  C66      1.0000 0.55250  0.90060  0.42690  Biso   1.000  C
  Cd10     1.0000 0.20624  0.64313  0.96326  Biso   1.000  Cd
  Cd11     1.0000 0.65509  0.19950  0.84824  Biso   1.000  Cd
  Cd12     1.0000 0.76699  0.08024  0.71520  Biso   1.000  Cd
  O43      1.0000 0.09090  0.54670  0.88517  Biso   1.000  O
  O44      1.0000 0.88340  0.27350  0.60632  Biso   1.000  O
  O45      1.0000 0.78990  0.20170  0.64822  Biso   1.000  O
  O46      1.0000 0.30470  0.52680  0.00186  Biso   1.000  O
  O47      1.0000 0.66750  0.25340  0.97698  Biso   1.000  O
  O48      1.0000 0.86840  0.37260  0.96074  Biso   1.000  O
  O49      1.0000 0.73710  0.33330  0.86440  Biso   1.000  O
  O50      1.0000 0.77780  0.11720  0.91488  Biso   1.000  O
  O51      1.0000 0.65010  0.32850  0.22833  Biso   1.000  O
  O52      1.0000 0.50790  0.30660  0.22032  Biso   1.000  O
  O53      1.0000 0.54170  0.27370  0.87277  Biso   1.000  O
  O54      1.0000 0.84750  0.12860  0.83493  Biso   1.000  O
  O55      1.0000 0.10390  0.50900  0.77738  Biso   1.000  O
  O56      1.0000 0.31490  0.50390  0.89092  Biso   1.000  O
  C67      1.0000 0.06830  0.50350  0.82510  Biso   1.000  C
  C68      1.0000 0.98730  0.43770  0.80540  Biso   1.000  C
  C69      1.0000 0.85080  0.26420  0.65460  Biso   1.000  C
  C70      1.0000 0.88140  0.32510  0.72290  Biso   1.000  C
  C71      1.0000 0.95650  0.38540  0.73960  Biso   1.000  C
  C72      1.0000 0.58500  0.28190  0.94320  Biso   1.000  C
  C73      1.0000 0.53620  0.32360  0.98790  Biso   1.000  C
  C74      1.0000 0.57090  0.30750  0.06550  Biso   1.000  C
  C75      1.0000 0.52530  0.34530  0.10740  Biso   1.000  C
  C76      1.0000 0.33820  0.48860  0.96020  Biso   1.000  C
  C77      1.0000 0.41520  0.41990  0.99580  Biso   1.000  C
  C78      1.0000 0.45830  0.37980  0.95340  Biso   1.000  C
  C79      1.0000 0.82100  0.35680  0.89160  Biso   1.000  C
  C80      1.0000 0.86830  0.36970  0.83840  Biso   1.000  C
  C81      1.0000 0.94450  0.42770  0.85570  Biso   1.000  C
  C82      1.0000 0.83440  0.31960  0.77030  Biso   1.000  C
  C83      1.0000 0.84430  0.10270  0.89540  Biso   1.000  C
  C84      1.0000 0.92520  0.04970  0.94960  Biso   1.000  C
  C85      1.0000 0.98560  0.00560  0.92390  Biso   1.000  C
  C86      1.0000 0.93920  0.04360  0.02600  Biso   1.000  C
  C87      1.0000 0.56220  0.32570  0.19030  Biso   1.000  C
  C88      1.0000 0.44750  0.40060  0.07310  Biso   1.000  C
