data_image0
_cell_length_a       20.782
_cell_length_b       20.782
_cell_length_c       20.782
_cell_angle_alpha    90
_cell_angle_beta     90
_cell_angle_gamma    90

_symmetry_space_group_name_H-M    "P 1"
_symmetry_int_tables_number       1

loop_
  _symmetry_equiv_pos_as_xyz
  'x, y, z'

loop_
  _atom_site_label
  _atom_site_occupancy
  _atom_site_fract_x
  _atom_site_fract_y
  _atom_site_fract_z
  _atom_site_thermal_displace_type
  _atom_site_B_iso_or_equiv
  _atom_site_type_symbol
  Zr1      1.0000 0.12048  0.00000  0.00000  Biso   1.000  Zr
  Zr2      1.0000 0.12048  0.50000  0.50000  Biso   1.000  Zr
  Zr3      1.0000 0.62048  0.00000  0.50000  Biso   1.000  Zr
  Zr4      1.0000 0.62048  0.50000  0.00000  Biso   1.000  Zr
  Zr5      1.0000 0.87952  0.00000  0.00000  Biso   1.000  Zr
  Zr6      1.0000 0.87952  0.50000  0.50000  Biso   1.000  Zr
  Zr7      1.0000 0.37952  0.00000  0.50000  Biso   1.000  Zr
  Zr8      1.0000 0.37952  0.50000  0.00000  Biso   1.000  Zr
  Zr9      1.0000 0.00000  0.12048  0.00000  Biso   1.000  Zr
  Zr10     1.0000 0.00000  0.62048  0.50000  Biso   1.000  Zr
  Zr11     1.0000 0.50000  0.12048  0.50000  Biso   1.000  Zr
  Zr12     1.0000 0.50000  0.62048  0.00000  Biso   1.000  Zr
  Zr13     1.0000 0.00000  0.87952  0.00000  Biso   1.000  Zr
  Zr14     1.0000 0.00000  0.37952  0.50000  Biso   1.000  Zr
  Zr15     1.0000 0.50000  0.87952  0.50000  Biso   1.000  Zr
  Zr16     1.0000 0.50000  0.37952  0.00000  Biso   1.000  Zr
  Zr17     1.0000 0.00000  0.00000  0.12048  Biso   1.000  Zr
  Zr18     1.0000 0.00000  0.50000  0.62048  Biso   1.000  Zr
  Zr19     1.0000 0.50000  0.00000  0.62048  Biso   1.000  Zr
  Zr20     1.0000 0.50000  0.50000  0.12048  Biso   1.000  Zr
  Zr21     1.0000 0.00000  0.00000  0.87952  Biso   1.000  Zr
  Zr22     1.0000 0.00000  0.50000  0.37952  Biso   1.000  Zr
  Zr23     1.0000 0.50000  0.00000  0.37952  Biso   1.000  Zr
  Zr24     1.0000 0.50000  0.50000  0.87952  Biso   1.000  Zr
  O1       1.0000 0.18050  0.00000  0.08480  Biso   1.000  O
  C1       1.0000 0.26750  0.00000  0.18440  Biso   1.000  C
  N1       1.0000 0.28428  0.00000  0.12171  Biso   1.000  N
  O2       1.0000 0.18050  0.50000  0.58480  Biso   1.000  O
  C2       1.0000 0.26750  0.50000  0.68440  Biso   1.000  C
  N2       1.0000 0.28428  0.50000  0.62171  Biso   1.000  N
  O3       1.0000 0.68050  0.00000  0.58480  Biso   1.000  O
  C3       1.0000 0.76750  0.00000  0.68440  Biso   1.000  C
  N3       1.0000 0.78428  0.00000  0.62171  Biso   1.000  N
  O4       1.0000 0.68050  0.50000  0.08480  Biso   1.000  O
  C4       1.0000 0.76750  0.50000  0.18440  Biso   1.000  C
  N4       1.0000 0.78428  0.50000  0.12171  Biso   1.000  N
  O5       1.0000 0.81950  0.00000  0.08480  Biso   1.000  O
  C5       1.0000 0.73250  0.00000  0.18440  Biso   1.000  C
  N5       1.0000 0.71572  0.00000  0.12171  Biso   1.000  N
  O6       1.0000 0.81950  0.50000  0.58480  Biso   1.000  O
  C6       1.0000 0.73250  0.50000  0.68440  Biso   1.000  C
  N6       1.0000 0.71572  0.50000  0.62171  Biso   1.000  N
  O7       1.0000 0.31950  0.00000  0.58480  Biso   1.000  O
  C7       1.0000 0.23250  0.00000  0.68440  Biso   1.000  C
  N7       1.0000 0.21572  0.00000  0.62171  Biso   1.000  N
  O8       1.0000 0.31950  0.50000  0.08480  Biso   1.000  O
  C8       1.0000 0.23250  0.50000  0.18440  Biso   1.000  C
  N8       1.0000 0.21572  0.50000  0.12171  Biso   1.000  N
  O9       1.0000 0.81950  0.00000  0.91520  Biso   1.000  O
  C9       1.0000 0.73250  0.00000  0.81560  Biso   1.000  C
  N9       1.0000 0.71572  0.00000  0.87829  Biso   1.000  N
  O10      1.0000 0.81950  0.50000  0.41520  Biso   1.000  O
  C10      1.0000 0.73250  0.50000  0.31560  Biso   1.000  C
  N10      1.0000 0.71572  0.50000  0.37829  Biso   1.000  N
  O11      1.0000 0.31950  0.00000  0.41520  Biso   1.000  O
  C11      1.0000 0.23250  0.00000  0.31560  Biso   1.000  C
  N11      1.0000 0.21572  0.00000  0.37829  Biso   1.000  N
  O12      1.0000 0.31950  0.50000  0.91520  Biso   1.000  O
  C12      1.0000 0.23250  0.50000  0.81560  Biso   1.000  C
  N12      1.0000 0.21572  0.50000  0.87829  Biso   1.000  N
  O13      1.0000 0.18050  0.00000  0.91520  Biso   1.000  O
  C13      1.0000 0.26750  0.00000  0.81560  Biso   1.000  C
  N13      1.0000 0.28428  0.00000  0.87829  Biso   1.000  N
  O14      1.0000 0.18050  0.50000  0.41520  Biso   1.000  O
  C14      1.0000 0.26750  0.50000  0.31560  Biso   1.000  C
  N14      1.0000 0.28428  0.50000  0.37829  Biso   1.000  N
  O15      1.0000 0.68050  0.00000  0.41520  Biso   1.000  O
  C15      1.0000 0.76750  0.00000  0.31560  Biso   1.000  C
  N15      1.0000 0.78428  0.00000  0.37829  Biso   1.000  N
  O16      1.0000 0.68050  0.50000  0.91520  Biso   1.000  O
  C16      1.0000 0.76750  0.50000  0.81560  Biso   1.000  C
  N16      1.0000 0.78428  0.50000  0.87829  Biso   1.000  N
  O17      1.0000 0.08480  0.18050  0.00000  Biso   1.000  O
  C17      1.0000 0.18440  0.26750  0.00000  Biso   1.000  C
  N17      1.0000 0.12171  0.28428  0.00000  Biso   1.000  N
  O18      1.0000 0.08480  0.68050  0.50000  Biso   1.000  O
  C18      1.0000 0.18440  0.76750  0.50000  Biso   1.000  C
  N18      1.0000 0.12171  0.78428  0.50000  Biso   1.000  N
  O19      1.0000 0.58480  0.18050  0.50000  Biso   1.000  O
  C19      1.0000 0.68440  0.26750  0.50000  Biso   1.000  C
  N19      1.0000 0.62171  0.28428  0.50000  Biso   1.000  N
  O20      1.0000 0.58480  0.68050  0.00000  Biso   1.000  O
  C20      1.0000 0.68440  0.76750  0.00000  Biso   1.000  C
  N20      1.0000 0.62171  0.78428  0.00000  Biso   1.000  N
  O21      1.0000 0.08480  0.81950  0.00000  Biso   1.000  O
  C21      1.0000 0.18440  0.73250  0.00000  Biso   1.000  C
  N21      1.0000 0.12171  0.71572  0.00000  Biso   1.000  N
  O22      1.0000 0.08480  0.31950  0.50000  Biso   1.000  O
  C22      1.0000 0.18440  0.23250  0.50000  Biso   1.000  C
  N22      1.0000 0.12171  0.21572  0.50000  Biso   1.000  N
  O23      1.0000 0.58480  0.81950  0.50000  Biso   1.000  O
  C23      1.0000 0.68440  0.73250  0.50000  Biso   1.000  C
  N23      1.0000 0.62171  0.71572  0.50000  Biso   1.000  N
  O24      1.0000 0.58480  0.31950  0.00000  Biso   1.000  O
  C24      1.0000 0.68440  0.23250  0.00000  Biso   1.000  C
  N24      1.0000 0.62171  0.21572  0.00000  Biso   1.000  N
  O25      1.0000 0.91520  0.81950  0.00000  Biso   1.000  O
  C25      1.0000 0.81560  0.73250  0.00000  Biso   1.000  C
  N25      1.0000 0.87829  0.71572  0.00000  Biso   1.000  N
  O26      1.0000 0.91520  0.31950  0.50000  Biso   1.000  O
  C26      1.0000 0.81560  0.23250  0.50000  Biso   1.000  C
  N26      1.0000 0.87829  0.21572  0.50000  Biso   1.000  N
  O27      1.0000 0.41520  0.81950  0.50000  Biso   1.000  O
  C27      1.0000 0.31560  0.73250  0.50000  Biso   1.000  C
  N27      1.0000 0.37829  0.71572  0.50000  Biso   1.000  N
  O28      1.0000 0.41520  0.31950  0.00000  Biso   1.000  O
  C28      1.0000 0.31560  0.23250  0.00000  Biso   1.000  C
  N28      1.0000 0.37829  0.21572  0.00000  Biso   1.000  N
  O29      1.0000 0.91520  0.18050  0.00000  Biso   1.000  O
  C29      1.0000 0.81560  0.26750  0.00000  Biso   1.000  C
  N29      1.0000 0.87829  0.28428  0.00000  Biso   1.000  N
  O30      1.0000 0.91520  0.68050  0.50000  Biso   1.000  O
  C30      1.0000 0.81560  0.76750  0.50000  Biso   1.000  C
  N30      1.0000 0.87829  0.78428  0.50000  Biso   1.000  N
  O31      1.0000 0.41520  0.18050  0.50000  Biso   1.000  O
  C31      1.0000 0.31560  0.26750  0.50000  Biso   1.000  C
  N31      1.0000 0.37829  0.28428  0.50000  Biso   1.000  N
  O32      1.0000 0.41520  0.68050  0.00000  Biso   1.000  O
  C32      1.0000 0.31560  0.76750  0.00000  Biso   1.000  C
  N32      1.0000 0.37829  0.78428  0.00000  Biso   1.000  N
  O33      1.0000 0.00000  0.08480  0.18050  Biso   1.000  O
  C33      1.0000 0.00000  0.18440  0.26750  Biso   1.000  C
  N33      1.0000 0.00000  0.12171  0.28428  Biso   1.000  N
  O34      1.0000 0.00000  0.58480  0.68050  Biso   1.000  O
  C34      1.0000 0.00000  0.68440  0.76750  Biso   1.000  C
  N34      1.0000 0.00000  0.62171  0.78428  Biso   1.000  N
  O35      1.0000 0.50000  0.08480  0.68050  Biso   1.000  O
  C35      1.0000 0.50000  0.18440  0.76750  Biso   1.000  C
  N35      1.0000 0.50000  0.12171  0.78428  Biso   1.000  N
  O36      1.0000 0.50000  0.58480  0.18050  Biso   1.000  O
  C36      1.0000 0.50000  0.68440  0.26750  Biso   1.000  C
  N36      1.0000 0.50000  0.62171  0.28428  Biso   1.000  N
  O37      1.0000 0.00000  0.08480  0.81950  Biso   1.000  O
  C37      1.0000 0.00000  0.18440  0.73250  Biso   1.000  C
  N37      1.0000 0.00000  0.12171  0.71572  Biso   1.000  N
  O38      1.0000 0.00000  0.58480  0.31950  Biso   1.000  O
  C38      1.0000 0.00000  0.68440  0.23250  Biso   1.000  C
  N38      1.0000 0.00000  0.62171  0.21572  Biso   1.000  N
  O39      1.0000 0.50000  0.08480  0.31950  Biso   1.000  O
  C39      1.0000 0.50000  0.18440  0.23250  Biso   1.000  C
  N39      1.0000 0.50000  0.12171  0.21572  Biso   1.000  N
  O40      1.0000 0.50000  0.58480  0.81950  Biso   1.000  O
  C40      1.0000 0.50000  0.68440  0.73250  Biso   1.000  C
  N40      1.0000 0.50000  0.62171  0.71572  Biso   1.000  N
  O41      1.0000 0.00000  0.91520  0.81950  Biso   1.000  O
  C41      1.0000 0.00000  0.81560  0.73250  Biso   1.000  C
  N41      1.0000 0.00000  0.87829  0.71572  Biso   1.000  N
  O42      1.0000 0.00000  0.41520  0.31950  Biso   1.000  O
  C42      1.0000 0.00000  0.31560  0.23250  Biso   1.000  C
  N42      1.0000 0.00000  0.37829  0.21572  Biso   1.000  N
  O43      1.0000 0.50000  0.91520  0.31950  Biso   1.000  O
  C43      1.0000 0.50000  0.81560  0.23250  Biso   1.000  C
  N43      1.0000 0.50000  0.87829  0.21572  Biso   1.000  N
  O44      1.0000 0.50000  0.41520  0.81950  Biso   1.000  O
  C44      1.0000 0.50000  0.31560  0.73250  Biso   1.000  C
  N44      1.0000 0.50000  0.37829  0.71572  Biso   1.000  N
  O45      1.0000 0.00000  0.91520  0.18050  Biso   1.000  O
  C45      1.0000 0.00000  0.81560  0.26750  Biso   1.000  C
  N45      1.0000 0.00000  0.87829  0.28428  Biso   1.000  N
  O46      1.0000 0.00000  0.41520  0.68050  Biso   1.000  O
  C46      1.0000 0.00000  0.31560  0.76750  Biso   1.000  C
  N46      1.0000 0.00000  0.37829  0.78428  Biso   1.000  N
  O47      1.0000 0.50000  0.91520  0.68050  Biso   1.000  O
  C47      1.0000 0.50000  0.81560  0.76750  Biso   1.000  C
  N47      1.0000 0.50000  0.87829  0.78428  Biso   1.000  N
  O48      1.0000 0.50000  0.41520  0.18050  Biso   1.000  O
  C48      1.0000 0.50000  0.31560  0.26750  Biso   1.000  C
  N48      1.0000 0.50000  0.37829  0.28428  Biso   1.000  N
  O49      1.0000 0.00000  0.18050  0.91520  Biso   1.000  O
  C49      1.0000 0.00000  0.26750  0.81560  Biso   1.000  C
  N49      1.0000 0.00000  0.28428  0.87829  Biso   1.000  N
  O50      1.0000 0.00000  0.68050  0.41520  Biso   1.000  O
  C50      1.0000 0.00000  0.76750  0.31560  Biso   1.000  C
  N50      1.0000 0.00000  0.78428  0.37829  Biso   1.000  N
  O51      1.0000 0.50000  0.18050  0.41520  Biso   1.000  O
  C51      1.0000 0.50000  0.26750  0.31560  Biso   1.000  C
  N51      1.0000 0.50000  0.28428  0.37829  Biso   1.000  N
  O52      1.0000 0.50000  0.68050  0.91520  Biso   1.000  O
  C52      1.0000 0.50000  0.76750  0.81560  Biso   1.000  C
  N52      1.0000 0.50000  0.78428  0.87829  Biso   1.000  N
  O53      1.0000 0.00000  0.81950  0.91520  Biso   1.000  O
  C53      1.0000 0.00000  0.73250  0.81560  Biso   1.000  C
  N53      1.0000 0.00000  0.71572  0.87829  Biso   1.000  N
  O54      1.0000 0.00000  0.31950  0.41520  Biso   1.000  O
  C54      1.0000 0.00000  0.23250  0.31560  Biso   1.000  C
  N54      1.0000 0.00000  0.21572  0.37829  Biso   1.000  N
  O55      1.0000 0.50000  0.81950  0.41520  Biso   1.000  O
  C55      1.0000 0.50000  0.73250  0.31560  Biso   1.000  C
  N55      1.0000 0.50000  0.71572  0.37829  Biso   1.000  N
  O56      1.0000 0.50000  0.31950  0.91520  Biso   1.000  O
  C56      1.0000 0.50000  0.23250  0.81560  Biso   1.000  C
  N56      1.0000 0.50000  0.21572  0.87829  Biso   1.000  N
  O57      1.0000 0.00000  0.81950  0.08480  Biso   1.000  O
  C57      1.0000 0.00000  0.73250  0.18440  Biso   1.000  C
  N57      1.0000 0.00000  0.71572  0.12171  Biso   1.000  N
  O58      1.0000 0.00000  0.31950  0.58480  Biso   1.000  O
  C58      1.0000 0.00000  0.23250  0.68440  Biso   1.000  C
  N58      1.0000 0.00000  0.21572  0.62171  Biso   1.000  N
  O59      1.0000 0.50000  0.81950  0.58480  Biso   1.000  O
  C59      1.0000 0.50000  0.73250  0.68440  Biso   1.000  C
  N59      1.0000 0.50000  0.71572  0.62171  Biso   1.000  N
  O60      1.0000 0.50000  0.31950  0.08480  Biso   1.000  O
  C60      1.0000 0.50000  0.23250  0.18440  Biso   1.000  C
  N60      1.0000 0.50000  0.21572  0.12171  Biso   1.000  N
  O61      1.0000 0.00000  0.18050  0.08480  Biso   1.000  O
  C61      1.0000 0.00000  0.26750  0.18440  Biso   1.000  C
  N61      1.0000 0.00000  0.28428  0.12171  Biso   1.000  N
  O62      1.0000 0.00000  0.68050  0.58480  Biso   1.000  O
  C62      1.0000 0.00000  0.76750  0.68440  Biso   1.000  C
  N62      1.0000 0.00000  0.78428  0.62171  Biso   1.000  N
  O63      1.0000 0.50000  0.18050  0.58480  Biso   1.000  O
  C63      1.0000 0.50000  0.26750  0.68440  Biso   1.000  C
  N63      1.0000 0.50000  0.28428  0.62171  Biso   1.000  N
  O64      1.0000 0.50000  0.68050  0.08480  Biso   1.000  O
  C64      1.0000 0.50000  0.76750  0.18440  Biso   1.000  C
  N64      1.0000 0.50000  0.78428  0.12171  Biso   1.000  N
  O65      1.0000 0.18050  0.08480  0.00000  Biso   1.000  O
  C65      1.0000 0.26750  0.18440  0.00000  Biso   1.000  C
  N65      1.0000 0.28428  0.12171  0.00000  Biso   1.000  N
  O66      1.0000 0.18050  0.58480  0.50000  Biso   1.000  O
  C66      1.0000 0.26750  0.68440  0.50000  Biso   1.000  C
  N66      1.0000 0.28428  0.62171  0.50000  Biso   1.000  N
  O67      1.0000 0.68050  0.08480  0.50000  Biso   1.000  O
  C67      1.0000 0.76750  0.18440  0.50000  Biso   1.000  C
  N67      1.0000 0.78428  0.12171  0.50000  Biso   1.000  N
  O68      1.0000 0.68050  0.58480  0.00000  Biso   1.000  O
  C68      1.0000 0.76750  0.68440  0.00000  Biso   1.000  C
  N68      1.0000 0.78428  0.62171  0.00000  Biso   1.000  N
  O69      1.0000 0.81950  0.08480  0.00000  Biso   1.000  O
  C69      1.0000 0.73250  0.18440  0.00000  Biso   1.000  C
  N69      1.0000 0.71572  0.12171  0.00000  Biso   1.000  N
  O70      1.0000 0.81950  0.58480  0.50000  Biso   1.000  O
  C70      1.0000 0.73250  0.68440  0.50000  Biso   1.000  C
  N70      1.0000 0.71572  0.62171  0.50000  Biso   1.000  N
  O71      1.0000 0.31950  0.08480  0.50000  Biso   1.000  O
  C71      1.0000 0.23250  0.18440  0.50000  Biso   1.000  C
  N71      1.0000 0.21572  0.12171  0.50000  Biso   1.000  N
  O72      1.0000 0.31950  0.58480  0.00000  Biso   1.000  O
  C72      1.0000 0.23250  0.68440  0.00000  Biso   1.000  C
  N72      1.0000 0.21572  0.62171  0.00000  Biso   1.000  N
  O73      1.0000 0.81950  0.91520  0.00000  Biso   1.000  O
  C73      1.0000 0.73250  0.81560  0.00000  Biso   1.000  C
  N73      1.0000 0.71572  0.87829  0.00000  Biso   1.000  N
  O74      1.0000 0.81950  0.41520  0.50000  Biso   1.000  O
  C74      1.0000 0.73250  0.31560  0.50000  Biso   1.000  C
  N74      1.0000 0.71572  0.37829  0.50000  Biso   1.000  N
  O75      1.0000 0.31950  0.91520  0.50000  Biso   1.000  O
  C75      1.0000 0.23250  0.81560  0.50000  Biso   1.000  C
  N75      1.0000 0.21572  0.87829  0.50000  Biso   1.000  N
  O76      1.0000 0.31950  0.41520  0.00000  Biso   1.000  O
  C76      1.0000 0.23250  0.31560  0.00000  Biso   1.000  C
  N76      1.0000 0.21572  0.37829  0.00000  Biso   1.000  N
  O77      1.0000 0.18050  0.91520  0.00000  Biso   1.000  O
  C77      1.0000 0.26750  0.81560  0.00000  Biso   1.000  C
  N77      1.0000 0.28428  0.87829  0.00000  Biso   1.000  N
  O78      1.0000 0.18050  0.41520  0.50000  Biso   1.000  O
  C78      1.0000 0.26750  0.31560  0.50000  Biso   1.000  C
  N78      1.0000 0.28428  0.37829  0.50000  Biso   1.000  N
  O79      1.0000 0.68050  0.91520  0.50000  Biso   1.000  O
  C79      1.0000 0.76750  0.81560  0.50000  Biso   1.000  C
  N79      1.0000 0.78428  0.87829  0.50000  Biso   1.000  N
  O80      1.0000 0.68050  0.41520  0.00000  Biso   1.000  O
  C80      1.0000 0.76750  0.31560  0.00000  Biso   1.000  C
  N80      1.0000 0.78428  0.37829  0.00000  Biso   1.000  N
  O81      1.0000 0.08480  0.00000  0.81950  Biso   1.000  O
  C81      1.0000 0.18440  0.00000  0.73250  Biso   1.000  C
  N81      1.0000 0.12171  0.00000  0.71572  Biso   1.000  N
  O82      1.0000 0.08480  0.50000  0.31950  Biso   1.000  O
  C82      1.0000 0.18440  0.50000  0.23250  Biso   1.000  C
  N82      1.0000 0.12171  0.50000  0.21572  Biso   1.000  N
  O83      1.0000 0.58480  0.00000  0.31950  Biso   1.000  O
  C83      1.0000 0.68440  0.00000  0.23250  Biso   1.000  C
  N83      1.0000 0.62171  0.00000  0.21572  Biso   1.000  N
  O84      1.0000 0.58480  0.50000  0.81950  Biso   1.000  O
  C84      1.0000 0.68440  0.50000  0.73250  Biso   1.000  C
  N84      1.0000 0.62171  0.50000  0.71572  Biso   1.000  N
  O85      1.0000 0.08480  0.00000  0.18050  Biso   1.000  O
  C85      1.0000 0.18440  0.00000  0.26750  Biso   1.000  C
  N85      1.0000 0.12171  0.00000  0.28428  Biso   1.000  N
  O86      1.0000 0.08480  0.50000  0.68050  Biso   1.000  O
  C86      1.0000 0.18440  0.50000  0.76750  Biso   1.000  C
  N86      1.0000 0.12171  0.50000  0.78428  Biso   1.000  N
  O87      1.0000 0.58480  0.00000  0.68050  Biso   1.000  O
  C87      1.0000 0.68440  0.00000  0.76750  Biso   1.000  C
  N87      1.0000 0.62171  0.00000  0.78428  Biso   1.000  N
  O88      1.0000 0.58480  0.50000  0.18050  Biso   1.000  O
  C88      1.0000 0.68440  0.50000  0.26750  Biso   1.000  C
  N88      1.0000 0.62171  0.50000  0.28428  Biso   1.000  N
  O89      1.0000 0.91520  0.00000  0.18050  Biso   1.000  O
  C89      1.0000 0.81560  0.00000  0.26750  Biso   1.000  C
  N89      1.0000 0.87829  0.00000  0.28428  Biso   1.000  N
  O90      1.0000 0.91520  0.50000  0.68050  Biso   1.000  O
  C90      1.0000 0.81560  0.50000  0.76750  Biso   1.000  C
  N90      1.0000 0.87829  0.50000  0.78428  Biso   1.000  N
  O91      1.0000 0.41520  0.00000  0.68050  Biso   1.000  O
  C91      1.0000 0.31560  0.00000  0.76750  Biso   1.000  C
  N91      1.0000 0.37829  0.00000  0.78428  Biso   1.000  N
  O92      1.0000 0.41520  0.50000  0.18050  Biso   1.000  O
  C92      1.0000 0.31560  0.50000  0.26750  Biso   1.000  C
  N92      1.0000 0.37829  0.50000  0.28428  Biso   1.000  N
  O93      1.0000 0.91520  0.00000  0.81950  Biso   1.000  O
  C93      1.0000 0.81560  0.00000  0.73250  Biso   1.000  C
  N93      1.0000 0.87829  0.00000  0.71572  Biso   1.000  N
  O94      1.0000 0.91520  0.50000  0.31950  Biso   1.000  O
  C94      1.0000 0.81560  0.50000  0.23250  Biso   1.000  C
  N94      1.0000 0.87829  0.50000  0.21572  Biso   1.000  N
  O95      1.0000 0.41520  0.00000  0.31950  Biso   1.000  O
  C95      1.0000 0.31560  0.00000  0.23250  Biso   1.000  C
  N95      1.0000 0.37829  0.00000  0.21572  Biso   1.000  N
  O96      1.0000 0.41520  0.50000  0.81950  Biso   1.000  O
  C96      1.0000 0.31560  0.50000  0.73250  Biso   1.000  C
  N96      1.0000 0.37829  0.50000  0.71572  Biso   1.000  N
  O97      1.0000 0.06280  0.06280  0.06280  Biso   1.000  O
  O98      1.0000 0.06280  0.56280  0.56280  Biso   1.000  O
  O99      1.0000 0.56280  0.06280  0.56280  Biso   1.000  O
  O100     1.0000 0.56280  0.56280  0.06280  Biso   1.000  O
  O101     1.0000 0.93720  0.93720  0.06280  Biso   1.000  O
  O102     1.0000 0.93720  0.43720  0.56280  Biso   1.000  O
  O103     1.0000 0.43720  0.93720  0.56280  Biso   1.000  O
  O104     1.0000 0.43720  0.43720  0.06280  Biso   1.000  O
  O105     1.0000 0.93720  0.06280  0.93720  Biso   1.000  O
  O106     1.0000 0.93720  0.56280  0.43720  Biso   1.000  O
  O107     1.0000 0.43720  0.06280  0.43720  Biso   1.000  O
  O108     1.0000 0.43720  0.56280  0.93720  Biso   1.000  O
  O109     1.0000 0.06280  0.93720  0.93720  Biso   1.000  O
  O110     1.0000 0.06280  0.43720  0.43720  Biso   1.000  O
  O111     1.0000 0.56280  0.93720  0.43720  Biso   1.000  O
  O112     1.0000 0.56280  0.43720  0.93720  Biso   1.000  O
  O113     1.0000 0.06280  0.06280  0.93720  Biso   1.000  O
  O114     1.0000 0.06280  0.56280  0.43720  Biso   1.000  O
  O115     1.0000 0.56280  0.06280  0.43720  Biso   1.000  O
  O116     1.0000 0.56280  0.56280  0.93720  Biso   1.000  O
  O117     1.0000 0.93720  0.93720  0.93720  Biso   1.000  O
  O118     1.0000 0.93720  0.43720  0.43720  Biso   1.000  O
  O119     1.0000 0.43720  0.93720  0.43720  Biso   1.000  O
  O120     1.0000 0.43720  0.43720  0.93720  Biso   1.000  O
  O121     1.0000 0.06280  0.93720  0.06280  Biso   1.000  O
  O122     1.0000 0.06280  0.43720  0.56280  Biso   1.000  O
  O123     1.0000 0.56280  0.93720  0.56280  Biso   1.000  O
  O124     1.0000 0.56280  0.43720  0.06280  Biso   1.000  O
  O125     1.0000 0.93720  0.06280  0.06280  Biso   1.000  O
  O126     1.0000 0.93720  0.56280  0.56280  Biso   1.000  O
  O127     1.0000 0.43720  0.06280  0.56280  Biso   1.000  O
  O128     1.0000 0.43720  0.56280  0.06280  Biso   1.000  O
  C97      1.0000 0.15360  0.00000  0.15360  Biso   1.000  C
  C98      1.0000 0.20500  0.00000  0.20500  Biso   1.000  C
  C99      1.0000 0.15360  0.50000  0.65360  Biso   1.000  C
  C100     1.0000 0.20500  0.50000  0.70500  Biso   1.000  C
  C101     1.0000 0.65360  0.00000  0.65360  Biso   1.000  C
  C102     1.0000 0.70500  0.00000  0.70500  Biso   1.000  C
  C103     1.0000 0.65360  0.50000  0.15360  Biso   1.000  C
  C104     1.0000 0.70500  0.50000  0.20500  Biso   1.000  C
  C105     1.0000 0.84640  0.00000  0.15360  Biso   1.000  C
  C106     1.0000 0.79500  0.00000  0.20500  Biso   1.000  C
  C107     1.0000 0.84640  0.50000  0.65360  Biso   1.000  C
  C108     1.0000 0.79500  0.50000  0.70500  Biso   1.000  C
  C109     1.0000 0.34640  0.00000  0.65360  Biso   1.000  C
  C110     1.0000 0.29500  0.00000  0.70500  Biso   1.000  C
  C111     1.0000 0.34640  0.50000  0.15360  Biso   1.000  C
  C112     1.0000 0.29500  0.50000  0.20500  Biso   1.000  C
  C113     1.0000 0.84640  0.00000  0.84640  Biso   1.000  C
  C114     1.0000 0.79500  0.00000  0.79500  Biso   1.000  C
  C115     1.0000 0.84640  0.50000  0.34640  Biso   1.000  C
  C116     1.0000 0.79500  0.50000  0.29500  Biso   1.000  C
  C117     1.0000 0.34640  0.00000  0.34640  Biso   1.000  C
  C118     1.0000 0.29500  0.00000  0.29500  Biso   1.000  C
  C119     1.0000 0.34640  0.50000  0.84640  Biso   1.000  C
  C120     1.0000 0.29500  0.50000  0.79500  Biso   1.000  C
  C121     1.0000 0.15360  0.00000  0.84640  Biso   1.000  C
  C122     1.0000 0.20500  0.00000  0.79500  Biso   1.000  C
  C123     1.0000 0.15360  0.50000  0.34640  Biso   1.000  C
  C124     1.0000 0.20500  0.50000  0.29500  Biso   1.000  C
  C125     1.0000 0.65360  0.00000  0.34640  Biso   1.000  C
  C126     1.0000 0.70500  0.00000  0.29500  Biso   1.000  C
  C127     1.0000 0.65360  0.50000  0.84640  Biso   1.000  C
  C128     1.0000 0.70500  0.50000  0.79500  Biso   1.000  C
  C129     1.0000 0.15360  0.15360  0.00000  Biso   1.000  C
  C130     1.0000 0.20500  0.20500  0.00000  Biso   1.000  C
  C131     1.0000 0.15360  0.65360  0.50000  Biso   1.000  C
  C132     1.0000 0.20500  0.70500  0.50000  Biso   1.000  C
  C133     1.0000 0.65360  0.15360  0.50000  Biso   1.000  C
  C134     1.0000 0.70500  0.20500  0.50000  Biso   1.000  C
  C135     1.0000 0.65360  0.65360  0.00000  Biso   1.000  C
  C136     1.0000 0.70500  0.70500  0.00000  Biso   1.000  C
  C137     1.0000 0.15360  0.84640  0.00000  Biso   1.000  C
  C138     1.0000 0.20500  0.79500  0.00000  Biso   1.000  C
  C139     1.0000 0.15360  0.34640  0.50000  Biso   1.000  C
  C140     1.0000 0.20500  0.29500  0.50000  Biso   1.000  C
  C141     1.0000 0.65360  0.84640  0.50000  Biso   1.000  C
  C142     1.0000 0.70500  0.79500  0.50000  Biso   1.000  C
  C143     1.0000 0.65360  0.34640  0.00000  Biso   1.000  C
  C144     1.0000 0.70500  0.29500  0.00000  Biso   1.000  C
  C145     1.0000 0.84640  0.84640  0.00000  Biso   1.000  C
  C146     1.0000 0.79500  0.79500  0.00000  Biso   1.000  C
  C147     1.0000 0.84640  0.34640  0.50000  Biso   1.000  C
  C148     1.0000 0.79500  0.29500  0.50000  Biso   1.000  C
  C149     1.0000 0.34640  0.84640  0.50000  Biso   1.000  C
  C150     1.0000 0.29500  0.79500  0.50000  Biso   1.000  C
  C151     1.0000 0.34640  0.34640  0.00000  Biso   1.000  C
  C152     1.0000 0.29500  0.29500  0.00000  Biso   1.000  C
  C153     1.0000 0.84640  0.15360  0.00000  Biso   1.000  C
  C154     1.0000 0.79500  0.20500  0.00000  Biso   1.000  C
  C155     1.0000 0.84640  0.65360  0.50000  Biso   1.000  C
  C156     1.0000 0.79500  0.70500  0.50000  Biso   1.000  C
  C157     1.0000 0.34640  0.15360  0.50000  Biso   1.000  C
  C158     1.0000 0.29500  0.20500  0.50000  Biso   1.000  C
  C159     1.0000 0.34640  0.65360  0.00000  Biso   1.000  C
  C160     1.0000 0.29500  0.70500  0.00000  Biso   1.000  C
  C161     1.0000 0.00000  0.15360  0.15360  Biso   1.000  C
  C162     1.0000 0.00000  0.20500  0.20500  Biso   1.000  C
  C163     1.0000 0.00000  0.65360  0.65360  Biso   1.000  C
  C164     1.0000 0.00000  0.70500  0.70500  Biso   1.000  C
  C165     1.0000 0.50000  0.15360  0.65360  Biso   1.000  C
  C166     1.0000 0.50000  0.20500  0.70500  Biso   1.000  C
  C167     1.0000 0.50000  0.65360  0.15360  Biso   1.000  C
  C168     1.0000 0.50000  0.70500  0.20500  Biso   1.000  C
  C169     1.0000 0.00000  0.15360  0.84640  Biso   1.000  C
  C170     1.0000 0.00000  0.20500  0.79500  Biso   1.000  C
  C171     1.0000 0.00000  0.65360  0.34640  Biso   1.000  C
  C172     1.0000 0.00000  0.70500  0.29500  Biso   1.000  C
  C173     1.0000 0.50000  0.15360  0.34640  Biso   1.000  C
  C174     1.0000 0.50000  0.20500  0.29500  Biso   1.000  C
  C175     1.0000 0.50000  0.65360  0.84640  Biso   1.000  C
  C176     1.0000 0.50000  0.70500  0.79500  Biso   1.000  C
  C177     1.0000 0.00000  0.84640  0.84640  Biso   1.000  C
  C178     1.0000 0.00000  0.79500  0.79500  Biso   1.000  C
  C179     1.0000 0.00000  0.34640  0.34640  Biso   1.000  C
  C180     1.0000 0.00000  0.29500  0.29500  Biso   1.000  C
  C181     1.0000 0.50000  0.84640  0.34640  Biso   1.000  C
  C182     1.0000 0.50000  0.79500  0.29500  Biso   1.000  C
  C183     1.0000 0.50000  0.34640  0.84640  Biso   1.000  C
  C184     1.0000 0.50000  0.29500  0.79500  Biso   1.000  C
  C185     1.0000 0.00000  0.84640  0.15360  Biso   1.000  C
  C186     1.0000 0.00000  0.79500  0.20500  Biso   1.000  C
  C187     1.0000 0.00000  0.34640  0.65360  Biso   1.000  C
  C188     1.0000 0.00000  0.29500  0.70500  Biso   1.000  C
  C189     1.0000 0.50000  0.84640  0.65360  Biso   1.000  C
  C190     1.0000 0.50000  0.79500  0.70500  Biso   1.000  C
  C191     1.0000 0.50000  0.34640  0.15360  Biso   1.000  C
  C192     1.0000 0.50000  0.29500  0.20500  Biso   1.000  C
