data_image0
_cell_length_a       11.3504
_cell_length_b       12.1923
_cell_length_c       16.1827
_cell_angle_alpha    90
_cell_angle_beta     130.491
_cell_angle_gamma    90

_symmetry_space_group_name_H-M    "P 1"
_symmetry_int_tables_number       1

loop_
  _symmetry_equiv_pos_as_xyz
  'x, y, z'

loop_
  _atom_site_label
  _atom_site_occupancy
  _atom_site_fract_x
  _atom_site_fract_y
  _atom_site_fract_z
  _atom_site_thermal_displace_type
  _atom_site_B_iso_or_equiv
  _atom_site_type_symbol
  C1       1.0000 0.35730  0.88480  0.73190  Biso   1.000  C
  C2       1.0000 0.20490  0.91830  0.67216  Biso   1.000  C
  H1       1.0000 0.16700  0.97740  0.62460  Biso   1.000  H
  C3       1.0000 0.10950  0.86350  0.68357  Biso   1.000  C
  C4       1.0000 0.94590  0.90040  0.62210  Biso   1.000  C
  C5       1.0000 0.16620  0.77447  0.75328  Biso   1.000  C
  H2       1.0000 0.10180  0.73710  0.76050  Biso   1.000  H
  C6       1.0000 0.31880  0.74081  0.81243  Biso   1.000  C
  C7       1.0000 0.41510  0.79687  0.80191  Biso   1.000  C
  H3       1.0000 0.51760  0.77520  0.84180  Biso   1.000  H
  C8       1.0000 0.38060  0.64504  0.88781  Biso   1.000  C
  O1       1.0000 0.42500  0.92375  0.61079  Biso   1.000  O
  O2       1.0000 0.44520  0.07275  0.71610  Biso   1.000  O
  O3       1.0000 0.63290  0.92590  0.80352  Biso   1.000  O
  O4       1.0000 0.89570  0.98010  0.55870  Biso   1.000  O
  O5       1.0000 0.86240  0.85462  0.63410  Biso   1.000  O
  O6       1.0000 0.52377  0.63850  0.96179  Biso   1.000  O
  O7       1.0000 0.28290  0.57827  0.87185  Biso   1.000  O
  S1       1.0000 0.47655  0.95931  0.71644  Biso   1.000  S
  Zn1      1.0000 0.32070  0.02369  0.48117  Biso   1.000  Zn
  C9       1.0000 0.64270  0.38480  0.76810  Biso   1.000  C
  C10      1.0000 0.79510  0.41830  0.82784  Biso   1.000  C
  H4       1.0000 0.83300  0.47740  0.87540  Biso   1.000  H
  C11      1.0000 0.89050  0.36350  0.81643  Biso   1.000  C
  C12      1.0000 0.05410  0.40040  0.87790  Biso   1.000  C
  C13      1.0000 0.83380  0.27447  0.74672  Biso   1.000  C
  H5       1.0000 0.89820  0.23710  0.73950  Biso   1.000  H
  C14      1.0000 0.68120  0.24081  0.68757  Biso   1.000  C
  C15      1.0000 0.58490  0.29687  0.69809  Biso   1.000  C
  H6       1.0000 0.48240  0.27520  0.65820  Biso   1.000  H
  C16      1.0000 0.61940  0.14504  0.61219  Biso   1.000  C
  O8       1.0000 0.57500  0.42375  0.88921  Biso   1.000  O
  O9       1.0000 0.55480  0.57275  0.78390  Biso   1.000  O
  O10      1.0000 0.36710  0.42590  0.69648  Biso   1.000  O
  O11      1.0000 0.10430  0.48010  0.94130  Biso   1.000  O
  O12      1.0000 0.13760  0.35462  0.86590  Biso   1.000  O
  O13      1.0000 0.47623  0.13850  0.53821  Biso   1.000  O
  O14      1.0000 0.71710  0.07827  0.62815  Biso   1.000  O
  S2       1.0000 0.52345  0.45931  0.78356  Biso   1.000  S
  Zn2      1.0000 0.67930  0.52369  0.01883  Biso   1.000  Zn
  C17      1.0000 0.64270  0.11520  0.26810  Biso   1.000  C
  C18      1.0000 0.79510  0.08170  0.32784  Biso   1.000  C
  H7       1.0000 0.83300  0.02260  0.37540  Biso   1.000  H
  C19      1.0000 0.89050  0.13650  0.31643  Biso   1.000  C
  C20      1.0000 0.05410  0.09960  0.37790  Biso   1.000  C
  C21      1.0000 0.83380  0.22553  0.24672  Biso   1.000  C
  H8       1.0000 0.89820  0.26290  0.23950  Biso   1.000  H
  C22      1.0000 0.68120  0.25919  0.18757  Biso   1.000  C
  C23      1.0000 0.58490  0.20313  0.19809  Biso   1.000  C
  H9       1.0000 0.48240  0.22480  0.15820  Biso   1.000  H
  C24      1.0000 0.61940  0.35496  0.11219  Biso   1.000  C
  O15      1.0000 0.57500  0.07625  0.38921  Biso   1.000  O
  O16      1.0000 0.55480  0.92725  0.28390  Biso   1.000  O
  O17      1.0000 0.36710  0.07410  0.19648  Biso   1.000  O
  O18      1.0000 0.10430  0.01990  0.44130  Biso   1.000  O
  O19      1.0000 0.13760  0.14538  0.36590  Biso   1.000  O
  O20      1.0000 0.47623  0.36150  0.03821  Biso   1.000  O
  O21      1.0000 0.71710  0.42173  0.12815  Biso   1.000  O
  S3       1.0000 0.52345  0.04069  0.28356  Biso   1.000  S
  Zn3      1.0000 0.67930  0.97631  0.51883  Biso   1.000  Zn
  C25      1.0000 0.35730  0.61520  0.23190  Biso   1.000  C
  C26      1.0000 0.20490  0.58170  0.17216  Biso   1.000  C
  H10      1.0000 0.16700  0.52260  0.12460  Biso   1.000  H
  C27      1.0000 0.10950  0.63650  0.18357  Biso   1.000  C
  C28      1.0000 0.94590  0.59960  0.12210  Biso   1.000  C
  C29      1.0000 0.16620  0.72553  0.25328  Biso   1.000  C
  H11      1.0000 0.10180  0.76290  0.26050  Biso   1.000  H
  C30      1.0000 0.31880  0.75919  0.31243  Biso   1.000  C
  C31      1.0000 0.41510  0.70313  0.30191  Biso   1.000  C
  H12      1.0000 0.51760  0.72480  0.34180  Biso   1.000  H
  C32      1.0000 0.38060  0.85496  0.38781  Biso   1.000  C
  O22      1.0000 0.42500  0.57625  0.11079  Biso   1.000  O
  O23      1.0000 0.44520  0.42725  0.21610  Biso   1.000  O
  O24      1.0000 0.63290  0.57410  0.30352  Biso   1.000  O
  O25      1.0000 0.89570  0.51990  0.05870  Biso   1.000  O
  O26      1.0000 0.86240  0.64538  0.13410  Biso   1.000  O
  O27      1.0000 0.52377  0.86150  0.46179  Biso   1.000  O
  O28      1.0000 0.28290  0.92173  0.37185  Biso   1.000  O
  S4       1.0000 0.47655  0.54069  0.21644  Biso   1.000  S
  Zn4      1.0000 0.32070  0.47631  0.98117  Biso   1.000  Zn
