data_image0
_cell_length_a       17.492
_cell_length_b       17.492
_cell_length_c       13.242
_cell_angle_alpha    90
_cell_angle_beta     90
_cell_angle_gamma    120

_symmetry_space_group_name_H-M    "P 1"
_symmetry_int_tables_number       1

loop_
  _symmetry_equiv_pos_as_xyz
  'x, y, z'

loop_
  _atom_site_label
  _atom_site_occupancy
  _atom_site_fract_x
  _atom_site_fract_y
  _atom_site_fract_z
  _atom_site_thermal_displace_type
  _atom_site_B_iso_or_equiv
  _atom_site_type_symbol
  Cu1      1.0000 0.55764  0.42464  0.13860  Biso   1.000  Cu
  Cu2      1.0000 0.55283  0.41905  0.39090  Biso   1.000  Cu
  O1       1.0000 0.53150  0.36130  0.26200  Biso   1.000  O
  N1       1.0000 0.60410  0.50980  0.03600  Biso   1.000  N
  N2       1.0000 0.40550  0.50330  0.00800  Biso   1.000  N
  O2       1.0000 0.32460  0.56080  0.89400  Biso   1.000  O
  O3       1.0000 0.67700  0.44190  0.13600  Biso   1.000  O
  O4       1.0000 0.55240  0.57090  0.90900  Biso   1.000  O
  O5       1.0000 0.19920  0.49200  0.98200  Biso   1.000  O
  O6       1.0000 0.80360  0.50820  0.05000  Biso   1.000  O
  O7       1.0000 0.44400  0.42750  0.11500  Biso   1.000  O
  C1       1.0000 0.54640  0.52610  0.99000  Biso   1.000  C
  C2       1.0000 0.45700  0.48140  0.04300  Biso   1.000  C
  C3       1.0000 0.69660  0.54820  0.00500  Biso   1.000  C
  H1       1.0000 0.69620  0.53260  0.93240  Biso   1.000  H
  C4       1.0000 0.72510  0.49600  0.06200  Biso   1.000  C
  C5       1.0000 0.31870  0.47500  0.04270  Biso   1.000  C
  H2       1.0000 0.28500  0.40860  0.03960  Biso   1.000  H
  C6       1.0000 0.27400  0.51200  0.96000  Biso   1.000  C
  C7       1.0000 0.75800  0.64020  0.01400  Biso   1.000  C
  H3       1.0000 0.72220  0.66850  0.00390  Biso   1.000  H
  H4       1.0000 0.79500  0.65390  0.95240  Biso   1.000  H
  C8       1.0000 0.82190  0.69450  0.09260  Biso   1.000  C
  H5       1.0000 0.87790  0.74270  0.06460  Biso   1.000  H
  H6       1.0000 0.83410  0.65920  0.14180  Biso   1.000  H
  C9       1.0000 0.73600  0.80400  0.04800  Biso   1.000  C
  H7       1.0000 0.74140  0.78620  0.97940  Biso   1.000  H
  H8       1.0000 0.78150  0.86570  0.05890  Biso   1.000  H
  H9       1.0000 0.67770  0.79710  0.05750  Biso   1.000  H
  S1       1.0000 0.75240  0.73210  0.14170  Biso   1.000  S
  C10      1.0000 0.31300  0.50020  0.14410  Biso   1.000  C
  H10      1.0000 0.36940  0.51680  0.17860  Biso   1.000  H
  H11      1.0000 0.26600  0.44790  0.17940  Biso   1.000  H
  C11      1.0000 0.29500  0.57220  0.15680  Biso   1.000  C
  H12      1.0000 0.24720  0.56710  0.11230  Biso   1.000  H
  H13      1.0000 0.34830  0.63110  0.14960  Biso   1.000  H
  S2       1.0000 0.25930  0.54220  0.29110  Biso   1.000  S
  Hg1      1.0000 0.74430  0.76070  0.32500  Biso   1.000  Hg
  Cl1      1.0000 0.58850  0.73260  0.38910  Biso   1.000  Cl
  Cl2      1.0000 0.89840  0.77920  0.37010  Biso   1.000  Cl
  Cl3      1.0000 0.80560  0.86190  0.22720  Biso   1.000  Cl
  Hg2      1.0000 0.19310  0.35400  0.24390  Biso   1.000  Hg
  Cu3      1.0000 0.57536  0.13300  0.13860  Biso   1.000  Cu
  Cu4      1.0000 0.58095  0.13378  0.39090  Biso   1.000  Cu
  O8       1.0000 0.63870  0.17020  0.26200  Biso   1.000  O
  N3       1.0000 0.49020  0.09430  0.03600  Biso   1.000  N
  N4       1.0000 0.49670  0.90220  0.00800  Biso   1.000  N
  O9       1.0000 0.43920  0.76380  0.89400  Biso   1.000  O
  O10      1.0000 0.55810  0.23510  0.13600  Biso   1.000  O
  O11      1.0000 0.42910  0.98150  0.90900  Biso   1.000  O
  O12      1.0000 0.50800  0.70720  0.98200  Biso   1.000  O
  O13      1.0000 0.49180  0.29540  0.05000  Biso   1.000  O
  O14      1.0000 0.57250  0.01650  0.11500  Biso   1.000  O
  C12      1.0000 0.47390  0.02030  0.99000  Biso   1.000  C
  C13      1.0000 0.51860  0.97560  0.04300  Biso   1.000  C
  C14      1.0000 0.45180  0.14840  0.00500  Biso   1.000  C
  H14      1.0000 0.46740  0.16360  0.93240  Biso   1.000  H
  C15      1.0000 0.50400  0.22910  0.06200  Biso   1.000  C
  C16      1.0000 0.52500  0.84370  0.04270  Biso   1.000  C
  H15      1.0000 0.59140  0.87640  0.03960  Biso   1.000  H
  C17      1.0000 0.48800  0.76200  0.96000  Biso   1.000  C
  C18      1.0000 0.35980  0.11780  0.01400  Biso   1.000  C
  H16      1.0000 0.33150  0.05370  0.00390  Biso   1.000  H
  H17      1.0000 0.34610  0.14110  0.95240  Biso   1.000  H
  C19      1.0000 0.30550  0.12740  0.09260  Biso   1.000  C
  H18      1.0000 0.25730  0.13520  0.06460  Biso   1.000  H
  H19      1.0000 0.34080  0.17490  0.14180  Biso   1.000  H
  C20      1.0000 0.19600  0.93200  0.04800  Biso   1.000  C
  H20      1.0000 0.21380  0.95520  0.97940  Biso   1.000  H
  H21      1.0000 0.13430  0.91580  0.05890  Biso   1.000  H
  H22      1.0000 0.20290  0.88060  0.05750  Biso   1.000  H
  S3       1.0000 0.26790  0.02030  0.14170  Biso   1.000  S
  C21      1.0000 0.49980  0.81280  0.14410  Biso   1.000  C
  H23      1.0000 0.48320  0.85260  0.17860  Biso   1.000  H
  H24      1.0000 0.55210  0.81810  0.17940  Biso   1.000  H
  C22      1.0000 0.42780  0.72280  0.15680  Biso   1.000  C
  H25      1.0000 0.43290  0.68010  0.11230  Biso   1.000  H
  H26      1.0000 0.36890  0.71720  0.14960  Biso   1.000  H
  S4       1.0000 0.45780  0.71710  0.29110  Biso   1.000  S
  Hg3      1.0000 0.23930  0.98360  0.32500  Biso   1.000  Hg
  Cl4      1.0000 0.26740  0.85590  0.38910  Biso   1.000  Cl
  Cl5      1.0000 0.22080  0.11920  0.37010  Biso   1.000  Cl
  Cl6      1.0000 0.13810  0.94370  0.22720  Biso   1.000  Cl
  Hg4      1.0000 0.64600  0.83910  0.24390  Biso   1.000  Hg
  Cu5      1.0000 0.86700  0.44236  0.13860  Biso   1.000  Cu
  Cu6      1.0000 0.86622  0.44717  0.39090  Biso   1.000  Cu
  O15      1.0000 0.82980  0.46850  0.26200  Biso   1.000  O
  N5       1.0000 0.90570  0.39590  0.03600  Biso   1.000  N
  N6       1.0000 0.09780  0.59450  0.00800  Biso   1.000  N
  O16      1.0000 0.23620  0.67540  0.89400  Biso   1.000  O
  O17      1.0000 0.76490  0.32300  0.13600  Biso   1.000  O
  O18      1.0000 0.01850  0.44760  0.90900  Biso   1.000  O
  O19      1.0000 0.29280  0.80080  0.98200  Biso   1.000  O
  O20      1.0000 0.70460  0.19640  0.05000  Biso   1.000  O
  O21      1.0000 0.98350  0.55600  0.11500  Biso   1.000  O
  C23      1.0000 0.97970  0.45360  0.99000  Biso   1.000  C
  C24      1.0000 0.02440  0.54300  0.04300  Biso   1.000  C
  C25      1.0000 0.85160  0.30340  0.00500  Biso   1.000  C
  H27      1.0000 0.83640  0.30380  0.93240  Biso   1.000  H
  C26      1.0000 0.77090  0.27490  0.06200  Biso   1.000  C
  C27      1.0000 0.15630  0.68130  0.04270  Biso   1.000  C
  H28      1.0000 0.12360  0.71500  0.03960  Biso   1.000  H
  C28      1.0000 0.23800  0.72600  0.96000  Biso   1.000  C
  C29      1.0000 0.88220  0.24200  0.01400  Biso   1.000  C
  H29      1.0000 0.94630  0.27780  0.00390  Biso   1.000  H
  H30      1.0000 0.85890  0.20500  0.95240  Biso   1.000  H
  C30      1.0000 0.87260  0.17810  0.09260  Biso   1.000  C
  H31      1.0000 0.86480  0.12210  0.06460  Biso   1.000  H
  H32      1.0000 0.82510  0.16590  0.14180  Biso   1.000  H
  C31      1.0000 0.06800  0.26400  0.04800  Biso   1.000  C
  H33      1.0000 0.04480  0.25860  0.97940  Biso   1.000  H
  H34      1.0000 0.08420  0.21850  0.05890  Biso   1.000  H
  H35      1.0000 0.11940  0.32230  0.05750  Biso   1.000  H
  S5       1.0000 0.97970  0.24760  0.14170  Biso   1.000  S
  C32      1.0000 0.18720  0.68700  0.14410  Biso   1.000  C
  H36      1.0000 0.14740  0.63060  0.17860  Biso   1.000  H
  H37      1.0000 0.18190  0.73400  0.17940  Biso   1.000  H
  C33      1.0000 0.27720  0.70500  0.15680  Biso   1.000  C
  H38      1.0000 0.31990  0.75280  0.11230  Biso   1.000  H
  H39      1.0000 0.28280  0.65170  0.14960  Biso   1.000  H
  S6       1.0000 0.28290  0.74070  0.29110  Biso   1.000  S
  Hg5      1.0000 0.01640  0.25570  0.32500  Biso   1.000  Hg
  Cl7      1.0000 0.14410  0.41150  0.38910  Biso   1.000  Cl
  Cl8      1.0000 0.88080  0.10160  0.37010  Biso   1.000  Cl
  Cl9      1.0000 0.05630  0.19440  0.22720  Biso   1.000  Cl
  Hg6      1.0000 0.16090  0.80690  0.24390  Biso   1.000  Hg
  Cu7      1.0000 0.44236  0.57536  0.63860  Biso   1.000  Cu
  Cu8      1.0000 0.44717  0.58095  0.89090  Biso   1.000  Cu
  O22      1.0000 0.46850  0.63870  0.76200  Biso   1.000  O
  N7       1.0000 0.39590  0.49020  0.53600  Biso   1.000  N
  N8       1.0000 0.59450  0.49670  0.50800  Biso   1.000  N
  O23      1.0000 0.67540  0.43920  0.39400  Biso   1.000  O
  O24      1.0000 0.32300  0.55810  0.63600  Biso   1.000  O
  O25      1.0000 0.44760  0.42910  0.40900  Biso   1.000  O
  O26      1.0000 0.80080  0.50800  0.48200  Biso   1.000  O
  O27      1.0000 0.19640  0.49180  0.55000  Biso   1.000  O
  O28      1.0000 0.55600  0.57250  0.61500  Biso   1.000  O
  C34      1.0000 0.45360  0.47390  0.49000  Biso   1.000  C
  C35      1.0000 0.54300  0.51860  0.54300  Biso   1.000  C
  C36      1.0000 0.30340  0.45180  0.50500  Biso   1.000  C
  H40      1.0000 0.30380  0.46740  0.43240  Biso   1.000  H
  C37      1.0000 0.27490  0.50400  0.56200  Biso   1.000  C
  C38      1.0000 0.68130  0.52500  0.54270  Biso   1.000  C
  H41      1.0000 0.71500  0.59140  0.53960  Biso   1.000  H
  C39      1.0000 0.72600  0.48800  0.46000  Biso   1.000  C
  C40      1.0000 0.24200  0.35980  0.51400  Biso   1.000  C
  H42      1.0000 0.27780  0.33150  0.50390  Biso   1.000  H
  H43      1.0000 0.20500  0.34610  0.45240  Biso   1.000  H
  C41      1.0000 0.17810  0.30550  0.59260  Biso   1.000  C
  H44      1.0000 0.12210  0.25730  0.56460  Biso   1.000  H
  H45      1.0000 0.16590  0.34080  0.64180  Biso   1.000  H
  C42      1.0000 0.26400  0.19600  0.54800  Biso   1.000  C
  H46      1.0000 0.25860  0.21380  0.47940  Biso   1.000  H
  H47      1.0000 0.21850  0.13430  0.55890  Biso   1.000  H
  H48      1.0000 0.32230  0.20290  0.55750  Biso   1.000  H
  S7       1.0000 0.24760  0.26790  0.64170  Biso   1.000  S
  C43      1.0000 0.68700  0.49980  0.64410  Biso   1.000  C
  H49      1.0000 0.63060  0.48320  0.67860  Biso   1.000  H
  H50      1.0000 0.73400  0.55210  0.67940  Biso   1.000  H
  C44      1.0000 0.70500  0.42780  0.65680  Biso   1.000  C
  H51      1.0000 0.75280  0.43290  0.61230  Biso   1.000  H
  H52      1.0000 0.65170  0.36890  0.64960  Biso   1.000  H
  S8       1.0000 0.74070  0.45780  0.79110  Biso   1.000  S
  Hg7      1.0000 0.25570  0.23930  0.82500  Biso   1.000  Hg
  Cl10     1.0000 0.41150  0.26740  0.88910  Biso   1.000  Cl
  Cl11     1.0000 0.10160  0.22080  0.87010  Biso   1.000  Cl
  Cl12     1.0000 0.19440  0.13810  0.72720  Biso   1.000  Cl
  Hg8      1.0000 0.80690  0.64600  0.74390  Biso   1.000  Hg
  Cu9      1.0000 0.42464  0.86700  0.63860  Biso   1.000  Cu
  Cu10     1.0000 0.41905  0.86622  0.89090  Biso   1.000  Cu
  O29      1.0000 0.36130  0.82980  0.76200  Biso   1.000  O
  N9       1.0000 0.50980  0.90570  0.53600  Biso   1.000  N
  N10      1.0000 0.50330  0.09780  0.50800  Biso   1.000  N
  O30      1.0000 0.56080  0.23620  0.39400  Biso   1.000  O
  O31      1.0000 0.44190  0.76490  0.63600  Biso   1.000  O
  O32      1.0000 0.57090  0.01850  0.40900  Biso   1.000  O
  O33      1.0000 0.49200  0.29280  0.48200  Biso   1.000  O
  O34      1.0000 0.50820  0.70460  0.55000  Biso   1.000  O
  O35      1.0000 0.42750  0.98350  0.61500  Biso   1.000  O
  C45      1.0000 0.52610  0.97970  0.49000  Biso   1.000  C
  C46      1.0000 0.48140  0.02440  0.54300  Biso   1.000  C
  C47      1.0000 0.54820  0.85160  0.50500  Biso   1.000  C
  H53      1.0000 0.53260  0.83640  0.43240  Biso   1.000  H
  C48      1.0000 0.49600  0.77090  0.56200  Biso   1.000  C
  C49      1.0000 0.47500  0.15630  0.54270  Biso   1.000  C
  H54      1.0000 0.40860  0.12360  0.53960  Biso   1.000  H
  C50      1.0000 0.51200  0.23800  0.46000  Biso   1.000  C
  C51      1.0000 0.64020  0.88220  0.51400  Biso   1.000  C
  H55      1.0000 0.66850  0.94630  0.50390  Biso   1.000  H
  H56      1.0000 0.65390  0.85890  0.45240  Biso   1.000  H
  C52      1.0000 0.69450  0.87260  0.59260  Biso   1.000  C
  H57      1.0000 0.74270  0.86480  0.56460  Biso   1.000  H
  H58      1.0000 0.65920  0.82510  0.64180  Biso   1.000  H
  C53      1.0000 0.80400  0.06800  0.54800  Biso   1.000  C
  H59      1.0000 0.78620  0.04480  0.47940  Biso   1.000  H
  H60      1.0000 0.86570  0.08420  0.55890  Biso   1.000  H
  H61      1.0000 0.79710  0.11940  0.55750  Biso   1.000  H
  S9       1.0000 0.73210  0.97970  0.64170  Biso   1.000  S
  C54      1.0000 0.50020  0.18720  0.64410  Biso   1.000  C
  H62      1.0000 0.51680  0.14740  0.67860  Biso   1.000  H
  H63      1.0000 0.44790  0.18190  0.67940  Biso   1.000  H
  C55      1.0000 0.57220  0.27720  0.65680  Biso   1.000  C
  H64      1.0000 0.56710  0.31990  0.61230  Biso   1.000  H
  H65      1.0000 0.63110  0.28280  0.64960  Biso   1.000  H
  S10      1.0000 0.54220  0.28290  0.79110  Biso   1.000  S
  Hg9      1.0000 0.76070  0.01640  0.82500  Biso   1.000  Hg
  Cl13     1.0000 0.73260  0.14410  0.88910  Biso   1.000  Cl
  Cl14     1.0000 0.77920  0.88080  0.87010  Biso   1.000  Cl
  Cl15     1.0000 0.86190  0.05630  0.72720  Biso   1.000  Cl
  Hg10     1.0000 0.35400  0.16090  0.74390  Biso   1.000  Hg
  Cu11     1.0000 0.13300  0.55764  0.63860  Biso   1.000  Cu
  Cu12     1.0000 0.13378  0.55283  0.89090  Biso   1.000  Cu
  O36      1.0000 0.17020  0.53150  0.76200  Biso   1.000  O
  N11      1.0000 0.09430  0.60410  0.53600  Biso   1.000  N
  N12      1.0000 0.90220  0.40550  0.50800  Biso   1.000  N
  O37      1.0000 0.76380  0.32460  0.39400  Biso   1.000  O
  O38      1.0000 0.23510  0.67700  0.63600  Biso   1.000  O
  O39      1.0000 0.98150  0.55240  0.40900  Biso   1.000  O
  O40      1.0000 0.70720  0.19920  0.48200  Biso   1.000  O
  O41      1.0000 0.29540  0.80360  0.55000  Biso   1.000  O
  O42      1.0000 0.01650  0.44400  0.61500  Biso   1.000  O
  C56      1.0000 0.02030  0.54640  0.49000  Biso   1.000  C
  C57      1.0000 0.97560  0.45700  0.54300  Biso   1.000  C
  C58      1.0000 0.14840  0.69660  0.50500  Biso   1.000  C
  H66      1.0000 0.16360  0.69620  0.43240  Biso   1.000  H
  C59      1.0000 0.22910  0.72510  0.56200  Biso   1.000  C
  C60      1.0000 0.84370  0.31870  0.54270  Biso   1.000  C
  H67      1.0000 0.87640  0.28500  0.53960  Biso   1.000  H
  C61      1.0000 0.76200  0.27400  0.46000  Biso   1.000  C
  C62      1.0000 0.11780  0.75800  0.51400  Biso   1.000  C
  H68      1.0000 0.05370  0.72220  0.50390  Biso   1.000  H
  H69      1.0000 0.14110  0.79500  0.45240  Biso   1.000  H
  C63      1.0000 0.12740  0.82190  0.59260  Biso   1.000  C
  H70      1.0000 0.13520  0.87790  0.56460  Biso   1.000  H
  H71      1.0000 0.17490  0.83410  0.64180  Biso   1.000  H
  C64      1.0000 0.93200  0.73600  0.54800  Biso   1.000  C
  H72      1.0000 0.95520  0.74140  0.47940  Biso   1.000  H
  H73      1.0000 0.91580  0.78150  0.55890  Biso   1.000  H
  H74      1.0000 0.88060  0.67770  0.55750  Biso   1.000  H
  S11      1.0000 0.02030  0.75240  0.64170  Biso   1.000  S
  C65      1.0000 0.81280  0.31300  0.64410  Biso   1.000  C
  H75      1.0000 0.85260  0.36940  0.67860  Biso   1.000  H
  H76      1.0000 0.81810  0.26600  0.67940  Biso   1.000  H
  C66      1.0000 0.72280  0.29500  0.65680  Biso   1.000  C
  H77      1.0000 0.68010  0.24720  0.61230  Biso   1.000  H
  H78      1.0000 0.71720  0.34830  0.64960  Biso   1.000  H
  S12      1.0000 0.71710  0.25930  0.79110  Biso   1.000  S
  Hg11     1.0000 0.98360  0.74430  0.82500  Biso   1.000  Hg
  Cl16     1.0000 0.85590  0.58850  0.88910  Biso   1.000  Cl
  Cl17     1.0000 0.11920  0.89840  0.87010  Biso   1.000  Cl
  Cl18     1.0000 0.94370  0.80560  0.72720  Biso   1.000  Cl
  Hg12     1.0000 0.83910  0.19310  0.74390  Biso   1.000  Hg
  Ca1      1.0000 0.66667  0.33333  0.26250  Biso   1.000  Ca
  Ca2      1.0000 0.33333  0.66667  0.76250  Biso   1.000  Ca
  C67      1.0000 0.33333  0.66667  0.30200  Biso   1.000  C
  C68      1.0000 0.66667  0.33333  0.80200  Biso   1.000  C
