data_image0
_cell_length_a       30.353
_cell_length_b       4.8595
_cell_length_c       18.323
_cell_angle_alpha    90
_cell_angle_beta     118.123
_cell_angle_gamma    90

_symmetry_space_group_name_H-M    "P 1"
_symmetry_int_tables_number       1

loop_
  _symmetry_equiv_pos_as_xyz
  'x, y, z'

loop_
  _atom_site_label
  _atom_site_occupancy
  _atom_site_fract_x
  _atom_site_fract_y
  _atom_site_fract_z
  _atom_site_thermal_displace_type
  _atom_site_B_iso_or_equiv
  _atom_site_type_symbol
  C1       1.0000 0.82870  0.28800  0.09230  Biso   1.000  C
  C2       1.0000 0.88060  0.15100  0.14010  Biso   1.000  C
  H1       1.0000 0.87620  0.95060  0.13640  Biso   1.000  H
  C3       1.0000 0.91180  0.23200  0.09750  Biso   1.000  C
  H2       1.0000 0.89620  0.15860  0.04180  Biso   1.000  H
  H3       1.0000 0.91220  0.43140  0.09360  Biso   1.000  H
  C4       1.0000 0.96500  0.12700  0.14450  Biso   1.000  C
  H4       1.0000 0.96510  0.92770  0.14010  Biso   1.000  H
  H5       1.0000 0.98470  0.20130  0.11990  Biso   1.000  H
  C5       1.0000 0.96010  0.11200  0.27310  Biso   1.000  C
  H6       1.0000 0.97710  0.16800  0.33060  Biso   1.000  H
  H7       1.0000 0.95830  0.91240  0.27120  Biso   1.000  H
  C6       1.0000 0.90730  0.23300  0.23070  Biso   1.000  C
  H8       1.0000 0.88870  0.16580  0.25800  Biso   1.000  H
  H9       1.0000 0.90920  0.43150  0.23530  Biso   1.000  H
  C7       1.0000 0.02170  0.40700  0.26230  Biso   1.000  C
  C8       1.0000 0.07430  0.67500  0.37100  Biso   1.000  C
  C9       1.0000 0.07540  0.70100  0.25000  Biso   1.000  C
  C10      1.0000 0.17560  0.73400  0.71260  Biso   1.000  C
  C11      1.0000 0.13700  0.82600  0.62640  Biso   1.000  C
  H10      1.0000 0.12300  0.00090  0.63220  Biso   1.000  H
  C12      1.0000 0.16470  0.87900  0.57600  Biso   1.000  C
  H11      1.0000 0.18240  0.71410  0.57530  Biso   1.000  H
  H12      1.0000 0.18920  0.02400  0.60250  Biso   1.000  H
  C13      1.0000 0.12860  0.96500  0.48610  Biso   1.000  C
  H13      1.0000 0.11470  0.14550  0.48580  Biso   1.000  H
  H14      1.0000 0.14650  0.97580  0.45420  Biso   1.000  H
  C14      1.0000 0.06030  0.71100  0.49170  Biso   1.000  C
  H15      1.0000 0.03690  0.56240  0.46410  Biso   1.000  H
  H16      1.0000 0.04120  0.87330  0.49000  Biso   1.000  H
  C15      1.0000 0.09460  0.63100  0.58140  Biso   1.000  C
  H17      1.0000 0.07500  0.62120  0.61050  Biso   1.000  H
  H18      1.0000 0.10810  0.44940  0.58250  Biso   1.000  H
  C16      1.0000 0.20020  0.73500  0.11690  Biso   1.000  C
  C17      1.0000 0.15840  0.85800  0.12850  Biso   1.000  C
  H19      1.0000 0.14960  0.03600  0.09990  Biso   1.000  H
  C18      1.0000 0.11320  0.68400  0.09370  Biso   1.000  C
  H20      1.0000 0.12300  0.49630  0.11250  Biso   1.000  H
  H21      1.0000 0.09870  0.68430  0.03390  Biso   1.000  H
  C19      1.0000 0.07400  0.77400  0.11700  Biso   1.000  C
  H22      1.0000 0.05820  0.94090  0.08720  Biso   1.000  H
  H23      1.0000 0.04850  0.63260  0.10070  Biso   1.000  H
  C20      1.0000 0.13560  0.01200  0.24000  Biso   1.000  C
  H24      1.0000 0.14750  0.02220  0.29920  Biso   1.000  H
  H25      1.0000 0.12480  0.19350  0.21670  Biso   1.000  H
  C21      1.0000 0.17770  0.91000  0.22270  Biso   1.000  C
  H26      1.0000 0.19160  0.74140  0.25300  Biso   1.000  H
  H27      1.0000 0.20410  0.04690  0.24210  Biso   1.000  H
  N1       1.0000 0.98780  0.20600  0.23200  Biso   1.000  N
  N2       1.0000 0.03560  0.49300  0.34060  Biso   1.000  N
  N3       1.0000 0.09640  0.77100  0.33070  Biso   1.000  N
  N4       1.0000 0.03970  0.51400  0.21310  Biso   1.000  N
  N5       1.0000 0.08870  0.76600  0.44920  Biso   1.000  N
  N6       1.0000 0.09490  0.82200  0.20350  Biso   1.000  N
  O1       1.0000 0.82470  0.52600  0.10180  Biso   1.000  O
  O2       1.0000 0.79330  0.12800  0.04260  Biso   1.000  O
  O3       1.0000 0.18810  0.47400  0.71230  Biso   1.000  O
  H28      1.0000 0.20920  0.46380  0.69640  Biso   1.000  H
  O4       1.0000 0.19000  0.86800  0.77340  Biso   1.000  O
  O5       1.0000 0.24000  0.86600  0.13700  Biso   1.000  O
  O6       1.0000 0.19610  0.49500  0.09030  Biso   1.000  O
  Cd1      1.0000 0.75938  0.78000  0.08613  Biso   1.000  Cd
  C22      1.0000 0.32870  0.78800  0.09230  Biso   1.000  C
  C23      1.0000 0.38060  0.65100  0.14010  Biso   1.000  C
  H29      1.0000 0.37620  0.45060  0.13640  Biso   1.000  H
  C24      1.0000 0.41180  0.73200  0.09750  Biso   1.000  C
  H30      1.0000 0.39620  0.65860  0.04180  Biso   1.000  H
  H31      1.0000 0.41220  0.93140  0.09360  Biso   1.000  H
  C25      1.0000 0.46500  0.62700  0.14450  Biso   1.000  C
  H32      1.0000 0.46510  0.42770  0.14010  Biso   1.000  H
  H33      1.0000 0.48470  0.70130  0.11990  Biso   1.000  H
  C26      1.0000 0.46010  0.61200  0.27310  Biso   1.000  C
  H34      1.0000 0.47710  0.66800  0.33060  Biso   1.000  H
  H35      1.0000 0.45830  0.41240  0.27120  Biso   1.000  H
  C27      1.0000 0.40730  0.73300  0.23070  Biso   1.000  C
  H36      1.0000 0.38870  0.66580  0.25800  Biso   1.000  H
  H37      1.0000 0.40920  0.93150  0.23530  Biso   1.000  H
  C28      1.0000 0.52170  0.90700  0.26230  Biso   1.000  C
  C29      1.0000 0.57430  0.17500  0.37100  Biso   1.000  C
  C30      1.0000 0.57540  0.20100  0.25000  Biso   1.000  C
  C31      1.0000 0.67560  0.23400  0.71260  Biso   1.000  C
  C32      1.0000 0.63700  0.32600  0.62640  Biso   1.000  C
  H38      1.0000 0.62300  0.50090  0.63220  Biso   1.000  H
  C33      1.0000 0.66470  0.37900  0.57600  Biso   1.000  C
  H39      1.0000 0.68240  0.21410  0.57530  Biso   1.000  H
  H40      1.0000 0.68920  0.52400  0.60250  Biso   1.000  H
  C34      1.0000 0.62860  0.46500  0.48610  Biso   1.000  C
  H41      1.0000 0.61470  0.64550  0.48580  Biso   1.000  H
  H42      1.0000 0.64650  0.47580  0.45420  Biso   1.000  H
  C35      1.0000 0.56030  0.21100  0.49170  Biso   1.000  C
  H43      1.0000 0.53690  0.06240  0.46410  Biso   1.000  H
  H44      1.0000 0.54120  0.37330  0.49000  Biso   1.000  H
  C36      1.0000 0.59460  0.13100  0.58140  Biso   1.000  C
  H45      1.0000 0.57500  0.12120  0.61050  Biso   1.000  H
  H46      1.0000 0.60810  0.94940  0.58250  Biso   1.000  H
  C37      1.0000 0.70020  0.23500  0.11690  Biso   1.000  C
  C38      1.0000 0.65840  0.35800  0.12850  Biso   1.000  C
  H47      1.0000 0.64960  0.53600  0.09990  Biso   1.000  H
  C39      1.0000 0.61320  0.18400  0.09370  Biso   1.000  C
  H48      1.0000 0.62300  0.99630  0.11250  Biso   1.000  H
  H49      1.0000 0.59870  0.18430  0.03390  Biso   1.000  H
  C40      1.0000 0.57400  0.27400  0.11700  Biso   1.000  C
  H50      1.0000 0.55820  0.44090  0.08720  Biso   1.000  H
  H51      1.0000 0.54850  0.13260  0.10070  Biso   1.000  H
  C41      1.0000 0.63560  0.51200  0.24000  Biso   1.000  C
  H52      1.0000 0.64750  0.52220  0.29920  Biso   1.000  H
  H53      1.0000 0.62480  0.69350  0.21670  Biso   1.000  H
  C42      1.0000 0.67770  0.41000  0.22270  Biso   1.000  C
  H54      1.0000 0.69160  0.24140  0.25300  Biso   1.000  H
  H55      1.0000 0.70410  0.54690  0.24210  Biso   1.000  H
  N7       1.0000 0.48780  0.70600  0.23200  Biso   1.000  N
  N8       1.0000 0.53560  0.99300  0.34060  Biso   1.000  N
  N9       1.0000 0.59640  0.27100  0.33070  Biso   1.000  N
  N10      1.0000 0.53970  0.01400  0.21310  Biso   1.000  N
  N11      1.0000 0.58870  0.26600  0.44920  Biso   1.000  N
  N12      1.0000 0.59490  0.32200  0.20350  Biso   1.000  N
  O7       1.0000 0.32470  0.02600  0.10180  Biso   1.000  O
  O8       1.0000 0.29330  0.62800  0.04260  Biso   1.000  O
  O9       1.0000 0.68810  0.97400  0.71230  Biso   1.000  O
  H56      1.0000 0.70920  0.96380  0.69640  Biso   1.000  H
  O10      1.0000 0.69000  0.36800  0.77340  Biso   1.000  O
  O11      1.0000 0.74000  0.36600  0.13700  Biso   1.000  O
  O12      1.0000 0.69610  0.99500  0.09030  Biso   1.000  O
  Cd2      1.0000 0.25938  0.28000  0.08613  Biso   1.000  Cd
  C43      1.0000 0.17130  0.28800  0.90770  Biso   1.000  C
  C44      1.0000 0.11940  0.15100  0.85990  Biso   1.000  C
  H57      1.0000 0.12380  0.95060  0.86360  Biso   1.000  H
  C45      1.0000 0.08820  0.23200  0.90250  Biso   1.000  C
  H58      1.0000 0.10380  0.15860  0.95820  Biso   1.000  H
  H59      1.0000 0.08780  0.43140  0.90640  Biso   1.000  H
  C46      1.0000 0.03500  0.12700  0.85550  Biso   1.000  C
  H60      1.0000 0.03490  0.92770  0.85990  Biso   1.000  H
  H61      1.0000 0.01530  0.20130  0.88010  Biso   1.000  H
  C47      1.0000 0.03990  0.11200  0.72690  Biso   1.000  C
  H62      1.0000 0.02290  0.16800  0.66940  Biso   1.000  H
  H63      1.0000 0.04170  0.91240  0.72880  Biso   1.000  H
  C48      1.0000 0.09270  0.23300  0.76930  Biso   1.000  C
  H64      1.0000 0.11130  0.16580  0.74200  Biso   1.000  H
  H65      1.0000 0.09080  0.43150  0.76470  Biso   1.000  H
  C49      1.0000 0.97830  0.40700  0.73770  Biso   1.000  C
  C50      1.0000 0.92570  0.67500  0.62900  Biso   1.000  C
  C51      1.0000 0.92460  0.70100  0.75000  Biso   1.000  C
  C52      1.0000 0.82440  0.73400  0.28740  Biso   1.000  C
  C53      1.0000 0.86300  0.82600  0.37360  Biso   1.000  C
  H66      1.0000 0.87700  0.00090  0.36780  Biso   1.000  H
  C54      1.0000 0.83530  0.87900  0.42400  Biso   1.000  C
  H67      1.0000 0.81760  0.71410  0.42470  Biso   1.000  H
  H68      1.0000 0.81080  0.02400  0.39750  Biso   1.000  H
  C55      1.0000 0.87140  0.96500  0.51390  Biso   1.000  C
  H69      1.0000 0.88530  0.14550  0.51420  Biso   1.000  H
  H70      1.0000 0.85350  0.97580  0.54580  Biso   1.000  H
  C56      1.0000 0.93970  0.71100  0.50830  Biso   1.000  C
  H71      1.0000 0.96310  0.56240  0.53590  Biso   1.000  H
  H72      1.0000 0.95880  0.87330  0.51000  Biso   1.000  H
  C57      1.0000 0.90540  0.63100  0.41860  Biso   1.000  C
  H73      1.0000 0.92500  0.62120  0.38950  Biso   1.000  H
  H74      1.0000 0.89190  0.44940  0.41750  Biso   1.000  H
  C58      1.0000 0.79980  0.73500  0.88310  Biso   1.000  C
  C59      1.0000 0.84160  0.85800  0.87150  Biso   1.000  C
  H75      1.0000 0.85040  0.03600  0.90010  Biso   1.000  H
  C60      1.0000 0.88680  0.68400  0.90630  Biso   1.000  C
  H76      1.0000 0.87700  0.49630  0.88750  Biso   1.000  H
  H77      1.0000 0.90130  0.68430  0.96610  Biso   1.000  H
  C61      1.0000 0.92600  0.77400  0.88300  Biso   1.000  C
  H78      1.0000 0.94180  0.94090  0.91280  Biso   1.000  H
  H79      1.0000 0.95150  0.63260  0.89930  Biso   1.000  H
  C62      1.0000 0.86440  0.01200  0.76000  Biso   1.000  C
  H80      1.0000 0.85250  0.02220  0.70080  Biso   1.000  H
  H81      1.0000 0.87520  0.19350  0.78330  Biso   1.000  H
  C63      1.0000 0.82230  0.91000  0.77730  Biso   1.000  C
  H82      1.0000 0.80840  0.74140  0.74700  Biso   1.000  H
  H83      1.0000 0.79590  0.04690  0.75790  Biso   1.000  H
  N13      1.0000 0.01220  0.20600  0.76800  Biso   1.000  N
  N14      1.0000 0.96440  0.49300  0.65940  Biso   1.000  N
  N15      1.0000 0.90360  0.77100  0.66930  Biso   1.000  N
  N16      1.0000 0.96030  0.51400  0.78690  Biso   1.000  N
  N17      1.0000 0.91130  0.76600  0.55080  Biso   1.000  N
  N18      1.0000 0.90510  0.82200  0.79650  Biso   1.000  N
  O13      1.0000 0.17530  0.52600  0.89820  Biso   1.000  O
  O14      1.0000 0.20670  0.12800  0.95740  Biso   1.000  O
  O15      1.0000 0.81190  0.47400  0.28770  Biso   1.000  O
  H84      1.0000 0.79080  0.46380  0.30360  Biso   1.000  H
  O16      1.0000 0.81000  0.86800  0.22660  Biso   1.000  O
  O17      1.0000 0.76000  0.86600  0.86300  Biso   1.000  O
  O18      1.0000 0.80390  0.49500  0.90970  Biso   1.000  O
  Cd3      1.0000 0.24062  0.78000  0.91387  Biso   1.000  Cd
  C64      1.0000 0.67130  0.78800  0.90770  Biso   1.000  C
  C65      1.0000 0.61940  0.65100  0.85990  Biso   1.000  C
  H85      1.0000 0.62380  0.45060  0.86360  Biso   1.000  H
  C66      1.0000 0.58820  0.73200  0.90250  Biso   1.000  C
  H86      1.0000 0.60380  0.65860  0.95820  Biso   1.000  H
  H87      1.0000 0.58780  0.93140  0.90640  Biso   1.000  H
  C67      1.0000 0.53500  0.62700  0.85550  Biso   1.000  C
  H88      1.0000 0.53490  0.42770  0.85990  Biso   1.000  H
  H89      1.0000 0.51530  0.70130  0.88010  Biso   1.000  H
  C68      1.0000 0.53990  0.61200  0.72690  Biso   1.000  C
  H90      1.0000 0.52290  0.66800  0.66940  Biso   1.000  H
  H91      1.0000 0.54170  0.41240  0.72880  Biso   1.000  H
  C69      1.0000 0.59270  0.73300  0.76930  Biso   1.000  C
  H92      1.0000 0.61130  0.66580  0.74200  Biso   1.000  H
  H93      1.0000 0.59080  0.93150  0.76470  Biso   1.000  H
  C70      1.0000 0.47830  0.90700  0.73770  Biso   1.000  C
  C71      1.0000 0.42570  0.17500  0.62900  Biso   1.000  C
  C72      1.0000 0.42460  0.20100  0.75000  Biso   1.000  C
  C73      1.0000 0.32440  0.23400  0.28740  Biso   1.000  C
  C74      1.0000 0.36300  0.32600  0.37360  Biso   1.000  C
  H94      1.0000 0.37700  0.50090  0.36780  Biso   1.000  H
  C75      1.0000 0.33530  0.37900  0.42400  Biso   1.000  C
  H95      1.0000 0.31760  0.21410  0.42470  Biso   1.000  H
  H96      1.0000 0.31080  0.52400  0.39750  Biso   1.000  H
  C76      1.0000 0.37140  0.46500  0.51390  Biso   1.000  C
  H97      1.0000 0.38530  0.64550  0.51420  Biso   1.000  H
  H98      1.0000 0.35350  0.47580  0.54580  Biso   1.000  H
  C77      1.0000 0.43970  0.21100  0.50830  Biso   1.000  C
  H99      1.0000 0.46310  0.06240  0.53590  Biso   1.000  H
  H100     1.0000 0.45880  0.37330  0.51000  Biso   1.000  H
  C78      1.0000 0.40540  0.13100  0.41860  Biso   1.000  C
  H101     1.0000 0.42500  0.12120  0.38950  Biso   1.000  H
  H102     1.0000 0.39190  0.94940  0.41750  Biso   1.000  H
  C79      1.0000 0.29980  0.23500  0.88310  Biso   1.000  C
  C80      1.0000 0.34160  0.35800  0.87150  Biso   1.000  C
  H103     1.0000 0.35040  0.53600  0.90010  Biso   1.000  H
  C81      1.0000 0.38680  0.18400  0.90630  Biso   1.000  C
  H104     1.0000 0.37700  0.99630  0.88750  Biso   1.000  H
  H105     1.0000 0.40130  0.18430  0.96610  Biso   1.000  H
  C82      1.0000 0.42600  0.27400  0.88300  Biso   1.000  C
  H106     1.0000 0.44180  0.44090  0.91280  Biso   1.000  H
  H107     1.0000 0.45150  0.13260  0.89930  Biso   1.000  H
  C83      1.0000 0.36440  0.51200  0.76000  Biso   1.000  C
  H108     1.0000 0.35250  0.52220  0.70080  Biso   1.000  H
  H109     1.0000 0.37520  0.69350  0.78330  Biso   1.000  H
  C84      1.0000 0.32230  0.41000  0.77730  Biso   1.000  C
  H110     1.0000 0.30840  0.24140  0.74700  Biso   1.000  H
  H111     1.0000 0.29590  0.54690  0.75790  Biso   1.000  H
  N19      1.0000 0.51220  0.70600  0.76800  Biso   1.000  N
  N20      1.0000 0.46440  0.99300  0.65940  Biso   1.000  N
  N21      1.0000 0.40360  0.27100  0.66930  Biso   1.000  N
  N22      1.0000 0.46030  0.01400  0.78690  Biso   1.000  N
  N23      1.0000 0.41130  0.26600  0.55080  Biso   1.000  N
  N24      1.0000 0.40510  0.32200  0.79650  Biso   1.000  N
  O19      1.0000 0.67530  0.02600  0.89820  Biso   1.000  O
  O20      1.0000 0.70670  0.62800  0.95740  Biso   1.000  O
  O21      1.0000 0.31190  0.97400  0.28770  Biso   1.000  O
  H112     1.0000 0.29080  0.96380  0.30360  Biso   1.000  H
  O22      1.0000 0.31000  0.36800  0.22660  Biso   1.000  O
  O23      1.0000 0.26000  0.36600  0.86300  Biso   1.000  O
  O24      1.0000 0.30390  0.99500  0.90970  Biso   1.000  O
  Cd4      1.0000 0.74062  0.28000  0.91387  Biso   1.000  Cd
