data_image0
_cell_length_a       18.368
_cell_length_b       18.368
_cell_length_c       17.964
_cell_angle_alpha    90
_cell_angle_beta     90
_cell_angle_gamma    120

_symmetry_space_group_name_H-M    "P 1"
_symmetry_int_tables_number       1

loop_
  _symmetry_equiv_pos_as_xyz
  'x, y, z'

loop_
  _atom_site_label
  _atom_site_occupancy
  _atom_site_fract_x
  _atom_site_fract_y
  _atom_site_fract_z
  _atom_site_thermal_displace_type
  _atom_site_B_iso_or_equiv
  _atom_site_type_symbol
  O1       1.0000 0.31760  0.22430  0.84260  Biso   1.000  O
  Zn1      1.0000 0.24313  0.34157  0.67044  Biso   1.000  Zn
  C1       1.0000 0.27920  0.15740  0.80650  Biso   1.000  C
  O2       1.0000 0.21190  0.28190  0.57550  Biso   1.000  O
  O3       1.0000 0.23650  0.44200  0.65480  Biso   1.000  O
  O4       1.0000 0.15160  0.27130  0.73730  Biso   1.000  O
  C2       1.0000 0.24170  0.07590  0.84960  Biso   1.000  C
  C3       1.0000 0.30860  0.49900  0.63300  Biso   1.000  C
  C4       1.0000 0.25370  0.07600  0.92500  Biso   1.000  C
  O5       1.0000 0.36810  0.48600  0.62140  Biso   1.000  O
  C5       1.0000 0.32160  0.58590  0.62440  Biso   1.000  C
  H1       1.0000 0.28300  0.12730  0.95070  Biso   1.000  H
  C6       1.0000 0.25240  0.59870  0.62450  Biso   1.000  C
  H2       1.0000 0.19760  0.55220  0.62470  Biso   1.000  H
  O6       1.0000 0.77570  0.09330  0.84260  Biso   1.000  O
  Zn2      1.0000 0.65843  0.90156  0.67044  Biso   1.000  Zn
  C7       1.0000 0.84260  0.12180  0.80650  Biso   1.000  C
  O7       1.0000 0.71810  0.93000  0.57550  Biso   1.000  O
  O8       1.0000 0.55800  0.79450  0.65480  Biso   1.000  O
  O9       1.0000 0.72870  0.88030  0.73730  Biso   1.000  O
  C8       1.0000 0.92410  0.16580  0.84960  Biso   1.000  C
  C9       1.0000 0.50100  0.80960  0.63300  Biso   1.000  C
  C10      1.0000 0.92400  0.17770  0.92500  Biso   1.000  C
  O10      1.0000 0.51400  0.88210  0.62140  Biso   1.000  O
  C11      1.0000 0.41410  0.73570  0.62440  Biso   1.000  C
  H3       1.0000 0.87270  0.15570  0.95070  Biso   1.000  H
  C12      1.0000 0.40130  0.65370  0.62450  Biso   1.000  C
  H4       1.0000 0.44780  0.64540  0.62470  Biso   1.000  H
  O11      1.0000 0.90670  0.68240  0.84260  Biso   1.000  O
  Zn3      1.0000 0.09844  0.75687  0.67044  Biso   1.000  Zn
  C13      1.0000 0.87820  0.72080  0.80650  Biso   1.000  C
  O12      1.0000 0.07000  0.78810  0.57550  Biso   1.000  O
  O13      1.0000 0.20550  0.76350  0.65480  Biso   1.000  O
  O14      1.0000 0.11970  0.84840  0.73730  Biso   1.000  O
  C14      1.0000 0.83420  0.75830  0.84960  Biso   1.000  C
  C15      1.0000 0.19040  0.69140  0.63300  Biso   1.000  C
  C16      1.0000 0.82230  0.74630  0.92500  Biso   1.000  C
  O15      1.0000 0.11790  0.63190  0.62140  Biso   1.000  O
  C17      1.0000 0.26430  0.67840  0.62440  Biso   1.000  C
  H5       1.0000 0.84430  0.71700  0.95070  Biso   1.000  H
  C18      1.0000 0.34630  0.74760  0.62450  Biso   1.000  C
  H6       1.0000 0.35460  0.80240  0.62470  Biso   1.000  H
  O16      1.0000 0.68240  0.77570  0.34260  Biso   1.000  O
  Zn4      1.0000 0.75687  0.65843  0.17044  Biso   1.000  Zn
  C19      1.0000 0.72080  0.84260  0.30650  Biso   1.000  C
  O17      1.0000 0.78810  0.71810  0.07550  Biso   1.000  O
  O18      1.0000 0.76350  0.55800  0.15480  Biso   1.000  O
  O19      1.0000 0.84840  0.72870  0.23730  Biso   1.000  O
  C20      1.0000 0.75830  0.92410  0.34960  Biso   1.000  C
  C21      1.0000 0.69140  0.50100  0.13300  Biso   1.000  C
  C22      1.0000 0.74630  0.92400  0.42500  Biso   1.000  C
  O20      1.0000 0.63190  0.51400  0.12140  Biso   1.000  O
  C23      1.0000 0.67840  0.41410  0.12440  Biso   1.000  C
  H7       1.0000 0.71700  0.87270  0.45070  Biso   1.000  H
  C24      1.0000 0.74760  0.40130  0.12450  Biso   1.000  C
  H8       1.0000 0.80240  0.44780  0.12470  Biso   1.000  H
  O21      1.0000 0.22430  0.90670  0.34260  Biso   1.000  O
  Zn5      1.0000 0.34157  0.09844  0.17044  Biso   1.000  Zn
  C25      1.0000 0.15740  0.87820  0.30650  Biso   1.000  C
  O22      1.0000 0.28190  0.07000  0.07550  Biso   1.000  O
  O23      1.0000 0.44200  0.20550  0.15480  Biso   1.000  O
  O24      1.0000 0.27130  0.11970  0.23730  Biso   1.000  O
  C26      1.0000 0.07590  0.83420  0.34960  Biso   1.000  C
  C27      1.0000 0.49900  0.19040  0.13300  Biso   1.000  C
  C28      1.0000 0.07600  0.82230  0.42500  Biso   1.000  C
  O25      1.0000 0.48600  0.11790  0.12140  Biso   1.000  O
  C29      1.0000 0.58590  0.26430  0.12440  Biso   1.000  C
  H9       1.0000 0.12730  0.84430  0.45070  Biso   1.000  H
  C30      1.0000 0.59870  0.34630  0.12450  Biso   1.000  C
  H10      1.0000 0.55220  0.35460  0.12470  Biso   1.000  H
  O26      1.0000 0.09330  0.31760  0.34260  Biso   1.000  O
  Zn6      1.0000 0.90156  0.24313  0.17044  Biso   1.000  Zn
  C31      1.0000 0.12180  0.27920  0.30650  Biso   1.000  C
  O27      1.0000 0.93000  0.21190  0.07550  Biso   1.000  O
  O28      1.0000 0.79450  0.23650  0.15480  Biso   1.000  O
  O29      1.0000 0.88030  0.15160  0.23730  Biso   1.000  O
  C32      1.0000 0.16580  0.24170  0.34960  Biso   1.000  C
  C33      1.0000 0.80960  0.30860  0.13300  Biso   1.000  C
  C34      1.0000 0.17770  0.25370  0.42500  Biso   1.000  C
  O30      1.0000 0.88210  0.36810  0.12140  Biso   1.000  O
  C35      1.0000 0.73570  0.32160  0.12440  Biso   1.000  C
  H11      1.0000 0.15570  0.28300  0.45070  Biso   1.000  H
  C36      1.0000 0.65370  0.25240  0.12450  Biso   1.000  C
  H12      1.0000 0.64540  0.19760  0.12470  Biso   1.000  H
  O31      1.0000 0.77570  0.68240  0.34260  Biso   1.000  O
  Zn7      1.0000 0.65843  0.75687  0.17044  Biso   1.000  Zn
  C37      1.0000 0.84260  0.72080  0.30650  Biso   1.000  C
  O32      1.0000 0.71810  0.78810  0.07550  Biso   1.000  O
  O33      1.0000 0.55800  0.76350  0.15480  Biso   1.000  O
  O34      1.0000 0.72870  0.84840  0.23730  Biso   1.000  O
  C38      1.0000 0.92410  0.75830  0.34960  Biso   1.000  C
  C39      1.0000 0.50100  0.69140  0.13300  Biso   1.000  C
  C40      1.0000 0.92400  0.74630  0.42500  Biso   1.000  C
  O35      1.0000 0.51400  0.63190  0.12140  Biso   1.000  O
  C41      1.0000 0.41410  0.67840  0.12440  Biso   1.000  C
  H13      1.0000 0.87270  0.71700  0.45070  Biso   1.000  H
  C42      1.0000 0.40130  0.74760  0.12450  Biso   1.000  C
  H14      1.0000 0.44780  0.80240  0.12470  Biso   1.000  H
  O36      1.0000 0.90670  0.22430  0.34260  Biso   1.000  O
  Zn8      1.0000 0.09844  0.34157  0.17044  Biso   1.000  Zn
  C43      1.0000 0.87820  0.15740  0.30650  Biso   1.000  C
  O37      1.0000 0.07000  0.28190  0.07550  Biso   1.000  O
  O38      1.0000 0.20550  0.44200  0.15480  Biso   1.000  O
  O39      1.0000 0.11970  0.27130  0.23730  Biso   1.000  O
  C44      1.0000 0.83420  0.07590  0.34960  Biso   1.000  C
  C45      1.0000 0.19040  0.49900  0.13300  Biso   1.000  C
  C46      1.0000 0.82230  0.07600  0.42500  Biso   1.000  C
  O40      1.0000 0.11790  0.48600  0.12140  Biso   1.000  O
  C47      1.0000 0.26430  0.58590  0.12440  Biso   1.000  C
  H15      1.0000 0.84430  0.12730  0.45070  Biso   1.000  H
  C48      1.0000 0.34630  0.59870  0.12450  Biso   1.000  C
  H16      1.0000 0.35460  0.55220  0.12470  Biso   1.000  H
  O41      1.0000 0.31760  0.09330  0.34260  Biso   1.000  O
  Zn9      1.0000 0.24313  0.90156  0.17044  Biso   1.000  Zn
  C49      1.0000 0.27920  0.12180  0.30650  Biso   1.000  C
  O42      1.0000 0.21190  0.93000  0.07550  Biso   1.000  O
  O43      1.0000 0.23650  0.79450  0.15480  Biso   1.000  O
  O44      1.0000 0.15160  0.88030  0.23730  Biso   1.000  O
  C50      1.0000 0.24170  0.16580  0.34960  Biso   1.000  C
  C51      1.0000 0.30860  0.80960  0.13300  Biso   1.000  C
  C52      1.0000 0.25370  0.17770  0.42500  Biso   1.000  C
  O45      1.0000 0.36810  0.88210  0.12140  Biso   1.000  O
  C53      1.0000 0.32160  0.73570  0.12440  Biso   1.000  C
  H17      1.0000 0.28300  0.15570  0.45070  Biso   1.000  H
  C54      1.0000 0.25240  0.65370  0.12450  Biso   1.000  C
  H18      1.0000 0.19760  0.64540  0.12470  Biso   1.000  H
  O46      1.0000 0.22430  0.31760  0.84260  Biso   1.000  O
  Zn10     1.0000 0.34157  0.24313  0.67044  Biso   1.000  Zn
  C55      1.0000 0.15740  0.27920  0.80650  Biso   1.000  C
  O47      1.0000 0.28190  0.21190  0.57550  Biso   1.000  O
  O48      1.0000 0.44200  0.23650  0.65480  Biso   1.000  O
  O49      1.0000 0.27130  0.15160  0.73730  Biso   1.000  O
  C56      1.0000 0.07590  0.24170  0.84960  Biso   1.000  C
  C57      1.0000 0.49900  0.30860  0.63300  Biso   1.000  C
  C58      1.0000 0.07600  0.25370  0.92500  Biso   1.000  C
  O50      1.0000 0.48600  0.36810  0.62140  Biso   1.000  O
  C59      1.0000 0.58590  0.32160  0.62440  Biso   1.000  C
  H19      1.0000 0.12730  0.28300  0.95070  Biso   1.000  H
  C60      1.0000 0.59870  0.25240  0.62450  Biso   1.000  C
  H20      1.0000 0.55220  0.19760  0.62470  Biso   1.000  H
  O51      1.0000 0.09330  0.77570  0.84260  Biso   1.000  O
  Zn11     1.0000 0.90156  0.65843  0.67044  Biso   1.000  Zn
  C61      1.0000 0.12180  0.84260  0.80650  Biso   1.000  C
  O52      1.0000 0.93000  0.71810  0.57550  Biso   1.000  O
  O53      1.0000 0.79450  0.55800  0.65480  Biso   1.000  O
  O54      1.0000 0.88030  0.72870  0.73730  Biso   1.000  O
  C62      1.0000 0.16580  0.92410  0.84960  Biso   1.000  C
  C63      1.0000 0.80960  0.50100  0.63300  Biso   1.000  C
  C64      1.0000 0.17770  0.92400  0.92500  Biso   1.000  C
  O55      1.0000 0.88210  0.51400  0.62140  Biso   1.000  O
  C65      1.0000 0.73570  0.41410  0.62440  Biso   1.000  C
  H21      1.0000 0.15570  0.87270  0.95070  Biso   1.000  H
  C66      1.0000 0.65370  0.40130  0.62450  Biso   1.000  C
  H22      1.0000 0.64540  0.44780  0.62470  Biso   1.000  H
  O56      1.0000 0.68240  0.90670  0.84260  Biso   1.000  O
  Zn12     1.0000 0.75687  0.09844  0.67044  Biso   1.000  Zn
  C67      1.0000 0.72080  0.87820  0.80650  Biso   1.000  C
  O57      1.0000 0.78810  0.07000  0.57550  Biso   1.000  O
  O58      1.0000 0.76350  0.20550  0.65480  Biso   1.000  O
  O59      1.0000 0.84840  0.11970  0.73730  Biso   1.000  O
  C68      1.0000 0.75830  0.83420  0.84960  Biso   1.000  C
  C69      1.0000 0.69140  0.19040  0.63300  Biso   1.000  C
  C70      1.0000 0.74630  0.82230  0.92500  Biso   1.000  C
  O60      1.0000 0.63190  0.11790  0.62140  Biso   1.000  O
  C71      1.0000 0.67840  0.26430  0.62440  Biso   1.000  C
  H23      1.0000 0.71700  0.84430  0.95070  Biso   1.000  H
  C72      1.0000 0.74760  0.34630  0.62450  Biso   1.000  C
  H24      1.0000 0.80240  0.35460  0.62470  Biso   1.000  H
  Zn13     1.0000 0.34910  0.34910  0.82824  Biso   1.000  Zn
  O61      1.0000 0.34350  0.34350  0.71270  Biso   1.000  O
  C73      1.0000 0.23910  0.23910  0.54520  Biso   1.000  C
  C74      1.0000 0.22240  0.22240  0.46420  Biso   1.000  C
  Zn14     1.0000 0.65090  0.00000  0.82824  Biso   1.000  Zn
  O62      1.0000 0.65650  0.00000  0.71270  Biso   1.000  O
  C75      1.0000 0.76090  0.00000  0.54520  Biso   1.000  C
  C76      1.0000 0.77760  0.00000  0.46420  Biso   1.000  C
  Zn15     1.0000 0.00000  0.65090  0.82824  Biso   1.000  Zn
  O63      1.0000 0.00000  0.65650  0.71270  Biso   1.000  O
  C77      1.0000 0.00000  0.76090  0.54520  Biso   1.000  C
  C78      1.0000 0.00000  0.77760  0.46420  Biso   1.000  C
  Zn16     1.0000 0.65090  0.65090  0.32824  Biso   1.000  Zn
  O64      1.0000 0.65650  0.65650  0.21270  Biso   1.000  O
  C79      1.0000 0.76090  0.76090  0.04520  Biso   1.000  C
  C80      1.0000 0.77760  0.77760  0.96420  Biso   1.000  C
  Zn17     1.0000 0.34910  0.00000  0.32824  Biso   1.000  Zn
  O65      1.0000 0.34350  0.00000  0.21270  Biso   1.000  O
  C81      1.0000 0.23910  0.00000  0.04520  Biso   1.000  C
  C82      1.0000 0.22240  0.00000  0.96420  Biso   1.000  C
  Zn18     1.0000 0.00000  0.34910  0.32824  Biso   1.000  Zn
  O66      1.0000 0.00000  0.34350  0.21270  Biso   1.000  O
  C83      1.0000 0.00000  0.23910  0.04520  Biso   1.000  C
  C84      1.0000 0.00000  0.22240  0.96420  Biso   1.000  C
  C85      1.0000 0.19770  0.00000  0.81110  Biso   1.000  C
  H25      1.0000 0.18960  0.00000  0.75950  Biso   1.000  H
  C86      1.0000 0.00000  0.19770  0.81110  Biso   1.000  C
  H26      1.0000 0.00000  0.18960  0.75950  Biso   1.000  H
  C87      1.0000 0.80230  0.80230  0.81110  Biso   1.000  C
  H27      1.0000 0.81040  0.81040  0.75950  Biso   1.000  H
  C88      1.0000 0.80230  0.00000  0.31110  Biso   1.000  C
  H28      1.0000 0.81040  0.00000  0.25950  Biso   1.000  H
  C89      1.0000 0.00000  0.80230  0.31110  Biso   1.000  C
  H29      1.0000 0.00000  0.81040  0.25950  Biso   1.000  H
  C90      1.0000 0.19770  0.19770  0.31110  Biso   1.000  C
  H30      1.0000 0.18960  0.18960  0.25950  Biso   1.000  H
