data_image0
_cell_length_a       18.389
_cell_length_b       18.389
_cell_length_c       17.969
_cell_angle_alpha    90
_cell_angle_beta     90
_cell_angle_gamma    120

_symmetry_space_group_name_H-M    "P 1"
_symmetry_int_tables_number       1

loop_
  _symmetry_equiv_pos_as_xyz
  'x, y, z'

loop_
  _atom_site_label
  _atom_site_occupancy
  _atom_site_fract_x
  _atom_site_fract_y
  _atom_site_fract_z
  _atom_site_thermal_displace_type
  _atom_site_B_iso_or_equiv
  _atom_site_type_symbol
  Zn1      1.0000 0.75691  0.65858  0.33316  Biso   1.000  Zn
  O1       1.0000 0.78770  0.71860  0.42930  Biso   1.000  O
  O2       1.0000 0.76030  0.55680  0.34990  Biso   1.000  O
  O3       1.0000 0.87990  0.72900  0.76690  Biso   1.000  O
  C1       1.0000 0.69170  0.50370  0.37070  Biso   1.000  C
  O4       1.0000 0.90700  0.68440  0.66270  Biso   1.000  O
  O5       1.0000 0.63110  0.51300  0.38090  Biso   1.000  O
  C2       1.0000 0.67750  0.41320  0.37700  Biso   1.000  C
  C3       1.0000 0.82210  0.74630  0.57760  Biso   1.000  C
  C4       1.0000 0.74740  0.40100  0.37720  Biso   1.000  C
  H1       1.0000 0.84430  0.71760  0.55130  Biso   1.000  H
  C5       1.0000 0.83350  0.75660  0.65400  Biso   1.000  C
  H2       1.0000 0.80210  0.44750  0.37750  Biso   1.000  H
  C6       1.0000 0.87700  0.72180  0.69680  Biso   1.000  C
  Zn2      1.0000 0.34142  0.09833  0.33316  Biso   1.000  Zn
  O6       1.0000 0.28140  0.06910  0.42930  Biso   1.000  O
  O7       1.0000 0.44320  0.20350  0.34990  Biso   1.000  O
  O8       1.0000 0.27100  0.15090  0.76690  Biso   1.000  O
  C7       1.0000 0.49630  0.18800  0.37070  Biso   1.000  C
  O9       1.0000 0.31560  0.22260  0.66270  Biso   1.000  O
  O10      1.0000 0.48700  0.11810  0.38090  Biso   1.000  O
  C8       1.0000 0.58680  0.26430  0.37700  Biso   1.000  C
  C9       1.0000 0.25370  0.07580  0.57760  Biso   1.000  C
  C10      1.0000 0.59900  0.34640  0.37720  Biso   1.000  C
  H3       1.0000 0.28240  0.12670  0.55130  Biso   1.000  H
  C11      1.0000 0.24340  0.07690  0.65400  Biso   1.000  C
  H4       1.0000 0.55250  0.35460  0.37750  Biso   1.000  H
  C12      1.0000 0.27820  0.15520  0.69680  Biso   1.000  C
  Zn3      1.0000 0.90167  0.24309  0.33316  Biso   1.000  Zn
  O11      1.0000 0.93090  0.21230  0.42930  Biso   1.000  O
  O12      1.0000 0.79650  0.23970  0.34990  Biso   1.000  O
  O13      1.0000 0.84910  0.12010  0.76690  Biso   1.000  O
  C13      1.0000 0.81200  0.30830  0.37070  Biso   1.000  C
  O14      1.0000 0.77740  0.09300  0.66270  Biso   1.000  O
  O15      1.0000 0.88190  0.36890  0.38090  Biso   1.000  O
  C14      1.0000 0.73570  0.32250  0.37700  Biso   1.000  C
  C15      1.0000 0.92420  0.17790  0.57760  Biso   1.000  C
  C16      1.0000 0.65360  0.25260  0.37720  Biso   1.000  C
  H5       1.0000 0.87330  0.15570  0.55130  Biso   1.000  H
  C17      1.0000 0.92310  0.16650  0.65400  Biso   1.000  C
  H6       1.0000 0.64540  0.19790  0.37750  Biso   1.000  H
  C18      1.0000 0.84480  0.12300  0.69680  Biso   1.000  C
  Zn4      1.0000 0.24309  0.34142  0.83316  Biso   1.000  Zn
  O16      1.0000 0.21230  0.28140  0.92930  Biso   1.000  O
  O17      1.0000 0.23970  0.44320  0.84990  Biso   1.000  O
  O18      1.0000 0.12010  0.27100  0.26690  Biso   1.000  O
  C19      1.0000 0.30830  0.49630  0.87070  Biso   1.000  C
  O19      1.0000 0.09300  0.31560  0.16270  Biso   1.000  O
  O20      1.0000 0.36890  0.48700  0.88090  Biso   1.000  O
  C20      1.0000 0.32250  0.58680  0.87700  Biso   1.000  C
  C21      1.0000 0.17790  0.25370  0.07760  Biso   1.000  C
  C22      1.0000 0.25260  0.59900  0.87720  Biso   1.000  C
  H7       1.0000 0.15570  0.28240  0.05130  Biso   1.000  H
  C23      1.0000 0.16650  0.24340  0.15400  Biso   1.000  C
  H8       1.0000 0.19790  0.55250  0.87750  Biso   1.000  H
  C24      1.0000 0.12300  0.27820  0.19680  Biso   1.000  C
  Zn5      1.0000 0.65858  0.90167  0.83316  Biso   1.000  Zn
  O21      1.0000 0.71860  0.93090  0.92930  Biso   1.000  O
  O22      1.0000 0.55680  0.79650  0.84990  Biso   1.000  O
  O23      1.0000 0.72900  0.84910  0.26690  Biso   1.000  O
  C25      1.0000 0.50370  0.81200  0.87070  Biso   1.000  C
  O24      1.0000 0.68440  0.77740  0.16270  Biso   1.000  O
  O25      1.0000 0.51300  0.88190  0.88090  Biso   1.000  O
  C26      1.0000 0.41320  0.73570  0.87700  Biso   1.000  C
  C27      1.0000 0.74630  0.92420  0.07760  Biso   1.000  C
  C28      1.0000 0.40100  0.65360  0.87720  Biso   1.000  C
  H9       1.0000 0.71760  0.87330  0.05130  Biso   1.000  H
  C29      1.0000 0.75660  0.92310  0.15400  Biso   1.000  C
  H10      1.0000 0.44750  0.64540  0.87750  Biso   1.000  H
  C30      1.0000 0.72180  0.84480  0.19680  Biso   1.000  C
  Zn6      1.0000 0.09833  0.75691  0.83316  Biso   1.000  Zn
  O26      1.0000 0.06910  0.78770  0.92930  Biso   1.000  O
  O27      1.0000 0.20350  0.76030  0.84990  Biso   1.000  O
  O28      1.0000 0.15090  0.87990  0.26690  Biso   1.000  O
  C31      1.0000 0.18800  0.69170  0.87070  Biso   1.000  C
  O29      1.0000 0.22260  0.90700  0.16270  Biso   1.000  O
  O30      1.0000 0.11810  0.63110  0.88090  Biso   1.000  O
  C32      1.0000 0.26430  0.67750  0.87700  Biso   1.000  C
  C33      1.0000 0.07580  0.82210  0.07760  Biso   1.000  C
  C34      1.0000 0.34640  0.74740  0.87720  Biso   1.000  C
  H11      1.0000 0.12670  0.84430  0.05130  Biso   1.000  H
  C35      1.0000 0.07690  0.83350  0.15400  Biso   1.000  C
  H12      1.0000 0.35460  0.80210  0.87750  Biso   1.000  H
  C36      1.0000 0.15520  0.87700  0.19680  Biso   1.000  C
  Zn7      1.0000 0.34142  0.24309  0.83316  Biso   1.000  Zn
  O31      1.0000 0.28140  0.21230  0.92930  Biso   1.000  O
  O32      1.0000 0.44320  0.23970  0.84990  Biso   1.000  O
  O33      1.0000 0.27100  0.12010  0.26690  Biso   1.000  O
  C37      1.0000 0.49630  0.30830  0.87070  Biso   1.000  C
  O34      1.0000 0.31560  0.09300  0.16270  Biso   1.000  O
  O35      1.0000 0.48700  0.36890  0.88090  Biso   1.000  O
  C38      1.0000 0.58680  0.32250  0.87700  Biso   1.000  C
  C39      1.0000 0.25370  0.17790  0.07760  Biso   1.000  C
  C40      1.0000 0.59900  0.25260  0.87720  Biso   1.000  C
  H13      1.0000 0.28240  0.15570  0.05130  Biso   1.000  H
  C41      1.0000 0.24340  0.16650  0.15400  Biso   1.000  C
  H14      1.0000 0.55250  0.19790  0.87750  Biso   1.000  H
  C42      1.0000 0.27820  0.12300  0.19680  Biso   1.000  C
  Zn8      1.0000 0.90167  0.65858  0.83316  Biso   1.000  Zn
  O36      1.0000 0.93090  0.71860  0.92930  Biso   1.000  O
  O37      1.0000 0.79650  0.55680  0.84990  Biso   1.000  O
  O38      1.0000 0.84910  0.72900  0.26690  Biso   1.000  O
  C43      1.0000 0.81200  0.50370  0.87070  Biso   1.000  C
  O39      1.0000 0.77740  0.68440  0.16270  Biso   1.000  O
  O40      1.0000 0.88190  0.51300  0.88090  Biso   1.000  O
  C44      1.0000 0.73570  0.41320  0.87700  Biso   1.000  C
  C45      1.0000 0.92420  0.74630  0.07760  Biso   1.000  C
  C46      1.0000 0.65360  0.40100  0.87720  Biso   1.000  C
  H15      1.0000 0.87330  0.71760  0.05130  Biso   1.000  H
  C47      1.0000 0.92310  0.75660  0.15400  Biso   1.000  C
  H16      1.0000 0.64540  0.44750  0.87750  Biso   1.000  H
  C48      1.0000 0.84480  0.72180  0.19680  Biso   1.000  C
  Zn9      1.0000 0.75691  0.09833  0.83316  Biso   1.000  Zn
  O41      1.0000 0.78770  0.06910  0.92930  Biso   1.000  O
  O42      1.0000 0.76030  0.20350  0.84990  Biso   1.000  O
  O43      1.0000 0.87990  0.15090  0.26690  Biso   1.000  O
  C49      1.0000 0.69170  0.18800  0.87070  Biso   1.000  C
  O44      1.0000 0.90700  0.22260  0.16270  Biso   1.000  O
  O45      1.0000 0.63110  0.11810  0.88090  Biso   1.000  O
  C50      1.0000 0.67750  0.26430  0.87700  Biso   1.000  C
  C51      1.0000 0.82210  0.07580  0.07760  Biso   1.000  C
  C52      1.0000 0.74740  0.34640  0.87720  Biso   1.000  C
  H17      1.0000 0.84430  0.12670  0.05130  Biso   1.000  H
  C53      1.0000 0.83350  0.07690  0.15400  Biso   1.000  C
  H18      1.0000 0.80210  0.35460  0.87750  Biso   1.000  H
  C54      1.0000 0.87700  0.15520  0.19680  Biso   1.000  C
  Zn10     1.0000 0.65858  0.75691  0.33316  Biso   1.000  Zn
  O46      1.0000 0.71860  0.78770  0.42930  Biso   1.000  O
  O47      1.0000 0.55680  0.76030  0.34990  Biso   1.000  O
  O48      1.0000 0.72900  0.87990  0.76690  Biso   1.000  O
  C55      1.0000 0.50370  0.69170  0.37070  Biso   1.000  C
  O49      1.0000 0.68440  0.90700  0.66270  Biso   1.000  O
  O50      1.0000 0.51300  0.63110  0.38090  Biso   1.000  O
  C56      1.0000 0.41320  0.67750  0.37700  Biso   1.000  C
  C57      1.0000 0.74630  0.82210  0.57760  Biso   1.000  C
  C58      1.0000 0.40100  0.74740  0.37720  Biso   1.000  C
  H19      1.0000 0.71760  0.84430  0.55130  Biso   1.000  H
  C59      1.0000 0.75660  0.83350  0.65400  Biso   1.000  C
  H20      1.0000 0.44750  0.80210  0.37750  Biso   1.000  H
  C60      1.0000 0.72180  0.87700  0.69680  Biso   1.000  C
  Zn11     1.0000 0.09833  0.34142  0.33316  Biso   1.000  Zn
  O51      1.0000 0.06910  0.28140  0.42930  Biso   1.000  O
  O52      1.0000 0.20350  0.44320  0.34990  Biso   1.000  O
  O53      1.0000 0.15090  0.27100  0.76690  Biso   1.000  O
  C61      1.0000 0.18800  0.49630  0.37070  Biso   1.000  C
  O54      1.0000 0.22260  0.31560  0.66270  Biso   1.000  O
  O55      1.0000 0.11810  0.48700  0.38090  Biso   1.000  O
  C62      1.0000 0.26430  0.58680  0.37700  Biso   1.000  C
  C63      1.0000 0.07580  0.25370  0.57760  Biso   1.000  C
  C64      1.0000 0.34640  0.59900  0.37720  Biso   1.000  C
  H21      1.0000 0.12670  0.28240  0.55130  Biso   1.000  H
  C65      1.0000 0.07690  0.24340  0.65400  Biso   1.000  C
  H22      1.0000 0.35460  0.55250  0.37750  Biso   1.000  H
  C66      1.0000 0.15520  0.27820  0.69680  Biso   1.000  C
  Zn12     1.0000 0.24309  0.90167  0.33316  Biso   1.000  Zn
  O56      1.0000 0.21230  0.93090  0.42930  Biso   1.000  O
  O57      1.0000 0.23970  0.79650  0.34990  Biso   1.000  O
  O58      1.0000 0.12010  0.84910  0.76690  Biso   1.000  O
  C67      1.0000 0.30830  0.81200  0.37070  Biso   1.000  C
  O59      1.0000 0.09300  0.77740  0.66270  Biso   1.000  O
  O60      1.0000 0.36890  0.88190  0.38090  Biso   1.000  O
  C68      1.0000 0.32250  0.73570  0.37700  Biso   1.000  C
  C69      1.0000 0.17790  0.92420  0.57760  Biso   1.000  C
  C70      1.0000 0.25260  0.65360  0.37720  Biso   1.000  C
  H23      1.0000 0.15570  0.87330  0.55130  Biso   1.000  H
  C71      1.0000 0.16650  0.92310  0.65400  Biso   1.000  C
  H24      1.0000 0.19790  0.64540  0.37750  Biso   1.000  H
  C72      1.0000 0.12300  0.84480  0.69680  Biso   1.000  C
  O61      1.0000 0.65710  0.65710  0.29210  Biso   1.000  O
  Co1      1.0000 0.65066  0.65066  0.17540  Biso   1.000  Co
  C73      1.0000 0.76020  0.76020  0.46040  Biso   1.000  C
  C74      1.0000 0.77800  0.77800  0.53940  Biso   1.000  C
  C75      1.0000 0.80370  0.80370  0.69210  Biso   1.000  C
  H25      1.0000 0.81525  0.81525  0.74300  Biso   1.000  H
  O62      1.0000 0.34290  0.00000  0.29210  Biso   1.000  O
  Co2      1.0000 0.34934  0.00000  0.17540  Biso   1.000  Co
  C76      1.0000 0.23980  0.00000  0.46040  Biso   1.000  C
  C77      1.0000 0.22200  0.00000  0.53940  Biso   1.000  C
  C78      1.0000 0.19630  0.00000  0.69210  Biso   1.000  C
  H26      1.0000 0.18475  0.00000  0.74300  Biso   1.000  H
  O63      1.0000 0.00000  0.34290  0.29210  Biso   1.000  O
  Co3      1.0000 0.00000  0.34934  0.17540  Biso   1.000  Co
  C79      1.0000 0.00000  0.23980  0.46040  Biso   1.000  C
  C80      1.0000 0.00000  0.22200  0.53940  Biso   1.000  C
  C81      1.0000 0.00000  0.19630  0.69210  Biso   1.000  C
  H27      1.0000 0.00000  0.18475  0.74300  Biso   1.000  H
  O64      1.0000 0.34290  0.34290  0.79210  Biso   1.000  O
  Co4      1.0000 0.34934  0.34934  0.67540  Biso   1.000  Co
  C82      1.0000 0.23980  0.23980  0.96040  Biso   1.000  C
  C83      1.0000 0.22200  0.22200  0.03940  Biso   1.000  C
  C84      1.0000 0.19630  0.19630  0.19210  Biso   1.000  C
  H28      1.0000 0.18475  0.18475  0.24300  Biso   1.000  H
  O65      1.0000 0.65710  0.00000  0.79210  Biso   1.000  O
  Co5      1.0000 0.65066  0.00000  0.67540  Biso   1.000  Co
  C85      1.0000 0.76020  0.00000  0.96040  Biso   1.000  C
  C86      1.0000 0.77800  0.00000  0.03940  Biso   1.000  C
  C87      1.0000 0.80370  0.00000  0.19210  Biso   1.000  C
  H29      1.0000 0.81525  0.00000  0.24300  Biso   1.000  H
  O66      1.0000 0.00000  0.65710  0.79210  Biso   1.000  O
  Co6      1.0000 0.00000  0.65066  0.67540  Biso   1.000  Co
  C88      1.0000 0.00000  0.76020  0.96040  Biso   1.000  C
  C89      1.0000 0.00000  0.77800  0.03940  Biso   1.000  C
  C90      1.0000 0.00000  0.80370  0.19210  Biso   1.000  C
  H30      1.0000 0.00000  0.81525  0.24300  Biso   1.000  H
