data_image0
_cell_length_a       20.328
_cell_length_b       20.328
_cell_length_c       17.91
_cell_angle_alpha    90
_cell_angle_beta     90
_cell_angle_gamma    90

_symmetry_space_group_name_H-M    "P 1"
_symmetry_int_tables_number       1

loop_
  _symmetry_equiv_pos_as_xyz
  'x, y, z'

loop_
  _atom_site_label
  _atom_site_occupancy
  _atom_site_fract_x
  _atom_site_fract_y
  _atom_site_fract_z
  _atom_site_thermal_displace_type
  _atom_site_B_iso_or_equiv
  _atom_site_type_symbol
  Zn1      1.0000 0.25841  0.11757  0.76401  Biso   1.000  Zn
  O1       1.0000 0.19410  0.17210  0.71010  Biso   1.000  O
  O2       1.0000 0.25720  0.03310  0.71190  Biso   1.000  O
  O3       1.0000 0.23300  0.13040  0.86860  Biso   1.000  O
  C1       1.0000 0.19890  0.17800  0.63920  Biso   1.000  C
  O4       1.0000 0.24560  0.15700  0.59970  Biso   1.000  O
  O5       1.0000 0.33970  0.05160  0.62960  Biso   1.000  O
  C2       1.0000 0.14270  0.21280  0.60170  Biso   1.000  C
  C3       1.0000 0.48080  0.20910  0.65330  Biso   1.000  C
  C4       1.0000 0.09000  0.23370  0.64400  Biso   1.000  C
  C5       1.0000 0.14310  0.22420  0.52390  Biso   1.000  C
  C6       1.0000 0.53910  0.23040  0.61020  Biso   1.000  C
  H1       1.0000 0.08820  0.22400  0.69470  Biso   1.000  H
  C7       1.0000 0.09280  0.25750  0.49040  Biso   1.000  C
  H2       1.0000 0.17810  0.20890  0.49530  Biso   1.000  H
  C8       1.0000 0.54110  0.21830  0.53330  Biso   1.000  C
  C9       1.0000 0.09120  0.26790  0.40770  Biso   1.000  C
  H3       1.0000 0.50770  0.19400  0.51080  Biso   1.000  H
  O6       1.0000 0.05230  0.30780  0.38040  Biso   1.000  O
  Zn2      1.0000 0.75841  0.61757  0.26401  Biso   1.000  Zn
  O7       1.0000 0.69410  0.67210  0.21010  Biso   1.000  O
  O8       1.0000 0.75720  0.53310  0.21190  Biso   1.000  O
  O9       1.0000 0.73300  0.63040  0.36860  Biso   1.000  O
  C10      1.0000 0.69890  0.67800  0.13920  Biso   1.000  C
  O10      1.0000 0.74560  0.65700  0.09970  Biso   1.000  O
  O11      1.0000 0.83970  0.55160  0.12960  Biso   1.000  O
  C11      1.0000 0.64270  0.71280  0.10170  Biso   1.000  C
  C12      1.0000 0.98080  0.70910  0.15330  Biso   1.000  C
  C13      1.0000 0.59000  0.73370  0.14400  Biso   1.000  C
  C14      1.0000 0.64310  0.72420  0.02390  Biso   1.000  C
  C15      1.0000 0.03910  0.73040  0.11020  Biso   1.000  C
  H4       1.0000 0.58820  0.72400  0.19470  Biso   1.000  H
  C16      1.0000 0.59280  0.75750  0.99040  Biso   1.000  C
  H5       1.0000 0.67810  0.70890  0.99530  Biso   1.000  H
  C17      1.0000 0.04110  0.71830  0.03330  Biso   1.000  C
  C18      1.0000 0.59120  0.76790  0.90770  Biso   1.000  C
  H6       1.0000 0.00770  0.69400  0.01080  Biso   1.000  H
  O12      1.0000 0.55230  0.80780  0.88040  Biso   1.000  O
  Zn3      1.0000 0.74159  0.88243  0.76401  Biso   1.000  Zn
  O13      1.0000 0.80590  0.82790  0.71010  Biso   1.000  O
  O14      1.0000 0.74280  0.96690  0.71190  Biso   1.000  O
  O15      1.0000 0.76700  0.86960  0.86860  Biso   1.000  O
  C19      1.0000 0.80110  0.82200  0.63920  Biso   1.000  C
  O16      1.0000 0.75440  0.84300  0.59970  Biso   1.000  O
  O17      1.0000 0.66030  0.94840  0.62960  Biso   1.000  O
  C20      1.0000 0.85730  0.78720  0.60170  Biso   1.000  C
  C21      1.0000 0.51920  0.79090  0.65330  Biso   1.000  C
  C22      1.0000 0.91000  0.76630  0.64400  Biso   1.000  C
  C23      1.0000 0.85690  0.77580  0.52390  Biso   1.000  C
  C24      1.0000 0.46090  0.76960  0.61020  Biso   1.000  C
  H7       1.0000 0.91180  0.77600  0.69470  Biso   1.000  H
  C25      1.0000 0.90720  0.74250  0.49040  Biso   1.000  C
  H8       1.0000 0.82190  0.79110  0.49530  Biso   1.000  H
  C26      1.0000 0.45890  0.78170  0.53330  Biso   1.000  C
  C27      1.0000 0.90880  0.73210  0.40770  Biso   1.000  C
  H9       1.0000 0.49230  0.80600  0.51080  Biso   1.000  H
  O18      1.0000 0.94770  0.69220  0.38040  Biso   1.000  O
  Zn4      1.0000 0.24159  0.38243  0.26401  Biso   1.000  Zn
  O19      1.0000 0.30590  0.32790  0.21010  Biso   1.000  O
  O20      1.0000 0.24280  0.46690  0.21190  Biso   1.000  O
  O21      1.0000 0.26700  0.36960  0.36860  Biso   1.000  O
  C28      1.0000 0.30110  0.32200  0.13920  Biso   1.000  C
  O22      1.0000 0.25440  0.34300  0.09970  Biso   1.000  O
  O23      1.0000 0.16030  0.44840  0.12960  Biso   1.000  O
  C29      1.0000 0.35730  0.28720  0.10170  Biso   1.000  C
  C30      1.0000 0.01920  0.29090  0.15330  Biso   1.000  C
  C31      1.0000 0.41000  0.26630  0.14400  Biso   1.000  C
  C32      1.0000 0.35690  0.27580  0.02390  Biso   1.000  C
  C33      1.0000 0.96090  0.26960  0.11020  Biso   1.000  C
  H10      1.0000 0.41180  0.27600  0.19470  Biso   1.000  H
  C34      1.0000 0.40720  0.24250  0.99040  Biso   1.000  C
  H11      1.0000 0.32190  0.29110  0.99530  Biso   1.000  H
  C35      1.0000 0.95890  0.28170  0.03330  Biso   1.000  C
  C36      1.0000 0.40880  0.23210  0.90770  Biso   1.000  C
  H12      1.0000 0.99230  0.30600  0.01080  Biso   1.000  H
  O24      1.0000 0.44770  0.19220  0.88040  Biso   1.000  O
  Zn5      1.0000 0.88243  0.25841  0.76401  Biso   1.000  Zn
  O25      1.0000 0.82790  0.19410  0.71010  Biso   1.000  O
  O26      1.0000 0.96690  0.25720  0.71190  Biso   1.000  O
  O27      1.0000 0.86960  0.23300  0.86860  Biso   1.000  O
  C37      1.0000 0.82200  0.19890  0.63920  Biso   1.000  C
  O28      1.0000 0.84300  0.24560  0.59970  Biso   1.000  O
  O29      1.0000 0.94840  0.33970  0.62960  Biso   1.000  O
  C38      1.0000 0.78720  0.14270  0.60170  Biso   1.000  C
  C39      1.0000 0.79090  0.48080  0.65330  Biso   1.000  C
  C40      1.0000 0.76630  0.09000  0.64400  Biso   1.000  C
  C41      1.0000 0.77580  0.14310  0.52390  Biso   1.000  C
  C42      1.0000 0.76960  0.53910  0.61020  Biso   1.000  C
  H13      1.0000 0.77600  0.08820  0.69470  Biso   1.000  H
  C43      1.0000 0.74250  0.09280  0.49040  Biso   1.000  C
  H14      1.0000 0.79110  0.17810  0.49530  Biso   1.000  H
  C44      1.0000 0.78170  0.54110  0.53330  Biso   1.000  C
  C45      1.0000 0.73210  0.09120  0.40770  Biso   1.000  C
  H15      1.0000 0.80600  0.50770  0.51080  Biso   1.000  H
  O30      1.0000 0.69220  0.05230  0.38040  Biso   1.000  O
  Zn6      1.0000 0.38243  0.75841  0.26401  Biso   1.000  Zn
  O31      1.0000 0.32790  0.69410  0.21010  Biso   1.000  O
  O32      1.0000 0.46690  0.75720  0.21190  Biso   1.000  O
  O33      1.0000 0.36960  0.73300  0.36860  Biso   1.000  O
  C46      1.0000 0.32200  0.69890  0.13920  Biso   1.000  C
  O34      1.0000 0.34300  0.74560  0.09970  Biso   1.000  O
  O35      1.0000 0.44840  0.83970  0.12960  Biso   1.000  O
  C47      1.0000 0.28720  0.64270  0.10170  Biso   1.000  C
  C48      1.0000 0.29090  0.98080  0.15330  Biso   1.000  C
  C49      1.0000 0.26630  0.59000  0.14400  Biso   1.000  C
  C50      1.0000 0.27580  0.64310  0.02390  Biso   1.000  C
  C51      1.0000 0.26960  0.03910  0.11020  Biso   1.000  C
  H16      1.0000 0.27600  0.58820  0.19470  Biso   1.000  H
  C52      1.0000 0.24250  0.59280  0.99040  Biso   1.000  C
  H17      1.0000 0.29110  0.67810  0.99530  Biso   1.000  H
  C53      1.0000 0.28170  0.04110  0.03330  Biso   1.000  C
  C54      1.0000 0.23210  0.59120  0.90770  Biso   1.000  C
  H18      1.0000 0.30600  0.00770  0.01080  Biso   1.000  H
  O36      1.0000 0.19220  0.55230  0.88040  Biso   1.000  O
  Zn7      1.0000 0.11757  0.74159  0.76401  Biso   1.000  Zn
  O37      1.0000 0.17210  0.80590  0.71010  Biso   1.000  O
  O38      1.0000 0.03310  0.74280  0.71190  Biso   1.000  O
  O39      1.0000 0.13040  0.76700  0.86860  Biso   1.000  O
  C55      1.0000 0.17800  0.80110  0.63920  Biso   1.000  C
  O40      1.0000 0.15700  0.75440  0.59970  Biso   1.000  O
  O41      1.0000 0.05160  0.66030  0.62960  Biso   1.000  O
  C56      1.0000 0.21280  0.85730  0.60170  Biso   1.000  C
  C57      1.0000 0.20910  0.51920  0.65330  Biso   1.000  C
  C58      1.0000 0.23370  0.91000  0.64400  Biso   1.000  C
  C59      1.0000 0.22420  0.85690  0.52390  Biso   1.000  C
  C60      1.0000 0.23040  0.46090  0.61020  Biso   1.000  C
  H19      1.0000 0.22400  0.91180  0.69470  Biso   1.000  H
  C61      1.0000 0.25750  0.90720  0.49040  Biso   1.000  C
  H20      1.0000 0.20890  0.82190  0.49530  Biso   1.000  H
  C62      1.0000 0.21830  0.45890  0.53330  Biso   1.000  C
  C63      1.0000 0.26790  0.90880  0.40770  Biso   1.000  C
  H21      1.0000 0.19400  0.49230  0.51080  Biso   1.000  H
  O42      1.0000 0.30780  0.94770  0.38040  Biso   1.000  O
  Zn8      1.0000 0.61757  0.24159  0.26401  Biso   1.000  Zn
  O43      1.0000 0.67210  0.30590  0.21010  Biso   1.000  O
  O44      1.0000 0.53310  0.24280  0.21190  Biso   1.000  O
  O45      1.0000 0.63040  0.26700  0.36860  Biso   1.000  O
  C64      1.0000 0.67800  0.30110  0.13920  Biso   1.000  C
  O46      1.0000 0.65700  0.25440  0.09970  Biso   1.000  O
  O47      1.0000 0.55160  0.16030  0.12960  Biso   1.000  O
  C65      1.0000 0.71280  0.35730  0.10170  Biso   1.000  C
  C66      1.0000 0.70910  0.01920  0.15330  Biso   1.000  C
  C67      1.0000 0.73370  0.41000  0.14400  Biso   1.000  C
  C68      1.0000 0.72420  0.35690  0.02390  Biso   1.000  C
  C69      1.0000 0.73040  0.96090  0.11020  Biso   1.000  C
  H22      1.0000 0.72400  0.41180  0.19470  Biso   1.000  H
  C70      1.0000 0.75750  0.40720  0.99040  Biso   1.000  C
  H23      1.0000 0.70890  0.32190  0.99530  Biso   1.000  H
  C71      1.0000 0.71830  0.95890  0.03330  Biso   1.000  C
  C72      1.0000 0.76790  0.40880  0.90770  Biso   1.000  C
  H24      1.0000 0.69400  0.99230  0.01080  Biso   1.000  H
  O48      1.0000 0.80780  0.44770  0.88040  Biso   1.000  O
  Zn9      1.0000 0.25841  0.88243  0.26401  Biso   1.000  Zn
  O49      1.0000 0.19410  0.82790  0.21010  Biso   1.000  O
  O50      1.0000 0.25720  0.96690  0.21190  Biso   1.000  O
  O51      1.0000 0.23300  0.86960  0.36860  Biso   1.000  O
  C73      1.0000 0.19890  0.82200  0.13920  Biso   1.000  C
  O52      1.0000 0.24560  0.84300  0.09970  Biso   1.000  O
  O53      1.0000 0.33970  0.94840  0.12960  Biso   1.000  O
  C74      1.0000 0.14270  0.78720  0.10170  Biso   1.000  C
  C75      1.0000 0.48080  0.79090  0.15330  Biso   1.000  C
  C76      1.0000 0.09000  0.76630  0.14400  Biso   1.000  C
  C77      1.0000 0.14310  0.77580  0.02390  Biso   1.000  C
  C78      1.0000 0.53910  0.76960  0.11020  Biso   1.000  C
  H25      1.0000 0.08820  0.77600  0.19470  Biso   1.000  H
  C79      1.0000 0.09280  0.74250  0.99040  Biso   1.000  C
  H26      1.0000 0.17810  0.79110  0.99530  Biso   1.000  H
  C80      1.0000 0.54110  0.78170  0.03330  Biso   1.000  C
  C81      1.0000 0.09120  0.73210  0.90770  Biso   1.000  C
  H27      1.0000 0.50770  0.80600  0.01080  Biso   1.000  H
  O54      1.0000 0.05230  0.69220  0.88040  Biso   1.000  O
  Zn10     1.0000 0.75841  0.38243  0.76401  Biso   1.000  Zn
  O55      1.0000 0.69410  0.32790  0.71010  Biso   1.000  O
  O56      1.0000 0.75720  0.46690  0.71190  Biso   1.000  O
  O57      1.0000 0.73300  0.36960  0.86860  Biso   1.000  O
  C82      1.0000 0.69890  0.32200  0.63920  Biso   1.000  C
  O58      1.0000 0.74560  0.34300  0.59970  Biso   1.000  O
  O59      1.0000 0.83970  0.44840  0.62960  Biso   1.000  O
  C83      1.0000 0.64270  0.28720  0.60170  Biso   1.000  C
  C84      1.0000 0.98080  0.29090  0.65330  Biso   1.000  C
  C85      1.0000 0.59000  0.26630  0.64400  Biso   1.000  C
  C86      1.0000 0.64310  0.27580  0.52390  Biso   1.000  C
  C87      1.0000 0.03910  0.26960  0.61020  Biso   1.000  C
  H28      1.0000 0.58820  0.27600  0.69470  Biso   1.000  H
  C88      1.0000 0.59280  0.24250  0.49040  Biso   1.000  C
  H29      1.0000 0.67810  0.29110  0.49530  Biso   1.000  H
  C89      1.0000 0.04110  0.28170  0.53330  Biso   1.000  C
  C90      1.0000 0.59120  0.23210  0.40770  Biso   1.000  C
  H30      1.0000 0.00770  0.30600  0.51080  Biso   1.000  H
  O60      1.0000 0.55230  0.19220  0.38040  Biso   1.000  O
  Zn11     1.0000 0.74159  0.11757  0.26401  Biso   1.000  Zn
  O61      1.0000 0.80590  0.17210  0.21010  Biso   1.000  O
  O62      1.0000 0.74280  0.03310  0.21190  Biso   1.000  O
  O63      1.0000 0.76700  0.13040  0.36860  Biso   1.000  O
  C91      1.0000 0.80110  0.17800  0.13920  Biso   1.000  C
  O64      1.0000 0.75440  0.15700  0.09970  Biso   1.000  O
  O65      1.0000 0.66030  0.05160  0.12960  Biso   1.000  O
  C92      1.0000 0.85730  0.21280  0.10170  Biso   1.000  C
  C93      1.0000 0.51920  0.20910  0.15330  Biso   1.000  C
  C94      1.0000 0.91000  0.23370  0.14400  Biso   1.000  C
  C95      1.0000 0.85690  0.22420  0.02390  Biso   1.000  C
  C96      1.0000 0.46090  0.23040  0.11020  Biso   1.000  C
  H31      1.0000 0.91180  0.22400  0.19470  Biso   1.000  H
  C97      1.0000 0.90720  0.25750  0.99040  Biso   1.000  C
  H32      1.0000 0.82190  0.20890  0.99530  Biso   1.000  H
  C98      1.0000 0.45890  0.21830  0.03330  Biso   1.000  C
  C99      1.0000 0.90880  0.26790  0.90770  Biso   1.000  C
  H33      1.0000 0.49230  0.19400  0.01080  Biso   1.000  H
  O66      1.0000 0.94770  0.30780  0.88040  Biso   1.000  O
  Zn12     1.0000 0.24159  0.61757  0.76401  Biso   1.000  Zn
  O67      1.0000 0.30590  0.67210  0.71010  Biso   1.000  O
  O68      1.0000 0.24280  0.53310  0.71190  Biso   1.000  O
  O69      1.0000 0.26700  0.63040  0.86860  Biso   1.000  O
  C100     1.0000 0.30110  0.67800  0.63920  Biso   1.000  C
  O70      1.0000 0.25440  0.65700  0.59970  Biso   1.000  O
  O71      1.0000 0.16030  0.55160  0.62960  Biso   1.000  O
  C101     1.0000 0.35730  0.71280  0.60170  Biso   1.000  C
  C102     1.0000 0.01920  0.70910  0.65330  Biso   1.000  C
  C103     1.0000 0.41000  0.73370  0.64400  Biso   1.000  C
  C104     1.0000 0.35690  0.72420  0.52390  Biso   1.000  C
  C105     1.0000 0.96090  0.73040  0.61020  Biso   1.000  C
  H34      1.0000 0.41180  0.72400  0.69470  Biso   1.000  H
  C106     1.0000 0.40720  0.75750  0.49040  Biso   1.000  C
  H35      1.0000 0.32190  0.70890  0.49530  Biso   1.000  H
  C107     1.0000 0.95890  0.71830  0.53330  Biso   1.000  C
  C108     1.0000 0.40880  0.76790  0.40770  Biso   1.000  C
  H36      1.0000 0.99230  0.69400  0.51080  Biso   1.000  H
  O72      1.0000 0.44770  0.80780  0.38040  Biso   1.000  O
  Zn13     1.0000 0.88243  0.74159  0.26401  Biso   1.000  Zn
  O73      1.0000 0.82790  0.80590  0.21010  Biso   1.000  O
  O74      1.0000 0.96690  0.74280  0.21190  Biso   1.000  O
  O75      1.0000 0.86960  0.76700  0.36860  Biso   1.000  O
  C109     1.0000 0.82200  0.80110  0.13920  Biso   1.000  C
  O76      1.0000 0.84300  0.75440  0.09970  Biso   1.000  O
  O77      1.0000 0.94840  0.66030  0.12960  Biso   1.000  O
  C110     1.0000 0.78720  0.85730  0.10170  Biso   1.000  C
  C111     1.0000 0.79090  0.51920  0.15330  Biso   1.000  C
  C112     1.0000 0.76630  0.91000  0.14400  Biso   1.000  C
  C113     1.0000 0.77580  0.85690  0.02390  Biso   1.000  C
  C114     1.0000 0.76960  0.46090  0.11020  Biso   1.000  C
  H37      1.0000 0.77600  0.91180  0.19470  Biso   1.000  H
  C115     1.0000 0.74250  0.90720  0.99040  Biso   1.000  C
  H38      1.0000 0.79110  0.82190  0.99530  Biso   1.000  H
  C116     1.0000 0.78170  0.45890  0.03330  Biso   1.000  C
  C117     1.0000 0.73210  0.90880  0.90770  Biso   1.000  C
  H39      1.0000 0.80600  0.49230  0.01080  Biso   1.000  H
  O78      1.0000 0.69220  0.94770  0.88040  Biso   1.000  O
  Zn14     1.0000 0.38243  0.24159  0.76401  Biso   1.000  Zn
  O79      1.0000 0.32790  0.30590  0.71010  Biso   1.000  O
  O80      1.0000 0.46690  0.24280  0.71190  Biso   1.000  O
  O81      1.0000 0.36960  0.26700  0.86860  Biso   1.000  O
  C118     1.0000 0.32200  0.30110  0.63920  Biso   1.000  C
  O82      1.0000 0.34300  0.25440  0.59970  Biso   1.000  O
  O83      1.0000 0.44840  0.16030  0.62960  Biso   1.000  O
  C119     1.0000 0.28720  0.35730  0.60170  Biso   1.000  C
  C120     1.0000 0.29090  0.01920  0.65330  Biso   1.000  C
  C121     1.0000 0.26630  0.41000  0.64400  Biso   1.000  C
  C122     1.0000 0.27580  0.35690  0.52390  Biso   1.000  C
  C123     1.0000 0.26960  0.96090  0.61020  Biso   1.000  C
  H40      1.0000 0.27600  0.41180  0.69470  Biso   1.000  H
  C124     1.0000 0.24250  0.40720  0.49040  Biso   1.000  C
  H41      1.0000 0.29110  0.32190  0.49530  Biso   1.000  H
  C125     1.0000 0.28170  0.95890  0.53330  Biso   1.000  C
  C126     1.0000 0.23210  0.40880  0.40770  Biso   1.000  C
  H42      1.0000 0.30600  0.99230  0.51080  Biso   1.000  H
  O84      1.0000 0.19220  0.44770  0.38040  Biso   1.000  O
  Zn15     1.0000 0.11757  0.25841  0.26401  Biso   1.000  Zn
  O85      1.0000 0.17210  0.19410  0.21010  Biso   1.000  O
  O86      1.0000 0.03310  0.25720  0.21190  Biso   1.000  O
  O87      1.0000 0.13040  0.23300  0.36860  Biso   1.000  O
  C127     1.0000 0.17800  0.19890  0.13920  Biso   1.000  C
  O88      1.0000 0.15700  0.24560  0.09970  Biso   1.000  O
  O89      1.0000 0.05160  0.33970  0.12960  Biso   1.000  O
  C128     1.0000 0.21280  0.14270  0.10170  Biso   1.000  C
  C129     1.0000 0.20910  0.48080  0.15330  Biso   1.000  C
  C130     1.0000 0.23370  0.09000  0.14400  Biso   1.000  C
  C131     1.0000 0.22420  0.14310  0.02390  Biso   1.000  C
  C132     1.0000 0.23040  0.53910  0.11020  Biso   1.000  C
  H43      1.0000 0.22400  0.08820  0.19470  Biso   1.000  H
  C133     1.0000 0.25750  0.09280  0.99040  Biso   1.000  C
  H44      1.0000 0.20890  0.17810  0.99530  Biso   1.000  H
  C134     1.0000 0.21830  0.54110  0.03330  Biso   1.000  C
  C135     1.0000 0.26790  0.09120  0.90770  Biso   1.000  C
  H45      1.0000 0.19400  0.50770  0.01080  Biso   1.000  H
  O90      1.0000 0.30780  0.05230  0.88040  Biso   1.000  O
  Zn16     1.0000 0.61757  0.75841  0.76401  Biso   1.000  Zn
  O91      1.0000 0.67210  0.69410  0.71010  Biso   1.000  O
  O92      1.0000 0.53310  0.75720  0.71190  Biso   1.000  O
  O93      1.0000 0.63040  0.73300  0.86860  Biso   1.000  O
  C136     1.0000 0.67800  0.69890  0.63920  Biso   1.000  C
  O94      1.0000 0.65700  0.74560  0.59970  Biso   1.000  O
  O95      1.0000 0.55160  0.83970  0.62960  Biso   1.000  O
  C137     1.0000 0.71280  0.64270  0.60170  Biso   1.000  C
  C138     1.0000 0.70910  0.98080  0.65330  Biso   1.000  C
  C139     1.0000 0.73370  0.59000  0.64400  Biso   1.000  C
  C140     1.0000 0.72420  0.64310  0.52390  Biso   1.000  C
  C141     1.0000 0.73040  0.03910  0.61020  Biso   1.000  C
  H46      1.0000 0.72400  0.58820  0.69470  Biso   1.000  H
  C142     1.0000 0.75750  0.59280  0.49040  Biso   1.000  C
  H47      1.0000 0.70890  0.67810  0.49530  Biso   1.000  H
  C143     1.0000 0.71830  0.04110  0.53330  Biso   1.000  C
  C144     1.0000 0.76790  0.59120  0.40770  Biso   1.000  C
  H48      1.0000 0.69400  0.00770  0.51080  Biso   1.000  H
  O96      1.0000 0.80780  0.55230  0.38040  Biso   1.000  O
  O97      1.0000 0.34370  0.15630  0.73700  Biso   1.000  O
  Co1      1.0000 0.34706  0.15294  0.61906  Biso   1.000  Co
  O98      1.0000 0.65630  0.84370  0.73700  Biso   1.000  O
  Co2      1.0000 0.65294  0.84706  0.61906  Biso   1.000  Co
  O99      1.0000 0.15630  0.34370  0.23700  Biso   1.000  O
  Co3      1.0000 0.15294  0.34706  0.11906  Biso   1.000  Co
  O100     1.0000 0.84370  0.34370  0.73700  Biso   1.000  O
  Co4      1.0000 0.84706  0.34706  0.61906  Biso   1.000  Co
  O101     1.0000 0.15630  0.65630  0.73700  Biso   1.000  O
  Co5      1.0000 0.15294  0.65294  0.61906  Biso   1.000  Co
  O102     1.0000 0.34370  0.84370  0.23700  Biso   1.000  O
  Co6      1.0000 0.34706  0.84706  0.11906  Biso   1.000  Co
  O103     1.0000 0.65630  0.15630  0.23700  Biso   1.000  O
  Co7      1.0000 0.65294  0.15294  0.11906  Biso   1.000  Co
  O104     1.0000 0.84370  0.65630  0.23700  Biso   1.000  O
  Co8      1.0000 0.84706  0.65294  0.11906  Biso   1.000  Co
