data_EWUSUL_clean
_audit_creation_date              2014-07-02
_audit_creation_method            'Materials Studio'
_symmetry_space_group_name_H-M    'P1'
_symmetry_Int_Tables_number       1
_symmetry_cell_setting            triclinic
loop_
_symmetry_equiv_pos_as_xyz
  x,y,z
_cell_length_a                    19.5715
_cell_length_b                    19.5716
_cell_length_c                    31.9649
_cell_angle_alpha                 74.8553
_cell_angle_beta                  74.8554
_cell_angle_gamma                 98.4307
loop_
_atom_site_label
_atom_site_type_symbol
_atom_site_fract_x
_atom_site_fract_y
_atom_site_fract_z
_atom_site_U_iso_or_equiv
_atom_site_adp_type
_atom_site_occupancy
Cu1    Cu    0.76209   0.13175   0.01508   0.01267  Uiso   1.00
Cu2    Cu    0.73086   0.31538   0.96250   0.01267  Uiso   1.00
Cu3    Cu    0.63942   0.21400   0.08206   0.01267  Uiso   1.00
Cu4    Cu    0.14683   0.27717   0.48492   0.01267  Uiso   1.00
Cu5    Cu    0.27788   0.19336   0.53750   0.01267  Uiso   1.00
Cu6    Cu    0.29606   0.22148   0.41794   0.01267  Uiso   1.00
Cu7    Cu    0.23791   0.86825   0.98492   0.01267  Uiso   1.00
Cu8    Cu    0.26914   0.68462   0.03750   0.01267  Uiso   1.00
Cu9    Cu    0.36058   0.78600   0.91794   0.01267  Uiso   1.00
Cu10   Cu    0.85317   0.72283   0.51508   0.01267  Uiso   1.00
Cu11   Cu    0.72212   0.80664   0.46250   0.01267  Uiso   1.00
Cu12   Cu    0.70394   0.77852   0.58206   0.01267  Uiso   1.00
H1     H     0.46590   0.92650   0.88520   0.01267  Uiso   1.00
H2     H     0.54840  -0.00000   0.90060   0.01267  Uiso   1.00
H3     H     0.50540   0.84240   0.01960   0.01267  Uiso   1.00
H4     H     0.43040   0.77200   0.99660   0.01267  Uiso   1.00
H5     H     0.63030   0.05670   0.91540   0.01267  Uiso   1.00
H6     H     0.70200   0.13440   0.94200   0.01267  Uiso   1.00
H7     H     0.65590   0.98770   0.05520   0.01267  Uiso   1.00
H8     H     0.57750   0.91230   0.03800   0.01267  Uiso   1.00
H9     H     0.52160   0.27380   0.11820   0.01267  Uiso   1.00
H10    H     0.44480   0.27840   0.18900   0.01267  Uiso   1.00
H11    H     0.53930   0.14450   0.24960   0.01267  Uiso   1.00
H12    H     0.62370   0.15430   0.18180   0.01267  Uiso   1.00
H13    H     0.89730   0.13610   0.03940   0.01267  Uiso   1.00
H14    H     0.99930   0.09030   0.02960   0.01267  Uiso   1.00
H15    H     0.90890   0.95330   0.97860   0.01267  Uiso   1.00
H16    H     0.81500   0.00720   0.98280   0.01267  Uiso   1.00
H17    H     0.81170   0.85110   0.61480   0.01267  Uiso   1.00
H18    H     0.90060   0.94900   0.59940   0.01267  Uiso   1.00
H19    H     0.86200   0.02500   0.48040   0.01267  Uiso   1.00
H20    H     0.76860   0.92700   0.50340   0.01267  Uiso   1.00
H21    H     0.97210   0.04570   0.58460   0.01267  Uiso   1.00
H22    H     0.07640   0.14400   0.55800   0.01267  Uiso   1.00
H23    H     0.04290   0.21110   0.44480   0.01267  Uiso   1.00
H24    H     0.95030   0.11550   0.46200   0.01267  Uiso   1.00
H25    H     0.39200   0.13980   0.38180   0.01267  Uiso   1.00
H26    H     0.46740   0.13380   0.31100   0.01267  Uiso   1.00
H27    H     0.39410   0.28890   0.25040   0.01267  Uiso   1.00
H28    H     0.33610   0.30550   0.31820   0.01267  Uiso   1.00
H29    H     0.17550   0.43670   0.46060   0.01267  Uiso   1.00
H30    H     0.11990   0.52890   0.47040   0.01267  Uiso   1.00
H31    H     0.93190   0.38750   0.52140   0.01267  Uiso   1.00
H32    H     0.99000   0.29780   0.51720   0.01267  Uiso   1.00
H33    H     0.53410   0.07350   0.11480   0.01267  Uiso   1.00
H34    H     0.45160  -0.00000   0.09940   0.01267  Uiso   1.00
H35    H     0.49460   0.15760   0.98040   0.01267  Uiso   1.00
H36    H     0.56960   0.22800   0.00340   0.01267  Uiso   1.00
H37    H     0.36970   0.94330   0.08460   0.01267  Uiso   1.00
H38    H     0.29800   0.86560   0.05800   0.01267  Uiso   1.00
H39    H     0.34410   0.01230   0.94480   0.01267  Uiso   1.00
H40    H     0.42250   0.08770   0.96200   0.01267  Uiso   1.00
H41    H     0.47840   0.72620   0.88180   0.01267  Uiso   1.00
H42    H     0.55520   0.72160   0.81100   0.01267  Uiso   1.00
H43    H     0.46070   0.85550   0.75040   0.01267  Uiso   1.00
H44    H     0.37630   0.84570   0.81820   0.01267  Uiso   1.00
H45    H     0.10270   0.86390   0.96060   0.01267  Uiso   1.00
H46    H     0.00070   0.90970   0.97040   0.01267  Uiso   1.00
H47    H     0.09110   0.04670   0.02140   0.01267  Uiso   1.00
H48    H     0.18500   0.99280   0.01720   0.01267  Uiso   1.00
H49    H     0.18830   0.14890   0.38520   0.01267  Uiso   1.00
H50    H     0.09940   0.05100   0.40060   0.01267  Uiso   1.00
H51    H     0.13800   0.97500   0.51960   0.01267  Uiso   1.00
H52    H     0.23140   0.07300   0.49660   0.01267  Uiso   1.00
H53    H     0.02790   0.95430   0.41540   0.01267  Uiso   1.00
H54    H     0.92360   0.85600   0.44200   0.01267  Uiso   1.00
H55    H     0.95710   0.78890   0.55520   0.01267  Uiso   1.00
H56    H     0.04970   0.88450   0.53800   0.01267  Uiso   1.00
H57    H     0.60800   0.86020   0.61820   0.01267  Uiso   1.00
H58    H     0.53260   0.86620   0.68900   0.01267  Uiso   1.00
H59    H     0.60590   0.71110   0.74960   0.01267  Uiso   1.00
H60    H     0.66390   0.69450   0.68180   0.01267  Uiso   1.00
H61    H     0.82450   0.56330   0.53940   0.01267  Uiso   1.00
H62    H     0.88010   0.47110   0.52960   0.01267  Uiso   1.00
H63    H     0.06810   0.61250   0.47860   0.01267  Uiso   1.00
H64    H     0.01000   0.70220   0.48280   0.01267  Uiso   1.00
W1     W     0.77993   0.25993   0.03112   0.01267  Uiso   1.00
W2     W     0.29105   0.31105   0.46888   0.01267  Uiso   1.00
W3     W     0.22007   0.74007   0.96888   0.01267  Uiso   1.00
W4     W     0.70895   0.68895   0.53112   0.01267  Uiso   1.00
C1     C     0.47560   0.90840   0.91240   0.01267  Uiso   1.00
C2     C     0.52500   0.95420   0.92140   0.01267  Uiso   1.00
C3     C     0.54020   0.93020   0.96340   0.01267  Uiso   1.00
C4     C     0.50020   0.86080   0.99100   0.01267  Uiso   1.00
C5     C     0.45370   0.81890   0.97720   0.01267  Uiso   1.00
C6     C     0.58960   0.97640   0.97620   0.01267  Uiso   1.00
C7     C     0.63160   0.04220   0.94520   0.01267  Uiso   1.00
C8     C     0.67790   0.08790   0.96140   0.01267  Uiso   1.00
C9     C     0.64950   0.00370   0.02660   0.01267  Uiso   1.00
C10    C     0.60180   0.95740   0.01660   0.01267  Uiso   1.00
C11    C     0.52760   0.24800   0.14540   0.01267  Uiso   1.00
C12    C     0.47940   0.25040   0.18940   0.01267  Uiso   1.00
C13    C     0.48430   0.21410   0.22860   0.01267  Uiso   1.00
C14    C     0.53600   0.17580   0.22300   0.01267  Uiso   1.00
C15    C     0.58560   0.17740   0.18180   0.01267  Uiso   1.00
C16    C     0.90000   0.09960   0.02580   0.01267  Uiso   1.00
C17    C     0.96140   0.07080   0.02060   0.01267  Uiso   1.00
C18    C     0.96770   0.01510   0.00320   0.01267  Uiso   1.00
C19    C     0.90910   0.99230   0.99020   0.01267  Uiso   1.00
C20    C     0.85190   0.02350   0.99360   0.01267  Uiso   1.00
C21    C     0.82080   0.88800   0.58760   0.01267  Uiso   1.00
C22    C     0.87560   0.94640   0.57860   0.01267  Uiso   1.00
C23    C     0.89360   0.00360   0.53660   0.01267  Uiso   1.00
C24    C     0.85180   0.99120   0.50900   0.01267  Uiso   1.00
C25    C     0.79610   0.93090   0.52280   0.01267  Uiso   1.00
C26    C     0.95260   0.06580   0.52380   0.01267  Uiso   1.00
C27    C     0.98740   0.07680   0.55480   0.01267  Uiso   1.00
C28    C     0.04930   0.13930   0.53860   0.01267  Uiso   1.00
C29    C     0.03030   0.17610   0.47340   0.01267  Uiso   1.00
C30    C     0.97400   0.11840   0.48340   0.01267  Uiso   1.00
C31    C     0.39340   0.17300   0.35460   0.01267  Uiso   1.00
C32    C     0.43980   0.16880   0.31060   0.01267  Uiso   1.00
C33    C     0.44270   0.21290   0.27140   0.01267  Uiso   1.00
C34    C     0.39880   0.25900   0.27700   0.01267  Uiso   1.00
C35    C     0.35920   0.26740   0.31820   0.01267  Uiso   1.00
C36    C     0.12540   0.42580   0.47420   0.01267  Uiso   1.00
C37    C     0.09140   0.48200   0.47940   0.01267  Uiso   1.00
C38    C     0.01830   0.47090   0.49680   0.01267  Uiso   1.00
C39    C     0.98250   0.39930   0.50980   0.01267  Uiso   1.00
C40    C     0.01710   0.34550   0.50640   0.01267  Uiso   1.00
C41    C     0.52440   0.09160   0.08760   0.01267  Uiso   1.00
C42    C     0.47500   0.04580   0.07860   0.01267  Uiso   1.00
C43    C     0.45980   0.06980   0.03660   0.01267  Uiso   1.00
C44    C     0.49980   0.13920   0.00900   0.01267  Uiso   1.00
C45    C     0.54630   0.18110   0.02280   0.01267  Uiso   1.00
C46    C     0.41040   0.02360   0.02380   0.01267  Uiso   1.00
C47    C     0.36840   0.95780   0.05480   0.01267  Uiso   1.00
C48    C     0.32210   0.91210   0.03860   0.01267  Uiso   1.00
C49    C     0.35050   0.99630   0.97340   0.01267  Uiso   1.00
C50    C     0.39820   0.04260   0.98340   0.01267  Uiso   1.00
C51    C     0.47240   0.75200   0.85460   0.01267  Uiso   1.00
C52    C     0.52060   0.74960   0.81060   0.01267  Uiso   1.00
C53    C     0.51570   0.78590   0.77140   0.01267  Uiso   1.00
C54    C     0.46400   0.82420   0.77700   0.01267  Uiso   1.00
C55    C     0.41440   0.82260   0.81820   0.01267  Uiso   1.00
C56    C     0.10000   0.90040   0.97420   0.01267  Uiso   1.00
C57    C     0.03860   0.92920   0.97940   0.01267  Uiso   1.00
C58    C     0.03230   0.98490   0.99680   0.01267  Uiso   1.00
C59    C     0.09090   0.00770   0.00980   0.01267  Uiso   1.00
C60    C     0.14810   0.97650   0.00640   0.01267  Uiso   1.00
C61    C     0.17920   0.11200   0.41240   0.01267  Uiso   1.00
C62    C     0.12440   0.05360   0.42140   0.01267  Uiso   1.00
C63    C     0.10640   0.99640   0.46340   0.01267  Uiso   1.00
C64    C     0.14820   0.00880   0.49100   0.01267  Uiso   1.00
C65    C     0.20390   0.06910   0.47720   0.01267  Uiso   1.00
C66    C     0.04740   0.93420   0.47620   0.01267  Uiso   1.00
C67    C     0.01260   0.92320   0.44520   0.01267  Uiso   1.00
C68    C     0.95070   0.86070   0.46140   0.01267  Uiso   1.00
C69    C     0.96970   0.82390   0.52660   0.01267  Uiso   1.00
C70    C     0.02600   0.88160   0.51660   0.01267  Uiso   1.00
C71    C     0.60660   0.82700   0.64540   0.01267  Uiso   1.00
C72    C     0.56020   0.83120   0.68940   0.01267  Uiso   1.00
C73    C     0.55730   0.78710   0.72860   0.01267  Uiso   1.00
C74    C     0.60120   0.74100   0.72300   0.01267  Uiso   1.00
C75    C     0.64080   0.73260   0.68180   0.01267  Uiso   1.00
C76    C     0.87460   0.57420   0.52580   0.01267  Uiso   1.00
C77    C     0.90860   0.51800   0.52060   0.01267  Uiso   1.00
C78    C     0.98170   0.52910   0.50320   0.01267  Uiso   1.00
C79    C     0.01750   0.60070   0.49020   0.01267  Uiso   1.00
C80    C     0.98290   0.65450   0.49360   0.01267  Uiso   1.00
S1     S     0.81223   0.24419   0.96232   0.01267  Uiso   1.00
S2     S     0.72848   0.15040   0.08408   0.01267  Uiso   1.00
S3     S     0.69657   0.32821   0.03258   0.01267  Uiso   1.00
S4     S     0.20651   0.27455   0.53768   0.01267  Uiso   1.00
S5     S     0.23448   0.31256   0.41592   0.01267  Uiso   1.00
S6     S     0.36079   0.22915   0.46742   0.01267  Uiso   1.00
S7     S     0.18777   0.75581   0.03768   0.01267  Uiso   1.00
S8     S     0.27152   0.84960   0.91592   0.01267  Uiso   1.00
S9     S     0.30343   0.67179   0.96742   0.01267  Uiso   1.00
S10    S     0.79349   0.72545   0.46232   0.01267  Uiso   1.00
S11    S     0.76552   0.68744   0.58408   0.01267  Uiso   1.00
S12    S     0.63921   0.77085   0.53258   0.01267  Uiso   1.00
N1     N     0.43960   0.84180   0.93740   0.01267  Uiso   1.00
N2     N     0.68720   0.06860   0.99980   0.01267  Uiso   1.00
N3     N     0.57710   0.21170   0.14380   0.01267  Uiso   1.00
N4     N     0.84660   0.07720   0.01200   0.01267  Uiso   1.00
N5     N     0.77920   0.87700   0.56260   0.01267  Uiso   1.00
N6     N     0.06840   0.18700   0.50020   0.01267  Uiso   1.00
N7     N     0.35550   0.22090   0.35620   0.01267  Uiso   1.00
N8     N     0.08920   0.35860   0.48800   0.01267  Uiso   1.00
N9     N     0.56040   0.15820   0.06260   0.01267  Uiso   1.00
N10    N     0.31280   0.93140   0.00020   0.01267  Uiso   1.00
N11    N     0.42290   0.78830   0.85620   0.01267  Uiso   1.00
N12    N     0.15340   0.92280   0.98800   0.01267  Uiso   1.00
N13    N     0.22080   0.12300   0.43740   0.01267  Uiso   1.00
N14    N     0.93160   0.81300   0.49980   0.01267  Uiso   1.00
N15    N     0.64450   0.77910   0.64380   0.01267  Uiso   1.00
N16    N     0.91080   0.64140   0.51200   0.01267  Uiso   1.00
Cl1    Cl    0.66455   0.33175   0.91230   0.01267  Uiso   1.00
Cl2    Cl    0.24405   0.07685   0.58770   0.01267  Uiso   1.00
Cl3    Cl    0.33545   0.66825   0.08770   0.01267  Uiso   1.00
Cl4    Cl    0.75595   0.92315   0.41230   0.01267  Uiso   1.00
Cu13   Cu    0.22283   0.35317   0.01508   0.01267  Uiso   1.00
Cu14   Cu    0.30664   0.22212   0.96250   0.01267  Uiso   1.00
Cu15   Cu    0.27852   0.20394   0.08206   0.01267  Uiso   1.00
Cu16   Cu    0.36825   0.73791   0.48492   0.01267  Uiso   1.00
Cu17   Cu    0.18462   0.76914   0.53750   0.01267  Uiso   1.00
Cu18   Cu    0.28600   0.86058   0.41794   0.01267  Uiso   1.00
Cu19   Cu    0.77717   0.64683   0.98492   0.01267  Uiso   1.00
Cu20   Cu    0.69336   0.77788   0.03750   0.01267  Uiso   1.00
Cu21   Cu    0.72148   0.79606   0.91794   0.01267  Uiso   1.00
Cu22   Cu    0.63175   0.26209   0.51508   0.01267  Uiso   1.00
Cu23   Cu    0.81538   0.23086   0.46250   0.01267  Uiso   1.00
Cu24   Cu    0.71400   0.13942   0.58206   0.01267  Uiso   1.00
H65    H     0.64890   0.68830   0.88520   0.01267  Uiso   1.00
H66    H     0.55100   0.59940   0.90060   0.01267  Uiso   1.00
H67    H     0.47500   0.63800   0.01960   0.01267  Uiso   1.00
H68    H     0.57300   0.73140   0.99660   0.01267  Uiso   1.00
H69    H     0.45430   0.52790   0.91540   0.01267  Uiso   1.00
H70    H     0.35600   0.42360   0.94200   0.01267  Uiso   1.00
H71    H     0.28890   0.45710   0.05520   0.01267  Uiso   1.00
H72    H     0.38450   0.54970   0.03800   0.01267  Uiso   1.00
H73    H     0.36020   0.10800   0.11820   0.01267  Uiso   1.00
H74    H     0.36620   0.03260   0.18900   0.01267  Uiso   1.00
H75    H     0.21110   0.10590   0.24960   0.01267  Uiso   1.00
H76    H     0.19450   0.16390   0.18180   0.01267  Uiso   1.00
H77    H     0.06330   0.32450   0.03940   0.01267  Uiso   1.00
H78    H     0.97110   0.38010   0.02960   0.01267  Uiso   1.00
H79    H     0.11250   0.56810   0.97860   0.01267  Uiso   1.00
H80    H     0.20220   0.51000   0.98280   0.01267  Uiso   1.00
H81    H     0.57350   0.03410   0.61480   0.01267  Uiso   1.00
H82    H     0.50000   0.95160   0.59940   0.01267  Uiso   1.00
H83    H     0.65760   0.99460   0.48040   0.01267  Uiso   1.00
H84    H     0.72800   0.06960   0.50340   0.01267  Uiso   1.00
H85    H     0.44330   0.86970   0.58460   0.01267  Uiso   1.00
H86    H     0.36560   0.79800   0.55800   0.01267  Uiso   1.00
H87    H     0.51230   0.84410   0.44480   0.01267  Uiso   1.00
H88    H     0.58770   0.92250   0.46200   0.01267  Uiso   1.00
H89    H     0.22620   0.97840   0.38180   0.01267  Uiso   1.00
H90    H     0.22160   0.05520   0.31100   0.01267  Uiso   1.00
H91    H     0.35550   0.96070   0.25040   0.01267  Uiso   1.00
H92    H     0.34570   0.87630   0.31820   0.01267  Uiso   1.00
H93    H     0.36390   0.60270   0.46060   0.01267  Uiso   1.00
H94    H     0.40970   0.50070   0.47040   0.01267  Uiso   1.00
H95    H     0.54670   0.59110   0.52140   0.01267  Uiso   1.00
H96    H     0.49280   0.68500   0.51720   0.01267  Uiso   1.00
H97    H     0.35110   0.31170   0.11480   0.01267  Uiso   1.00
H98    H     0.44900   0.40060   0.09940   0.01267  Uiso   1.00
H99    H     0.52500   0.36200   0.98040   0.01267  Uiso   1.00
H100   H     0.42700   0.26860   0.00340   0.01267  Uiso   1.00
H101   H     0.54570   0.47210   0.08460   0.01267  Uiso   1.00
H102   H     0.64400   0.57640   0.05800   0.01267  Uiso   1.00
H103   H     0.71110   0.54290   0.94480   0.01267  Uiso   1.00
H104   H     0.61550   0.45030   0.96200   0.01267  Uiso   1.00
H105   H     0.63980   0.89200   0.88180   0.01267  Uiso   1.00
H106   H     0.63380   0.96740   0.81100   0.01267  Uiso   1.00
H107   H     0.78890   0.89410   0.75040   0.01267  Uiso   1.00
H108   H     0.80550   0.83610   0.81820   0.01267  Uiso   1.00
H109   H     0.93670   0.67550   0.96060   0.01267  Uiso   1.00
H110   H     0.02890   0.61990   0.97040   0.01267  Uiso   1.00
H111   H     0.88750   0.43190   0.02140   0.01267  Uiso   1.00
H112   H     0.79780   0.49000   0.01720   0.01267  Uiso   1.00
H113   H     0.42650   0.96590   0.38520   0.01267  Uiso   1.00
H114   H     0.50000   0.04840   0.40060   0.01267  Uiso   1.00
H115   H     0.34240   0.00540   0.51960   0.01267  Uiso   1.00
H116   H     0.27200   0.93040   0.49660   0.01267  Uiso   1.00
H117   H     0.55670   0.13030   0.41540   0.01267  Uiso   1.00
H118   H     0.63440   0.20200   0.44200   0.01267  Uiso   1.00
H119   H     0.48770   0.15590   0.55520   0.01267  Uiso   1.00
H120   H     0.41230   0.07750   0.53800   0.01267  Uiso   1.00
H121   H     0.77380   0.02160   0.61820   0.01267  Uiso   1.00
H122   H     0.77840   0.94480   0.68900   0.01267  Uiso   1.00
H123   H     0.64450   0.03930   0.74960   0.01267  Uiso   1.00
H124   H     0.65430   0.12370   0.68180   0.01267  Uiso   1.00
H125   H     0.63610   0.39730   0.53940   0.01267  Uiso   1.00
H126   H     0.59030   0.49930   0.52960   0.01267  Uiso   1.00
H127   H     0.45330   0.40890   0.47860   0.01267  Uiso   1.00
H128   H     0.50720   0.31500   0.48280   0.01267  Uiso   1.00
W5     W     0.18895   0.20895   0.03112   0.01267  Uiso   1.00
W6     W     0.24007   0.72007   0.46888   0.01267  Uiso   1.00
W7     W     0.81105   0.79105   0.96888   0.01267  Uiso   1.00
W8     W     0.75993   0.27993   0.53112   0.01267  Uiso   1.00
C81    C     0.61200   0.67920   0.91240   0.01267  Uiso   1.00
C82    C     0.55360   0.62440   0.92140   0.01267  Uiso   1.00
C83    C     0.49640   0.60640   0.96340   0.01267  Uiso   1.00
C84    C     0.50880   0.64820   0.99100   0.01267  Uiso   1.00
C85    C     0.56910   0.70390   0.97720   0.01267  Uiso   1.00
C86    C     0.43420   0.54740   0.97620   0.01267  Uiso   1.00
C87    C     0.42320   0.51260   0.94520   0.01267  Uiso   1.00
C88    C     0.36070   0.45070   0.96140   0.01267  Uiso   1.00
C89    C     0.32390   0.46970   0.02660   0.01267  Uiso   1.00
C90    C     0.38160   0.52600   0.01660   0.01267  Uiso   1.00
C91    C     0.32700   0.10660   0.14540   0.01267  Uiso   1.00
C92    C     0.33120   0.06020   0.18940   0.01267  Uiso   1.00
C93    C     0.28710   0.05730   0.22860   0.01267  Uiso   1.00
C94    C     0.24100   0.10120   0.22300   0.01267  Uiso   1.00
C95    C     0.23260   0.14080   0.18180   0.01267  Uiso   1.00
C96    C     0.07420   0.37460   0.02580   0.01267  Uiso   1.00
C97    C     0.01800   0.40860   0.02060   0.01267  Uiso   1.00
C98    C     0.02910   0.48170   0.00320   0.01267  Uiso   1.00
C99    C     0.10070   0.51750   0.99020   0.01267  Uiso   1.00
C100   C     0.15450   0.48290   0.99360   0.01267  Uiso   1.00
C101   C     0.59160   0.02440   0.58760   0.01267  Uiso   1.00
C102   C     0.54580   0.97500   0.57860   0.01267  Uiso   1.00
C103   C     0.56980   0.95980   0.53660   0.01267  Uiso   1.00
C104   C     0.63920   0.99980   0.50900   0.01267  Uiso   1.00
C105   C     0.68110   0.04630   0.52280   0.01267  Uiso   1.00
C106   C     0.52360   0.91040   0.52380   0.01267  Uiso   1.00
C107   C     0.45780   0.86840   0.55480   0.01267  Uiso   1.00
C108   C     0.41210   0.82210   0.53860   0.01267  Uiso   1.00
C109   C     0.49630   0.85050   0.47340   0.01267  Uiso   1.00
C110   C     0.54260   0.89820   0.48340   0.01267  Uiso   1.00
C111   C     0.25200   0.97240   0.35460   0.01267  Uiso   1.00
C112   C     0.24960   0.02060   0.31060   0.01267  Uiso   1.00
C113   C     0.28590   0.01570   0.27140   0.01267  Uiso   1.00
C114   C     0.32420   0.96400   0.27700   0.01267  Uiso   1.00
C115   C     0.32260   0.91440   0.31820   0.01267  Uiso   1.00
C116   C     0.40040   0.60000   0.47420   0.01267  Uiso   1.00
C117   C     0.42920   0.53860   0.47940   0.01267  Uiso   1.00
C118   C     0.48490   0.53230   0.49680   0.01267  Uiso   1.00
C119   C     0.50770   0.59090   0.50980   0.01267  Uiso   1.00
C120   C     0.47650   0.64810   0.50640   0.01267  Uiso   1.00
C121   C     0.38800   0.32080   0.08760   0.01267  Uiso   1.00
C122   C     0.44640   0.37560   0.07860   0.01267  Uiso   1.00
C123   C     0.50360   0.39360   0.03660   0.01267  Uiso   1.00
C124   C     0.49120   0.35180   0.00900   0.01267  Uiso   1.00
C125   C     0.43090   0.29610   0.02280   0.01267  Uiso   1.00
C126   C     0.56580   0.45260   0.02380   0.01267  Uiso   1.00
C127   C     0.57680   0.48740   0.05480   0.01267  Uiso   1.00
C128   C     0.63930   0.54930   0.03860   0.01267  Uiso   1.00
C129   C     0.67610   0.53030   0.97340   0.01267  Uiso   1.00
C130   C     0.61840   0.47400   0.98340   0.01267  Uiso   1.00
C131   C     0.67300   0.89340   0.85460   0.01267  Uiso   1.00
C132   C     0.66880   0.93980   0.81060   0.01267  Uiso   1.00
C133   C     0.71290   0.94270   0.77140   0.01267  Uiso   1.00
C134   C     0.75900   0.89880   0.77700   0.01267  Uiso   1.00
C135   C     0.76740   0.85920   0.81820   0.01267  Uiso   1.00
C136   C     0.92580   0.62540   0.97420   0.01267  Uiso   1.00
C137   C     0.98200   0.59140   0.97940   0.01267  Uiso   1.00
C138   C     0.97090   0.51830   0.99680   0.01267  Uiso   1.00
C139   C     0.89930   0.48250   0.00980   0.01267  Uiso   1.00
C140   C     0.84550   0.51710   0.00640   0.01267  Uiso   1.00
C141   C     0.40840   0.97560   0.41240   0.01267  Uiso   1.00
C142   C     0.45420   0.02500   0.42140   0.01267  Uiso   1.00
C143   C     0.43020   0.04020   0.46340   0.01267  Uiso   1.00
C144   C     0.36080   0.00020   0.49100   0.01267  Uiso   1.00
C145   C     0.31890   0.95370   0.47720   0.01267  Uiso   1.00
C146   C     0.47640   0.08960   0.47620   0.01267  Uiso   1.00
C147   C     0.54220   0.13160   0.44520   0.01267  Uiso   1.00
C148   C     0.58790   0.17790   0.46140   0.01267  Uiso   1.00
C149   C     0.50370   0.14950   0.52660   0.01267  Uiso   1.00
C150   C     0.45740   0.10180   0.51660   0.01267  Uiso   1.00
C151   C     0.74800   0.02760   0.64540   0.01267  Uiso   1.00
C152   C     0.75040   0.97940   0.68940   0.01267  Uiso   1.00
C153   C     0.71410   0.98430   0.72860   0.01267  Uiso   1.00
C154   C     0.67580   0.03600   0.72300   0.01267  Uiso   1.00
C155   C     0.67740   0.08560   0.68180   0.01267  Uiso   1.00
C156   C     0.59960   0.40000   0.52580   0.01267  Uiso   1.00
C157   C     0.57080   0.46140   0.52060   0.01267  Uiso   1.00
C158   C     0.51510   0.46770   0.50320   0.01267  Uiso   1.00
C159   C     0.49230   0.40910   0.49020   0.01267  Uiso   1.00
C160   C     0.52350   0.35190   0.49360   0.01267  Uiso   1.00
S13    S     0.22545   0.29349   0.96232   0.01267  Uiso   1.00
S14    S     0.18744   0.26552   0.08408   0.01267  Uiso   1.00
S15    S     0.27085   0.13921   0.03258   0.01267  Uiso   1.00
S16    S     0.25581   0.68777   0.53768   0.01267  Uiso   1.00
S17    S     0.34960   0.77152   0.41592   0.01267  Uiso   1.00
S18    S     0.17179   0.80343   0.46742   0.01267  Uiso   1.00
S19    S     0.77455   0.70651   0.03768   0.01267  Uiso   1.00
S20    S     0.81256   0.73448   0.91592   0.01267  Uiso   1.00
S21    S     0.72915   0.86079   0.96742   0.01267  Uiso   1.00
S22    S     0.74419   0.31223   0.46232   0.01267  Uiso   1.00
S23    S     0.65040   0.22848   0.58408   0.01267  Uiso   1.00
S24    S     0.82821   0.19657   0.53258   0.01267  Uiso   1.00
N17    N     0.62300   0.72080   0.93740   0.01267  Uiso   1.00
N18    N     0.31300   0.43160   0.99980   0.01267  Uiso   1.00
N19    N     0.27910   0.14450   0.14380   0.01267  Uiso   1.00
N20    N     0.14140   0.41080   0.01200   0.01267  Uiso   1.00
N21    N     0.65820   0.06040   0.56260   0.01267  Uiso   1.00
N22    N     0.43140   0.81280   0.50020   0.01267  Uiso   1.00
N23    N     0.28830   0.92290   0.35620   0.01267  Uiso   1.00
N24    N     0.42280   0.65340   0.48800   0.01267  Uiso   1.00
N25    N     0.37700   0.27920   0.06260   0.01267  Uiso   1.00
N26    N     0.68700   0.56840   0.00020   0.01267  Uiso   1.00
N27    N     0.72090   0.85550   0.85620   0.01267  Uiso   1.00
N28    N     0.85860   0.58920   0.98800   0.01267  Uiso   1.00
N29    N     0.34180   0.93960   0.43740   0.01267  Uiso   1.00
N30    N     0.56860   0.18720   0.49980   0.01267  Uiso   1.00
N31    N     0.71170   0.07710   0.64380   0.01267  Uiso   1.00
N32    N     0.57720   0.34660   0.51200   0.01267  Uiso   1.00
Cl5    Cl    0.42315   0.25595   0.91230   0.01267  Uiso   1.00
Cl6    Cl    0.16825   0.83545   0.58770   0.01267  Uiso   1.00
Cl7    Cl    0.57685   0.74405   0.08770   0.01267  Uiso   1.00
Cl8    Cl    0.83175   0.16455   0.41230   0.01267  Uiso   1.00
