data_image0
_cell_length_a       11.201
_cell_length_b       14.943
_cell_length_c       21.483
_cell_angle_alpha    90
_cell_angle_beta     92.096
_cell_angle_gamma    90

_symmetry_space_group_name_H-M    "P 1"
_symmetry_int_tables_number       1

loop_
  _symmetry_equiv_pos_as_xyz
  'x, y, z'

loop_
  _atom_site_label
  _atom_site_occupancy
  _atom_site_fract_x
  _atom_site_fract_y
  _atom_site_fract_z
  _atom_site_thermal_displace_type
  _atom_site_B_iso_or_equiv
  _atom_site_type_symbol
  Ni1      1.0000 0.90170  0.23740  0.69967  Biso   1.000  Ni
  N1       1.0000 0.07550  0.15490  0.54710  Biso   1.000  N
  N2       1.0000 0.01800  0.21370  0.63260  Biso   1.000  N
  N3       1.0000 0.77300  0.25750  0.76120  Biso   1.000  N
  N4       1.0000 0.64300  0.07780  0.61490  Biso   1.000  N
  N5       1.0000 0.61940  0.22660  0.81760  Biso   1.000  N
  N6       1.0000 0.48750  0.82580  0.76120  Biso   1.000  N
  N7       1.0000 0.79140  0.14930  0.65820  Biso   1.000  N
  N8       1.0000 0.40800  0.92700  0.69390  Biso   1.000  N
  N9       1.0000 0.38100  0.94920  0.75290  Biso   1.000  N
  N10      1.0000 0.63100  0.32020  0.81580  Biso   1.000  N
  N11      1.0000 0.71700  0.01240  0.63580  Biso   1.000  N
  N12      1.0000 0.16200  0.14010  0.58790  Biso   1.000  N
  C1       1.0000 0.98900  0.19830  0.57210  Biso   1.000  C
  H1       1.0000 0.91850  0.21590  0.55150  Biso   1.000  H
  C2       1.0000 0.70850  0.19520  0.78630  Biso   1.000  C
  H2       1.0000 0.72450  0.13440  0.78240  Biso   1.000  H
  C3       1.0000 0.42800  0.88500  0.79180  Biso   1.000  C
  H3       1.0000 0.41820  0.88320  0.83460  Biso   1.000  H
  C4       1.0000 0.48700  0.10000  0.83210  Biso   1.000  C
  H4       1.0000 0.45090  0.06740  0.86540  Biso   1.000  H
  H5       1.0000 0.55230  0.06420  0.81720  Biso   1.000  H
  C5       1.0000 0.53800  0.18600  0.85850  Biso   1.000  C
  H6       1.0000 0.47380  0.22750  0.86600  Biso   1.000  H
  H7       1.0000 0.57950  0.17380  0.89810  Biso   1.000  H
  C6       1.0000 0.80500  0.05930  0.66230  Biso   1.000  C
  H8       1.0000 0.87100  0.03280  0.68220  Biso   1.000  H
  C7       1.0000 0.68700  0.15330  0.62780  Biso   1.000  C
  H9       1.0000 0.64900  0.20690  0.61690  Biso   1.000  H
  C8       1.0000 0.53300  0.05500  0.57770  Biso   1.000  C
  H10      1.0000 0.48300  0.10740  0.57370  Biso   1.000  H
  H11      1.0000 0.48910  0.00960  0.60000  Biso   1.000  H
  C9       1.0000 0.07800  0.11800  0.48290  Biso   1.000  C
  H12      1.0000 0.15530  0.13090  0.46530  Biso   1.000  H
  H13      1.0000 0.01680  0.14650  0.45660  Biso   1.000  H
  C10      1.0000 0.47300  0.85400  0.69870  Biso   1.000  C
  H14      1.0000 0.50490  0.82430  0.66510  Biso   1.000  H
  C11      1.0000 0.05700  0.01400  0.48580  Biso   1.000  C
  H15      1.0000 0.05780  0.99000  0.44380  Biso   1.000  H
  H16      1.0000 0.12300  0.98670  0.50940  Biso   1.000  H
  C12      1.0000 0.72500  0.33400  0.78040  Biso   1.000  C
  H17      1.0000 0.75360  0.39080  0.77040  Biso   1.000  H
  C13      1.0000 0.55700  0.01980  0.51360  Biso   1.000  C
  H18      1.0000 0.61940  0.97450  0.51610  Biso   1.000  H
  H19      1.0000 0.58420  0.06820  0.48740  Biso   1.000  H
  C14      1.0000 0.39600  0.11240  0.77960  Biso   1.000  C
  H20      1.0000 0.43570  0.12310  0.74100  Biso   1.000  H
  H21      1.0000 0.34630  0.16410  0.78790  Biso   1.000  H
  C15      1.0000 0.13100  0.17380  0.63900  Biso   1.000  C
  H22      1.0000 0.17640  0.17210  0.67590  Biso   1.000  H
  C16      1.0000 0.31500  0.02760  0.77260  Biso   1.000  C
  H23      1.0000 0.28010  0.01500  0.81230  Biso   1.000  H
  H24      1.0000 0.25090  0.03970  0.74240  Biso   1.000  H
  Ni2      1.0000 0.59830  0.73740  0.80033  Biso   1.000  Ni
  N13      1.0000 0.42450  0.65490  0.95290  Biso   1.000  N
  N14      1.0000 0.48200  0.71370  0.86740  Biso   1.000  N
  N15      1.0000 0.72700  0.75750  0.73880  Biso   1.000  N
  N16      1.0000 0.85700  0.57780  0.88510  Biso   1.000  N
  N17      1.0000 0.88060  0.72660  0.68240  Biso   1.000  N
  N18      1.0000 0.01250  0.32580  0.73880  Biso   1.000  N
  N19      1.0000 0.70860  0.64930  0.84180  Biso   1.000  N
  N20      1.0000 0.09200  0.42700  0.80610  Biso   1.000  N
  N21      1.0000 0.11900  0.44920  0.74710  Biso   1.000  N
  N22      1.0000 0.86900  0.82020  0.68420  Biso   1.000  N
  N23      1.0000 0.78300  0.51240  0.86420  Biso   1.000  N
  N24      1.0000 0.33800  0.64010  0.91210  Biso   1.000  N
  C17      1.0000 0.51100  0.69830  0.92790  Biso   1.000  C
  H25      1.0000 0.58150  0.71590  0.94850  Biso   1.000  H
  C18      1.0000 0.79150  0.69520  0.71370  Biso   1.000  C
  H26      1.0000 0.77550  0.63440  0.71760  Biso   1.000  H
  C19      1.0000 0.07200  0.38500  0.70820  Biso   1.000  C
  H27      1.0000 0.08180  0.38320  0.66540  Biso   1.000  H
  C20      1.0000 0.01300  0.60000  0.66790  Biso   1.000  C
  H28      1.0000 0.04910  0.56740  0.63460  Biso   1.000  H
  H29      1.0000 0.94770  0.56420  0.68280  Biso   1.000  H
  C21      1.0000 0.96200  0.68600  0.64150  Biso   1.000  C
  H30      1.0000 0.02620  0.72750  0.63400  Biso   1.000  H
  H31      1.0000 0.92050  0.67380  0.60190  Biso   1.000  H
  C22      1.0000 0.69500  0.55930  0.83770  Biso   1.000  C
  H32      1.0000 0.62900  0.53280  0.81780  Biso   1.000  H
  C23      1.0000 0.81300  0.65330  0.87220  Biso   1.000  C
  H33      1.0000 0.85100  0.70690  0.88310  Biso   1.000  H
  C24      1.0000 0.96700  0.55500  0.92230  Biso   1.000  C
  H34      1.0000 0.01700  0.60740  0.92630  Biso   1.000  H
  H35      1.0000 0.01090  0.50960  0.90000  Biso   1.000  H
  C25      1.0000 0.42200  0.61800  0.01710  Biso   1.000  C
  H36      1.0000 0.34470  0.63090  0.03470  Biso   1.000  H
  H37      1.0000 0.48320  0.64650  0.04340  Biso   1.000  H
  C26      1.0000 0.02700  0.35400  0.80130  Biso   1.000  C
  H38      1.0000 0.99510  0.32430  0.83490  Biso   1.000  H
  C27      1.0000 0.44300  0.51400  0.01420  Biso   1.000  C
  H39      1.0000 0.44220  0.49000  0.05620  Biso   1.000  H
  H40      1.0000 0.37700  0.48670  0.99060  Biso   1.000  H
  C28      1.0000 0.77500  0.83400  0.71960  Biso   1.000  C
  H41      1.0000 0.74640  0.89080  0.72960  Biso   1.000  H
  C29      1.0000 0.94300  0.51980  0.98640  Biso   1.000  C
  H42      1.0000 0.88060  0.47450  0.98390  Biso   1.000  H
  H43      1.0000 0.91580  0.56820  0.01260  Biso   1.000  H
  C30      1.0000 0.10400  0.61240  0.72040  Biso   1.000  C
  H44      1.0000 0.06430  0.62310  0.75900  Biso   1.000  H
  H45      1.0000 0.15370  0.66410  0.71210  Biso   1.000  H
  C31      1.0000 0.36900  0.67380  0.86100  Biso   1.000  C
  H46      1.0000 0.32360  0.67210  0.82410  Biso   1.000  H
  C32      1.0000 0.18500  0.52760  0.72740  Biso   1.000  C
  H47      1.0000 0.21990  0.51500  0.68770  Biso   1.000  H
  H48      1.0000 0.24910  0.53970  0.75760  Biso   1.000  H
  Ni3      1.0000 0.09830  0.76260  0.30033  Biso   1.000  Ni
  N25      1.0000 0.92450  0.84510  0.45290  Biso   1.000  N
  N26      1.0000 0.98200  0.78630  0.36740  Biso   1.000  N
  N27      1.0000 0.22700  0.74250  0.23880  Biso   1.000  N
  N28      1.0000 0.35700  0.92220  0.38510  Biso   1.000  N
  N29      1.0000 0.38060  0.77340  0.18240  Biso   1.000  N
  N30      1.0000 0.51250  0.17420  0.23880  Biso   1.000  N
  N31      1.0000 0.20860  0.85070  0.34180  Biso   1.000  N
  N32      1.0000 0.59200  0.07300  0.30610  Biso   1.000  N
  N33      1.0000 0.61900  0.05080  0.24710  Biso   1.000  N
  N34      1.0000 0.36900  0.67980  0.18420  Biso   1.000  N
  N35      1.0000 0.28300  0.98760  0.36420  Biso   1.000  N
  N36      1.0000 0.83800  0.85990  0.41210  Biso   1.000  N
  C33      1.0000 0.01100  0.80170  0.42790  Biso   1.000  C
  H49      1.0000 0.08150  0.78410  0.44850  Biso   1.000  H
  C34      1.0000 0.29150  0.80480  0.21370  Biso   1.000  C
  H50      1.0000 0.27550  0.86560  0.21760  Biso   1.000  H
  C35      1.0000 0.57200  0.11500  0.20820  Biso   1.000  C
  H51      1.0000 0.58180  0.11680  0.16540  Biso   1.000  H
  C36      1.0000 0.51300  0.90000  0.16790  Biso   1.000  C
  H52      1.0000 0.54910  0.93260  0.13460  Biso   1.000  H
  H53      1.0000 0.44770  0.93580  0.18280  Biso   1.000  H
  C37      1.0000 0.46200  0.81400  0.14150  Biso   1.000  C
  H54      1.0000 0.52620  0.77250  0.13400  Biso   1.000  H
  H55      1.0000 0.42050  0.82620  0.10190  Biso   1.000  H
  C38      1.0000 0.19500  0.94070  0.33770  Biso   1.000  C
  H56      1.0000 0.12900  0.96720  0.31780  Biso   1.000  H
  C39      1.0000 0.31300  0.84670  0.37220  Biso   1.000  C
  H57      1.0000 0.35100  0.79310  0.38310  Biso   1.000  H
  C40      1.0000 0.46700  0.94500  0.42230  Biso   1.000  C
  H58      1.0000 0.51700  0.89260  0.42630  Biso   1.000  H
  H59      1.0000 0.51090  0.99040  0.40000  Biso   1.000  H
  C41      1.0000 0.92200  0.88200  0.51710  Biso   1.000  C
  H60      1.0000 0.84470  0.86910  0.53470  Biso   1.000  H
  H61      1.0000 0.98320  0.85350  0.54340  Biso   1.000  H
  C42      1.0000 0.52700  0.14600  0.30130  Biso   1.000  C
  H62      1.0000 0.49510  0.17570  0.33490  Biso   1.000  H
  C43      1.0000 0.94300  0.98600  0.51420  Biso   1.000  C
  H63      1.0000 0.94220  0.01000  0.55620  Biso   1.000  H
  H64      1.0000 0.87700  0.01330  0.49060  Biso   1.000  H
  C44      1.0000 0.27500  0.66600  0.21960  Biso   1.000  C
  H65      1.0000 0.24640  0.60920  0.22960  Biso   1.000  H
  C45      1.0000 0.44300  0.98020  0.48640  Biso   1.000  C
  H66      1.0000 0.38060  0.02550  0.48390  Biso   1.000  H
  H67      1.0000 0.41580  0.93180  0.51260  Biso   1.000  H
  C46      1.0000 0.60400  0.88760  0.22040  Biso   1.000  C
  H68      1.0000 0.56430  0.87690  0.25900  Biso   1.000  H
  H69      1.0000 0.65370  0.83590  0.21210  Biso   1.000  H
  C47      1.0000 0.86900  0.82620  0.36100  Biso   1.000  C
  H70      1.0000 0.82360  0.82790  0.32410  Biso   1.000  H
  C48      1.0000 0.68500  0.97240  0.22740  Biso   1.000  C
  H71      1.0000 0.71990  0.98500  0.18770  Biso   1.000  H
  H72      1.0000 0.74910  0.96030  0.25760  Biso   1.000  H
  Ni4      1.0000 0.40170  0.26260  0.19967  Biso   1.000  Ni
  N37      1.0000 0.57550  0.34510  0.04710  Biso   1.000  N
  N38      1.0000 0.51800  0.28630  0.13260  Biso   1.000  N
  N39      1.0000 0.27300  0.24250  0.26120  Biso   1.000  N
  N40      1.0000 0.14300  0.42220  0.11490  Biso   1.000  N
  N41      1.0000 0.11940  0.27340  0.31760  Biso   1.000  N
  N42      1.0000 0.98750  0.67420  0.26120  Biso   1.000  N
  N43      1.0000 0.29140  0.35070  0.15820  Biso   1.000  N
  N44      1.0000 0.90800  0.57300  0.19390  Biso   1.000  N
  N45      1.0000 0.88100  0.55080  0.25290  Biso   1.000  N
  N46      1.0000 0.13100  0.17980  0.31580  Biso   1.000  N
  N47      1.0000 0.21700  0.48760  0.13580  Biso   1.000  N
  N48      1.0000 0.66200  0.35990  0.08790  Biso   1.000  N
  C49      1.0000 0.48900  0.30170  0.07210  Biso   1.000  C
  H73      1.0000 0.41850  0.28410  0.05150  Biso   1.000  H
  C50      1.0000 0.20850  0.30480  0.28630  Biso   1.000  C
  H74      1.0000 0.22450  0.36560  0.28240  Biso   1.000  H
  C51      1.0000 0.92800  0.61500  0.29180  Biso   1.000  C
  H75      1.0000 0.91820  0.61680  0.33460  Biso   1.000  H
  C52      1.0000 0.98700  0.40000  0.33210  Biso   1.000  C
  H76      1.0000 0.95090  0.43260  0.36540  Biso   1.000  H
  H77      1.0000 0.05230  0.43580  0.31720  Biso   1.000  H
  C53      1.0000 0.03800  0.31400  0.35850  Biso   1.000  C
  H78      1.0000 0.97380  0.27250  0.36600  Biso   1.000  H
  H79      1.0000 0.07950  0.32620  0.39810  Biso   1.000  H
  C54      1.0000 0.30500  0.44070  0.16230  Biso   1.000  C
  H80      1.0000 0.37100  0.46720  0.18220  Biso   1.000  H
  C55      1.0000 0.18700  0.34670  0.12780  Biso   1.000  C
  H81      1.0000 0.14900  0.29310  0.11690  Biso   1.000  H
  C56      1.0000 0.03300  0.44500  0.07770  Biso   1.000  C
  H82      1.0000 0.98300  0.39260  0.07370  Biso   1.000  H
  H83      1.0000 0.98910  0.49040  0.10000  Biso   1.000  H
  C57      1.0000 0.57800  0.38200  0.98290  Biso   1.000  C
  H84      1.0000 0.65530  0.36910  0.96530  Biso   1.000  H
  H85      1.0000 0.51680  0.35350  0.95660  Biso   1.000  H
  C58      1.0000 0.97300  0.64600  0.19870  Biso   1.000  C
  H86      1.0000 0.00490  0.67570  0.16510  Biso   1.000  H
  C59      1.0000 0.55700  0.48600  0.98580  Biso   1.000  C
  H87      1.0000 0.55780  0.51000  0.94380  Biso   1.000  H
  H88      1.0000 0.62300  0.51330  0.00940  Biso   1.000  H
  C60      1.0000 0.22500  0.16600  0.28040  Biso   1.000  C
  H89      1.0000 0.25360  0.10920  0.27040  Biso   1.000  H
  C61      1.0000 0.05700  0.48020  0.01360  Biso   1.000  C
  H90      1.0000 0.11940  0.52550  0.01610  Biso   1.000  H
  H91      1.0000 0.08420  0.43180  0.98740  Biso   1.000  H
  C62      1.0000 0.89600  0.38760  0.27960  Biso   1.000  C
  H92      1.0000 0.93570  0.37690  0.24100  Biso   1.000  H
  H93      1.0000 0.84630  0.33590  0.28790  Biso   1.000  H
  C63      1.0000 0.63100  0.32620  0.13900  Biso   1.000  C
  H94      1.0000 0.67640  0.32790  0.17590  Biso   1.000  H
  C64      1.0000 0.81500  0.47240  0.27260  Biso   1.000  C
  H95      1.0000 0.78010  0.48500  0.31230  Biso   1.000  H
  H96      1.0000 0.75090  0.46030  0.24240  Biso   1.000  H
