data_image0
_cell_length_a       13.0024
_cell_length_b       13.4765
_cell_length_c       19.0107
_cell_angle_alpha    76.294
_cell_angle_beta     85.284
_cell_angle_gamma    74.768

_symmetry_space_group_name_H-M    "P 1"
_symmetry_int_tables_number       1

loop_
  _symmetry_equiv_pos_as_xyz
  'x, y, z'

loop_
  _atom_site_label
  _atom_site_occupancy
  _atom_site_fract_x
  _atom_site_fract_y
  _atom_site_fract_z
  _atom_site_thermal_displace_type
  _atom_site_B_iso_or_equiv
  _atom_site_type_symbol
  Ni1      1.0000 0.65211  0.76605  0.85385  Biso   1.000  Ni
  Mo1      1.0000 0.79623  0.18128  0.88729  Biso   1.000  Mo
  Mo2      1.0000 0.76880  0.14109  0.07872  Biso   1.000  Mo
  Mo3      1.0000 0.01807  0.02419  0.80972  Biso   1.000  Mo
  Mo4      1.0000 0.82182  0.86267  0.10589  Biso   1.000  Mo
  Mo5      1.0000 0.82894  0.90455  0.91497  Biso   1.000  Mo
  Mo6      1.0000 0.04440  0.72251  0.01585  Biso   1.000  Mo
  O1       1.0000 0.92100  0.99730  0.06260  Biso   1.000  O
  O2       1.0000 0.95000  0.91000  0.00920  Biso   1.000  O
  O3       1.0000 0.91880  0.10480  0.99520  Biso   1.000  O
  O4       1.0000 0.93460  0.01860  0.92970  Biso   1.000  O
  O5       1.0000 0.89590  0.14350  0.81940  Biso   1.000  O
  O6       1.0000 0.75990  0.04650  0.89410  Biso   1.000  O
  O7       1.0000 0.86550  0.08300  0.15990  Biso   1.000  O
  O8       1.0000 0.74280  0.00950  0.09540  Biso   1.000  O
  O9       1.0000 0.92560  0.93770  0.83620  Biso   1.000  O
  O10      1.0000 0.93940  0.77990  0.94460  Biso   1.000  O
  O11      1.0000 0.84900  0.24500  0.05060  Biso   1.000  O
  O12      1.0000 0.10270  0.12010  0.82210  Biso   1.000  O
  O13      1.0000 0.77350  0.88540  0.00650  Biso   1.000  O
  O14      1.0000 0.75520  0.85280  0.87400  Biso   1.000  O
  O15      1.0000 0.86420  0.27360  0.90990  Biso   1.000  O
  O16      1.0000 0.92940  0.75010  0.08560  Biso   1.000  O
  O17      1.0000 0.72620  0.17280  0.98450  Biso   1.000  O
  N1       1.0000 0.60590  0.94890  0.64310  Biso   1.000  N
  N2       1.0000 0.70560  0.95070  0.64810  Biso   1.000  N
  N3       1.0000 0.65220  0.85270  0.74880  Biso   1.000  N
  N4       1.0000 0.86010  0.52090  0.78010  Biso   1.000  N
  N5       1.0000 0.93560  0.53410  0.82220  Biso   1.000  N
  N6       1.0000 0.77840  0.65050  0.82830  Biso   1.000  N
  N7       1.0000 0.65160  0.69220  0.96310  Biso   1.000  N
  N8       1.0000 0.58780  0.63450  0.07380  Biso   1.000  N
  N9       1.0000 0.68940  0.61390  0.07550  Biso   1.000  N
  N10      1.0000 0.92890  0.22770  0.30430  Biso   1.000  N
  N11      1.0000 0.01190  0.26190  0.32290  Biso   1.000  N
  N12      1.0000 0.97860  0.12450  0.40740  Biso   1.000  N
  N13      1.0000 0.06450  0.09040  0.55150  Biso   1.000  N
  N14      1.0000 0.18190  0.14780  0.60080  Biso   1.000  N
  N15      1.0000 0.08300  0.20890  0.60390  Biso   1.000  N
  C1       1.0000 0.05800  0.28060  0.65920  Biso   1.000  C
  H1       1.0000 0.12450  0.29280  0.67140  Biso   1.000  H
  H2       1.0000 0.02830  0.24480  0.70320  Biso   1.000  H
  C2       1.0000 0.91030  0.14730  0.35380  Biso   1.000  C
  H3       1.0000 0.85810  0.11230  0.35180  Biso   1.000  H
  C3       1.0000 0.98900  0.37570  0.63270  Biso   1.000  C
  H4       1.0000 0.01680  0.40940  0.58700  Biso   1.000  H
  H5       1.0000 0.92130  0.36370  0.62340  Biso   1.000  H
  C4       1.0000 0.55000  0.96960  0.53030  Biso   1.000  C
  H6       1.0000 0.61770  0.98010  0.50920  Biso   1.000  H
  H7       1.0000 0.55500  0.89440  0.54460  Biso   1.000  H
  C5       1.0000 0.52380  0.01390  0.58780  Biso   1.000  C
  H8       1.0000 0.52730  0.08700  0.57530  Biso   1.000  H
  H9       1.0000 0.45250  0.01060  0.60590  Biso   1.000  H
  C6       1.0000 0.96980  0.44980  0.68530  Biso   1.000  C
  H10      1.0000 0.95030  0.52220  0.65770  Biso   1.000  H
  H11      1.0000 0.03600  0.43980  0.70920  Biso   1.000  H
  C7       1.0000 0.82200  0.39380  0.23040  Biso   1.000  C
  H12      1.0000 0.76960  0.40140  0.26940  Biso   1.000  H
  H13      1.0000 0.87560  0.42950  0.23600  Biso   1.000  H
  C8       1.0000 0.87980  0.61070  0.85110  Biso   1.000  C
  H14      1.0000 0.90770  0.63590  0.88490  Biso   1.000  H
  C9       1.0000 0.88780  0.43410  0.73990  Biso   1.000  C
  H15      1.0000 0.82470  0.43190  0.71710  Biso   1.000  H
  H16      1.0000 0.91260  0.36700  0.77370  Biso   1.000  H
  C10      1.0000 0.16630  0.07800  0.56810  Biso   1.000  C
  H17      1.0000 0.22150  0.02380  0.55710  Biso   1.000  H
  C11      1.0000 0.72460  0.65080  0.01120  Biso   1.000  C
  H18      1.0000 0.79630  0.64780  0.00070  Biso   1.000  H
  C12      1.0000 0.87310  0.27990  0.23560  Biso   1.000  C
  H19      1.0000 0.92380  0.27260  0.19560  Biso   1.000  H
  H20      1.0000 0.81890  0.24440  0.23100  Biso   1.000  H
  C13      1.0000 0.77210  0.59000  0.78480  Biso   1.000  C
  H21      1.0000 0.71090  0.59640  0.76020  Biso   1.000  H
  C14      1.0000 0.73250  0.89100  0.71170  Biso   1.000  C
  H22      1.0000 0.80040  0.87590  0.73010  Biso   1.000  H
  C15      1.0000 0.76770  0.44550  0.15790  Biso   1.000  C
  H23      1.0000 0.70160  0.42490  0.15810  Biso   1.000  H
  H24      1.0000 0.81350  0.42070  0.11940  Biso   1.000  H
  C16      1.0000 0.56840  0.89420  0.70540  Biso   1.000  C
  H25      1.0000 0.49910  0.88720  0.71560  Biso   1.000  H
  C17      1.0000 0.74500  0.56160  0.14360  Biso   1.000  C
  H26      1.0000 0.81150  0.58190  0.14200  Biso   1.000  H
  H27      1.0000 0.70160  0.58580  0.18320  Biso   1.000  H
  C18      1.0000 0.01360  0.17270  0.57660  Biso   1.000  C
  H28      1.0000 0.94020  0.20120  0.57550  Biso   1.000  H
  C19      1.0000 0.56500  0.68900  0.00480  Biso   1.000  C
  H29      1.0000 0.49600  0.72040  0.98840  Biso   1.000  H
  C20      1.0000 0.03560  0.19620  0.38500  Biso   1.000  C
  H30      1.0000 0.09010  0.19890  0.41270  Biso   1.000  H
  Ni2      1.0000 0.34789  0.23395  0.14615  Biso   1.000  Ni
  Mo7      1.0000 0.20377  0.81872  0.11271  Biso   1.000  Mo
  Mo8      1.0000 0.23120  0.85891  0.92128  Biso   1.000  Mo
  Mo9      1.0000 0.98193  0.97581  0.19028  Biso   1.000  Mo
  Mo10     1.0000 0.17818  0.13733  0.89411  Biso   1.000  Mo
  Mo11     1.0000 0.17106  0.09545  0.08503  Biso   1.000  Mo
  Mo12     1.0000 0.95560  0.27749  0.98415  Biso   1.000  Mo
  O18      1.0000 0.07900  0.00270  0.93740  Biso   1.000  O
  O19      1.0000 0.05000  0.09000  0.99080  Biso   1.000  O
  O20      1.0000 0.08120  0.89520  0.00480  Biso   1.000  O
  O21      1.0000 0.06540  0.98140  0.07030  Biso   1.000  O
  O22      1.0000 0.10410  0.85650  0.18060  Biso   1.000  O
  O23      1.0000 0.24010  0.95350  0.10590  Biso   1.000  O
  O24      1.0000 0.13450  0.91700  0.84010  Biso   1.000  O
  O25      1.0000 0.25720  0.99050  0.90460  Biso   1.000  O
  O26      1.0000 0.07440  0.06230  0.16380  Biso   1.000  O
  O27      1.0000 0.06060  0.22010  0.05540  Biso   1.000  O
  O28      1.0000 0.15100  0.75500  0.94940  Biso   1.000  O
  O29      1.0000 0.89730  0.87990  0.17790  Biso   1.000  O
  O30      1.0000 0.22650  0.11460  0.99350  Biso   1.000  O
  O31      1.0000 0.24480  0.14720  0.12600  Biso   1.000  O
  O32      1.0000 0.13580  0.72640  0.09010  Biso   1.000  O
  O33      1.0000 0.07060  0.24990  0.91440  Biso   1.000  O
  O34      1.0000 0.27380  0.82720  0.01550  Biso   1.000  O
  N16      1.0000 0.39410  0.05110  0.35690  Biso   1.000  N
  N17      1.0000 0.29440  0.04930  0.35190  Biso   1.000  N
  N18      1.0000 0.34780  0.14730  0.25120  Biso   1.000  N
  N19      1.0000 0.13990  0.47910  0.21990  Biso   1.000  N
  N20      1.0000 0.06440  0.46590  0.17780  Biso   1.000  N
  N21      1.0000 0.22160  0.34950  0.17170  Biso   1.000  N
  N22      1.0000 0.34840  0.30780  0.03690  Biso   1.000  N
  N23      1.0000 0.41220  0.36550  0.92620  Biso   1.000  N
  N24      1.0000 0.31060  0.38610  0.92450  Biso   1.000  N
  N25      1.0000 0.07110  0.77230  0.69570  Biso   1.000  N
  N26      1.0000 0.98810  0.73810  0.67710  Biso   1.000  N
  N27      1.0000 0.02140  0.87550  0.59260  Biso   1.000  N
  N28      1.0000 0.93550  0.90960  0.44850  Biso   1.000  N
  N29      1.0000 0.81810  0.85220  0.39920  Biso   1.000  N
  N30      1.0000 0.91700  0.79110  0.39610  Biso   1.000  N
  C21      1.0000 0.94200  0.71940  0.34080  Biso   1.000  C
  H31      1.0000 0.87550  0.70720  0.32860  Biso   1.000  H
  H32      1.0000 0.97170  0.75520  0.29680  Biso   1.000  H
  C22      1.0000 0.08970  0.85270  0.64620  Biso   1.000  C
  H33      1.0000 0.14190  0.88770  0.64820  Biso   1.000  H
  C23      1.0000 0.01100  0.62430  0.36730  Biso   1.000  C
  H34      1.0000 0.98320  0.59060  0.41300  Biso   1.000  H
  H35      1.0000 0.07870  0.63630  0.37660  Biso   1.000  H
  C24      1.0000 0.45000  0.03040  0.46970  Biso   1.000  C
  H36      1.0000 0.38230  0.01990  0.49080  Biso   1.000  H
  H37      1.0000 0.44500  0.10560  0.45540  Biso   1.000  H
  C25      1.0000 0.47620  0.98610  0.41220  Biso   1.000  C
  H38      1.0000 0.47270  0.91300  0.42470  Biso   1.000  H
  H39      1.0000 0.54750  0.98940  0.39410  Biso   1.000  H
  C26      1.0000 0.03020  0.55020  0.31470  Biso   1.000  C
  H40      1.0000 0.04970  0.47780  0.34230  Biso   1.000  H
  H41      1.0000 0.96400  0.56020  0.29080  Biso   1.000  H
  C27      1.0000 0.17800  0.60620  0.76960  Biso   1.000  C
  H42      1.0000 0.23040  0.59860  0.73060  Biso   1.000  H
  H43      1.0000 0.12440  0.57050  0.76400  Biso   1.000  H
  C28      1.0000 0.12020  0.38930  0.14890  Biso   1.000  C
  H44      1.0000 0.09230  0.36410  0.11510  Biso   1.000  H
  C29      1.0000 0.11220  0.56590  0.26010  Biso   1.000  C
  H45      1.0000 0.17530  0.56810  0.28290  Biso   1.000  H
  H46      1.0000 0.08740  0.63300  0.22630  Biso   1.000  H
  C30      1.0000 0.83370  0.92200  0.43190  Biso   1.000  C
  H47      1.0000 0.77850  0.97620  0.44290  Biso   1.000  H
  C31      1.0000 0.27540  0.34920  0.98880  Biso   1.000  C
  H48      1.0000 0.20370  0.35220  0.99930  Biso   1.000  H
  C32      1.0000 0.12690  0.72010  0.76440  Biso   1.000  C
  H49      1.0000 0.07620  0.72740  0.80440  Biso   1.000  H
  H50      1.0000 0.18110  0.75560  0.76900  Biso   1.000  H
  C33      1.0000 0.22790  0.41000  0.21520  Biso   1.000  C
  H51      1.0000 0.28910  0.40360  0.23980  Biso   1.000  H
  C34      1.0000 0.26750  0.10900  0.28830  Biso   1.000  C
  H52      1.0000 0.19960  0.12410  0.26990  Biso   1.000  H
  C35      1.0000 0.23230  0.55450  0.84210  Biso   1.000  C
  H53      1.0000 0.29840  0.57510  0.84190  Biso   1.000  H
  H54      1.0000 0.18650  0.57930  0.88060  Biso   1.000  H
  C36      1.0000 0.43160  0.10580  0.29460  Biso   1.000  C
  H55      1.0000 0.50090  0.11280  0.28440  Biso   1.000  H
  C37      1.0000 0.25500  0.43840  0.85640  Biso   1.000  C
  H56      1.0000 0.18850  0.41810  0.85800  Biso   1.000  H
  H57      1.0000 0.29840  0.41420  0.81680  Biso   1.000  H
  C38      1.0000 0.98640  0.82730  0.42340  Biso   1.000  C
  H58      1.0000 0.05980  0.79880  0.42450  Biso   1.000  H
  C39      1.0000 0.43500  0.31100  0.99520  Biso   1.000  C
  H59      1.0000 0.50400  0.27960  0.01160  Biso   1.000  H
  C40      1.0000 0.96440  0.80380  0.61500  Biso   1.000  C
  H60      1.0000 0.90990  0.80110  0.58730  Biso   1.000  H
  Ni3      1.0000 0.00000  0.00000  0.50000  Biso   1.000  Ni
  P1       1.0000 0.00000  0.00000  0.00000  Biso   1.000  P
