data_image0
_cell_length_a       19.1501
_cell_length_b       19.1501
_cell_length_c       11.119
_cell_angle_alpha    90
_cell_angle_beta     90
_cell_angle_gamma    90

_symmetry_space_group_name_H-M    "P 1"
_symmetry_int_tables_number       1

loop_
  _symmetry_equiv_pos_as_xyz
  'x, y, z'

loop_
  _atom_site_label
  _atom_site_occupancy
  _atom_site_fract_x
  _atom_site_fract_y
  _atom_site_fract_z
  _atom_site_thermal_displace_type
  _atom_site_B_iso_or_equiv
  _atom_site_type_symbol
  C1       1.0000 0.57920  0.30920  0.24230  Biso   1.000  C
  H1       1.0000 0.59410  0.35110  0.27590  Biso   1.000  H
  C2       1.0000 0.53430  0.31190  0.14580  Biso   1.000  C
  C3       1.0000 0.51590  0.38160  0.09210  Biso   1.000  C
  O1       1.0000 0.48380  0.38150  0.99430  Biso   1.000  O
  O2       1.0000 0.53640  0.43400  0.14980  Biso   1.000  O
  C4       1.0000 0.92080  0.19080  0.24230  Biso   1.000  C
  H2       1.0000 0.90590  0.14890  0.27590  Biso   1.000  H
  C5       1.0000 0.96570  0.18810  0.14580  Biso   1.000  C
  C6       1.0000 0.98410  0.11840  0.09210  Biso   1.000  C
  O3       1.0000 0.01620  0.11850  0.99430  Biso   1.000  O
  O4       1.0000 0.96360  0.06600  0.14980  Biso   1.000  O
  C7       1.0000 0.19080  0.57920  0.24230  Biso   1.000  C
  H3       1.0000 0.14890  0.59410  0.27590  Biso   1.000  H
  C8       1.0000 0.18810  0.53430  0.14580  Biso   1.000  C
  C9       1.0000 0.11840  0.51590  0.09210  Biso   1.000  C
  O5       1.0000 0.11850  0.48380  0.99430  Biso   1.000  O
  O6       1.0000 0.06600  0.53640  0.14980  Biso   1.000  O
  C10      1.0000 0.30920  0.92080  0.24230  Biso   1.000  C
  H4       1.0000 0.35110  0.90590  0.27590  Biso   1.000  H
  C11      1.0000 0.31190  0.96570  0.14580  Biso   1.000  C
  C12      1.0000 0.38160  0.98410  0.09210  Biso   1.000  C
  O7       1.0000 0.38150  0.01620  0.99430  Biso   1.000  O
  O8       1.0000 0.43400  0.96360  0.14980  Biso   1.000  O
  C13      1.0000 0.42080  0.80920  0.75770  Biso   1.000  C
  H5       1.0000 0.40590  0.85110  0.72410  Biso   1.000  H
  C14      1.0000 0.46570  0.81190  0.85420  Biso   1.000  C
  C15      1.0000 0.48410  0.88160  0.90790  Biso   1.000  C
  O9       1.0000 0.51620  0.88150  0.00570  Biso   1.000  O
  O10      1.0000 0.46360  0.93400  0.85020  Biso   1.000  O
  C16      1.0000 0.07920  0.69080  0.75770  Biso   1.000  C
  H6       1.0000 0.09410  0.64890  0.72410  Biso   1.000  H
  C17      1.0000 0.03430  0.68810  0.85420  Biso   1.000  C
  C18      1.0000 0.01590  0.61840  0.90790  Biso   1.000  C
  O11      1.0000 0.98380  0.61850  0.00570  Biso   1.000  O
  O12      1.0000 0.03640  0.56600  0.85020  Biso   1.000  O
  C19      1.0000 0.80920  0.07920  0.75770  Biso   1.000  C
  H7       1.0000 0.85110  0.09410  0.72410  Biso   1.000  H
  C20      1.0000 0.81190  0.03430  0.85420  Biso   1.000  C
  C21      1.0000 0.88160  0.01590  0.90790  Biso   1.000  C
  O13      1.0000 0.88150  0.98380  0.00570  Biso   1.000  O
  O14      1.0000 0.93400  0.03640  0.85020  Biso   1.000  O
  C22      1.0000 0.69080  0.42080  0.75770  Biso   1.000  C
  H8       1.0000 0.64890  0.40590  0.72410  Biso   1.000  H
  C23      1.0000 0.68810  0.46570  0.85420  Biso   1.000  C
  C24      1.0000 0.61840  0.48410  0.90790  Biso   1.000  C
  O15      1.0000 0.61850  0.51620  0.00570  Biso   1.000  O
  O16      1.0000 0.56600  0.46360  0.85020  Biso   1.000  O
  C25      1.0000 0.42080  0.69080  0.75770  Biso   1.000  C
  H9       1.0000 0.40590  0.64890  0.72410  Biso   1.000  H
  C26      1.0000 0.46570  0.68810  0.85420  Biso   1.000  C
  C27      1.0000 0.48410  0.61840  0.90790  Biso   1.000  C
  O17      1.0000 0.51620  0.61850  0.00570  Biso   1.000  O
  O18      1.0000 0.46360  0.56600  0.85020  Biso   1.000  O
  C28      1.0000 0.07920  0.80920  0.75770  Biso   1.000  C
  H10      1.0000 0.09410  0.85110  0.72410  Biso   1.000  H
  C29      1.0000 0.03430  0.81190  0.85420  Biso   1.000  C
  C30      1.0000 0.01590  0.88160  0.90790  Biso   1.000  C
  O19      1.0000 0.98380  0.88150  0.00570  Biso   1.000  O
  O20      1.0000 0.03640  0.93400  0.85020  Biso   1.000  O
  C31      1.0000 0.80920  0.42080  0.75770  Biso   1.000  C
  H11      1.0000 0.85110  0.40590  0.72410  Biso   1.000  H
  C32      1.0000 0.81190  0.46570  0.85420  Biso   1.000  C
  C33      1.0000 0.88160  0.48410  0.90790  Biso   1.000  C
  O21      1.0000 0.88150  0.51620  0.00570  Biso   1.000  O
  O22      1.0000 0.93400  0.46360  0.85020  Biso   1.000  O
  C34      1.0000 0.69080  0.07920  0.75770  Biso   1.000  C
  H12      1.0000 0.64890  0.09410  0.72410  Biso   1.000  H
  C35      1.0000 0.68810  0.03430  0.85420  Biso   1.000  C
  C36      1.0000 0.61840  0.01590  0.90790  Biso   1.000  C
  O23      1.0000 0.61850  0.98380  0.00570  Biso   1.000  O
  O24      1.0000 0.56600  0.03640  0.85020  Biso   1.000  O
  C37      1.0000 0.57920  0.19080  0.24230  Biso   1.000  C
  H13      1.0000 0.59410  0.14890  0.27590  Biso   1.000  H
  C38      1.0000 0.53430  0.18810  0.14580  Biso   1.000  C
  C39      1.0000 0.51590  0.11840  0.09210  Biso   1.000  C
  O25      1.0000 0.48380  0.11850  0.99430  Biso   1.000  O
  O26      1.0000 0.53640  0.06600  0.14980  Biso   1.000  O
  C40      1.0000 0.92080  0.30920  0.24230  Biso   1.000  C
  H14      1.0000 0.90590  0.35110  0.27590  Biso   1.000  H
  C41      1.0000 0.96570  0.31190  0.14580  Biso   1.000  C
  C42      1.0000 0.98410  0.38160  0.09210  Biso   1.000  C
  O27      1.0000 0.01620  0.38150  0.99430  Biso   1.000  O
  O28      1.0000 0.96360  0.43400  0.14980  Biso   1.000  O
  C43      1.0000 0.19080  0.92080  0.24230  Biso   1.000  C
  H15      1.0000 0.14890  0.90590  0.27590  Biso   1.000  H
  C44      1.0000 0.18810  0.96570  0.14580  Biso   1.000  C
  C45      1.0000 0.11840  0.98410  0.09210  Biso   1.000  C
  O29      1.0000 0.11850  0.01620  0.99430  Biso   1.000  O
  O30      1.0000 0.06600  0.96360  0.14980  Biso   1.000  O
  C46      1.0000 0.30920  0.57920  0.24230  Biso   1.000  C
  H16      1.0000 0.35110  0.59410  0.27590  Biso   1.000  H
  C47      1.0000 0.31190  0.53430  0.14580  Biso   1.000  C
  C48      1.0000 0.38160  0.51590  0.09210  Biso   1.000  C
  O31      1.0000 0.38150  0.48380  0.99430  Biso   1.000  O
  O32      1.0000 0.43400  0.53640  0.14980  Biso   1.000  O
  C49      1.0000 0.51170  0.25000  0.09580  Biso   1.000  C
  H17      1.0000 0.48190  0.25000  0.02970  Biso   1.000  H
  Cu1      1.0000 0.68080  0.25000  0.41440  Biso   1.000  Cu
  I1       1.0000 0.62920  0.25000  0.63430  Biso   1.000  I
  N1       1.0000 0.60240  0.25000  0.29030  Biso   1.000  N
  C50      1.0000 0.98830  0.25000  0.09580  Biso   1.000  C
  H18      1.0000 0.01810  0.25000  0.02970  Biso   1.000  H
  Cu2      1.0000 0.81920  0.25000  0.41440  Biso   1.000  Cu
  I2       1.0000 0.87080  0.25000  0.63430  Biso   1.000  I
  N2       1.0000 0.89760  0.25000  0.29030  Biso   1.000  N
  C51      1.0000 0.25000  0.51170  0.09580  Biso   1.000  C
  H19      1.0000 0.25000  0.48190  0.02970  Biso   1.000  H
  Cu3      1.0000 0.25000  0.68080  0.41440  Biso   1.000  Cu
  I3       1.0000 0.25000  0.62920  0.63430  Biso   1.000  I
  N3       1.0000 0.25000  0.60240  0.29030  Biso   1.000  N
  C52      1.0000 0.25000  0.98830  0.09580  Biso   1.000  C
  H20      1.0000 0.25000  0.01810  0.02970  Biso   1.000  H
  Cu4      1.0000 0.25000  0.81920  0.41440  Biso   1.000  Cu
  I4       1.0000 0.25000  0.87080  0.63430  Biso   1.000  I
  N4       1.0000 0.25000  0.89760  0.29030  Biso   1.000  N
  C53      1.0000 0.48830  0.75000  0.90420  Biso   1.000  C
  H21      1.0000 0.51810  0.75000  0.97030  Biso   1.000  H
  Cu5      1.0000 0.31920  0.75000  0.58560  Biso   1.000  Cu
  I5       1.0000 0.37080  0.75000  0.36570  Biso   1.000  I
  N5       1.0000 0.39760  0.75000  0.70970  Biso   1.000  N
  C54      1.0000 0.01170  0.75000  0.90420  Biso   1.000  C
  H22      1.0000 0.98190  0.75000  0.97030  Biso   1.000  H
  Cu6      1.0000 0.18080  0.75000  0.58560  Biso   1.000  Cu
  I6       1.0000 0.12920  0.75000  0.36570  Biso   1.000  I
  N6       1.0000 0.10240  0.75000  0.70970  Biso   1.000  N
  C55      1.0000 0.75000  0.01170  0.90420  Biso   1.000  C
  H23      1.0000 0.75000  0.98190  0.97030  Biso   1.000  H
  Cu7      1.0000 0.75000  0.18080  0.58560  Biso   1.000  Cu
  I7       1.0000 0.75000  0.12920  0.36570  Biso   1.000  I
  N7       1.0000 0.75000  0.10240  0.70970  Biso   1.000  N
  C56      1.0000 0.75000  0.48830  0.90420  Biso   1.000  C
  H24      1.0000 0.75000  0.51810  0.97030  Biso   1.000  H
  Cu8      1.0000 0.75000  0.31920  0.58560  Biso   1.000  Cu
  I8       1.0000 0.75000  0.37080  0.36570  Biso   1.000  I
  N8       1.0000 0.75000  0.39760  0.70970  Biso   1.000  N
  Cu9      1.0000 0.53090  0.53090  0.09340  Biso   1.000  Cu
  Cu10     1.0000 0.96910  0.96910  0.09340  Biso   1.000  Cu
  Cu11     1.0000 0.96910  0.53090  0.09340  Biso   1.000  Cu
  Cu12     1.0000 0.53090  0.96910  0.09340  Biso   1.000  Cu
  Cu13     1.0000 0.46910  0.03090  0.90660  Biso   1.000  Cu
  Cu14     1.0000 0.03090  0.46910  0.90660  Biso   1.000  Cu
  Cu15     1.0000 0.03090  0.03090  0.90660  Biso   1.000  Cu
  Cu16     1.0000 0.46910  0.46910  0.90660  Biso   1.000  Cu
