data_image0
_cell_length_a       19.3577
_cell_length_b       19.3577
_cell_length_c       11.0242
_cell_angle_alpha    90
_cell_angle_beta     90
_cell_angle_gamma    90

_symmetry_space_group_name_H-M    "P 1"
_symmetry_int_tables_number       1

loop_
  _symmetry_equiv_pos_as_xyz
  'x, y, z'

loop_
  _atom_site_label
  _atom_site_occupancy
  _atom_site_fract_x
  _atom_site_fract_y
  _atom_site_fract_z
  _atom_site_thermal_displace_type
  _atom_site_B_iso_or_equiv
  _atom_site_type_symbol
  C1       1.0000 0.30830  0.57930  0.25990  Biso   1.000  C
  H1       1.0000 0.34970  0.59530  0.22800  Biso   1.000  H
  C2       1.0000 0.31150  0.53370  0.35590  Biso   1.000  C
  C3       1.0000 0.38110  0.51570  0.41110  Biso   1.000  C
  O1       1.0000 0.38040  0.48340  0.50840  Biso   1.000  O
  O2       1.0000 0.43190  0.53540  0.35360  Biso   1.000  O
  C4       1.0000 0.19170  0.92070  0.25990  Biso   1.000  C
  H2       1.0000 0.15030  0.90470  0.22800  Biso   1.000  H
  C5       1.0000 0.18850  0.96630  0.35590  Biso   1.000  C
  C6       1.0000 0.11890  0.98430  0.41110  Biso   1.000  C
  O3       1.0000 0.11960  0.01660  0.50840  Biso   1.000  O
  O4       1.0000 0.06810  0.96460  0.35360  Biso   1.000  O
  C7       1.0000 0.92070  0.30830  0.25990  Biso   1.000  C
  H3       1.0000 0.90470  0.34970  0.22800  Biso   1.000  H
  C8       1.0000 0.96630  0.31150  0.35590  Biso   1.000  C
  C9       1.0000 0.98430  0.38110  0.41110  Biso   1.000  C
  O5       1.0000 0.01660  0.38040  0.50840  Biso   1.000  O
  O6       1.0000 0.96460  0.43190  0.35360  Biso   1.000  O
  C10      1.0000 0.57930  0.19170  0.25990  Biso   1.000  C
  H4       1.0000 0.59530  0.15030  0.22800  Biso   1.000  H
  C11      1.0000 0.53370  0.18850  0.35590  Biso   1.000  C
  C12      1.0000 0.51570  0.11890  0.41110  Biso   1.000  C
  O7       1.0000 0.48340  0.11960  0.50840  Biso   1.000  O
  O8       1.0000 0.53540  0.06810  0.35360  Biso   1.000  O
  C13      1.0000 0.69170  0.07930  0.74010  Biso   1.000  C
  H5       1.0000 0.65030  0.09530  0.77200  Biso   1.000  H
  C14      1.0000 0.68850  0.03370  0.64410  Biso   1.000  C
  C15      1.0000 0.61890  0.01570  0.58890  Biso   1.000  C
  O9       1.0000 0.61960  0.98340  0.49160  Biso   1.000  O
  O10      1.0000 0.56810  0.03540  0.64640  Biso   1.000  O
  C16      1.0000 0.80830  0.42070  0.74010  Biso   1.000  C
  H6       1.0000 0.84970  0.40470  0.77200  Biso   1.000  H
  C17      1.0000 0.81150  0.46630  0.64410  Biso   1.000  C
  C18      1.0000 0.88110  0.48430  0.58890  Biso   1.000  C
  O11      1.0000 0.88040  0.51660  0.49160  Biso   1.000  O
  O12      1.0000 0.93190  0.46460  0.64640  Biso   1.000  O
  C19      1.0000 0.07930  0.80830  0.74010  Biso   1.000  C
  H7       1.0000 0.09530  0.84970  0.77200  Biso   1.000  H
  C20      1.0000 0.03370  0.81150  0.64410  Biso   1.000  C
  C21      1.0000 0.01570  0.88110  0.58890  Biso   1.000  C
  O13      1.0000 0.98340  0.88040  0.49160  Biso   1.000  O
  O14      1.0000 0.03540  0.93190  0.64640  Biso   1.000  O
  C22      1.0000 0.42070  0.69170  0.74010  Biso   1.000  C
  H8       1.0000 0.40470  0.65030  0.77200  Biso   1.000  H
  C23      1.0000 0.46630  0.68850  0.64410  Biso   1.000  C
  C24      1.0000 0.48430  0.61890  0.58890  Biso   1.000  C
  O15      1.0000 0.51660  0.61960  0.49160  Biso   1.000  O
  O16      1.0000 0.46460  0.56810  0.64640  Biso   1.000  O
  C25      1.0000 0.69170  0.42070  0.74010  Biso   1.000  C
  H9       1.0000 0.65030  0.40470  0.77200  Biso   1.000  H
  C26      1.0000 0.68850  0.46630  0.64410  Biso   1.000  C
  C27      1.0000 0.61890  0.48430  0.58890  Biso   1.000  C
  O17      1.0000 0.61960  0.51660  0.49160  Biso   1.000  O
  O18      1.0000 0.56810  0.46460  0.64640  Biso   1.000  O
  C28      1.0000 0.80830  0.07930  0.74010  Biso   1.000  C
  H10      1.0000 0.84970  0.09530  0.77200  Biso   1.000  H
  C29      1.0000 0.81150  0.03370  0.64410  Biso   1.000  C
  C30      1.0000 0.88110  0.01570  0.58890  Biso   1.000  C
  O19      1.0000 0.88040  0.98340  0.49160  Biso   1.000  O
  O20      1.0000 0.93190  0.03540  0.64640  Biso   1.000  O
  C31      1.0000 0.07930  0.69170  0.74010  Biso   1.000  C
  H11      1.0000 0.09530  0.65030  0.77200  Biso   1.000  H
  C32      1.0000 0.03370  0.68850  0.64410  Biso   1.000  C
  C33      1.0000 0.01570  0.61890  0.58890  Biso   1.000  C
  O21      1.0000 0.98340  0.61960  0.49160  Biso   1.000  O
  O22      1.0000 0.03540  0.56810  0.64640  Biso   1.000  O
  C34      1.0000 0.42070  0.80830  0.74010  Biso   1.000  C
  H12      1.0000 0.40470  0.84970  0.77200  Biso   1.000  H
  C35      1.0000 0.46630  0.81150  0.64410  Biso   1.000  C
  C36      1.0000 0.48430  0.88110  0.58890  Biso   1.000  C
  O23      1.0000 0.51660  0.88040  0.49160  Biso   1.000  O
  O24      1.0000 0.46460  0.93190  0.64640  Biso   1.000  O
  C37      1.0000 0.30830  0.92070  0.25990  Biso   1.000  C
  H13      1.0000 0.34970  0.90470  0.22800  Biso   1.000  H
  C38      1.0000 0.31150  0.96630  0.35590  Biso   1.000  C
  C39      1.0000 0.38110  0.98430  0.41110  Biso   1.000  C
  O25      1.0000 0.38040  0.01660  0.50840  Biso   1.000  O
  O26      1.0000 0.43190  0.96460  0.35360  Biso   1.000  O
  C40      1.0000 0.19170  0.57930  0.25990  Biso   1.000  C
  H14      1.0000 0.15030  0.59530  0.22800  Biso   1.000  H
  C41      1.0000 0.18850  0.53370  0.35590  Biso   1.000  C
  C42      1.0000 0.11890  0.51570  0.41110  Biso   1.000  C
  O27      1.0000 0.11960  0.48340  0.50840  Biso   1.000  O
  O28      1.0000 0.06810  0.53540  0.35360  Biso   1.000  O
  C43      1.0000 0.92070  0.19170  0.25990  Biso   1.000  C
  H15      1.0000 0.90470  0.15030  0.22800  Biso   1.000  H
  C44      1.0000 0.96630  0.18850  0.35590  Biso   1.000  C
  C45      1.0000 0.98430  0.11890  0.41110  Biso   1.000  C
  O29      1.0000 0.01660  0.11960  0.50840  Biso   1.000  O
  O30      1.0000 0.96460  0.06810  0.35360  Biso   1.000  O
  C46      1.0000 0.57930  0.30830  0.25990  Biso   1.000  C
  H16      1.0000 0.59530  0.34970  0.22800  Biso   1.000  H
  C47      1.0000 0.53370  0.31150  0.35590  Biso   1.000  C
  C48      1.0000 0.51570  0.38110  0.41110  Biso   1.000  C
  O31      1.0000 0.48340  0.38040  0.50840  Biso   1.000  O
  O32      1.0000 0.53540  0.43190  0.35360  Biso   1.000  O
  Cu1      1.0000 0.25000  0.68089  0.08787  Biso   1.000  Cu
  I1       1.0000 0.25000  0.63108  0.86473  Biso   1.000  I
  C49      1.0000 0.25000  0.51190  0.40600  Biso   1.000  C
  H17      1.0000 0.25000  0.48260  0.47290  Biso   1.000  H
  N1       1.0000 0.25000  0.60170  0.21000  Biso   1.000  N
  Cu2      1.0000 0.25000  0.81911  0.08787  Biso   1.000  Cu
  I2       1.0000 0.25000  0.86892  0.86473  Biso   1.000  I
  C50      1.0000 0.25000  0.98810  0.40600  Biso   1.000  C
  H18      1.0000 0.25000  0.01740  0.47290  Biso   1.000  H
  N2       1.0000 0.25000  0.89830  0.21000  Biso   1.000  N
  Cu3      1.0000 0.81911  0.25000  0.08787  Biso   1.000  Cu
  I3       1.0000 0.86892  0.25000  0.86473  Biso   1.000  I
  C51      1.0000 0.98810  0.25000  0.40600  Biso   1.000  C
  H19      1.0000 0.01740  0.25000  0.47290  Biso   1.000  H
  N3       1.0000 0.89830  0.25000  0.21000  Biso   1.000  N
  Cu4      1.0000 0.68089  0.25000  0.08787  Biso   1.000  Cu
  I4       1.0000 0.63108  0.25000  0.86473  Biso   1.000  I
  C52      1.0000 0.51190  0.25000  0.40600  Biso   1.000  C
  H20      1.0000 0.48260  0.25000  0.47290  Biso   1.000  H
  N4       1.0000 0.60170  0.25000  0.21000  Biso   1.000  N
  Cu5      1.0000 0.75000  0.18089  0.91213  Biso   1.000  Cu
  I5       1.0000 0.75000  0.13108  0.13527  Biso   1.000  I
  C53      1.0000 0.75000  0.01190  0.59400  Biso   1.000  C
  H21      1.0000 0.75000  0.98260  0.52710  Biso   1.000  H
  N5       1.0000 0.75000  0.10170  0.79000  Biso   1.000  N
  Cu6      1.0000 0.75000  0.31911  0.91213  Biso   1.000  Cu
  I6       1.0000 0.75000  0.36892  0.13527  Biso   1.000  I
  C54      1.0000 0.75000  0.48810  0.59400  Biso   1.000  C
  H22      1.0000 0.75000  0.51740  0.52710  Biso   1.000  H
  N6       1.0000 0.75000  0.39830  0.79000  Biso   1.000  N
  Cu7      1.0000 0.18089  0.75000  0.91213  Biso   1.000  Cu
  I7       1.0000 0.13108  0.75000  0.13527  Biso   1.000  I
  C55      1.0000 0.01190  0.75000  0.59400  Biso   1.000  C
  H23      1.0000 0.98260  0.75000  0.52710  Biso   1.000  H
  N7       1.0000 0.10170  0.75000  0.79000  Biso   1.000  N
  Cu8      1.0000 0.31911  0.75000  0.91213  Biso   1.000  Cu
  I8       1.0000 0.36892  0.75000  0.13527  Biso   1.000  I
  C56      1.0000 0.48810  0.75000  0.59400  Biso   1.000  C
  H24      1.0000 0.51740  0.75000  0.52710  Biso   1.000  H
  N8       1.0000 0.39830  0.75000  0.79000  Biso   1.000  N
  Cu9      1.0000 0.46747  0.46747  0.60140  Biso   1.000  Cu
  Cu10     1.0000 0.03253  0.03253  0.60140  Biso   1.000  Cu
  Cu11     1.0000 0.03253  0.46747  0.60140  Biso   1.000  Cu
  Cu12     1.0000 0.46747  0.03253  0.60140  Biso   1.000  Cu
  Cu13     1.0000 0.53253  0.96747  0.39860  Biso   1.000  Cu
  Cu14     1.0000 0.96747  0.53253  0.39860  Biso   1.000  Cu
  Cu15     1.0000 0.96747  0.96747  0.39860  Biso   1.000  Cu
  Cu16     1.0000 0.53253  0.53253  0.39860  Biso   1.000  Cu
