data_image0
_cell_length_a       18.196
_cell_length_b       18.196
_cell_length_c       15.127
_cell_angle_alpha    90
_cell_angle_beta     90
_cell_angle_gamma    120

_symmetry_space_group_name_H-M    "P 1"
_symmetry_int_tables_number       1

loop_
  _symmetry_equiv_pos_as_xyz
  'x, y, z'

loop_
  _atom_site_label
  _atom_site_occupancy
  _atom_site_fract_x
  _atom_site_fract_y
  _atom_site_fract_z
  _atom_site_thermal_displace_type
  _atom_site_B_iso_or_equiv
  _atom_site_type_symbol
  C1       1.0000 0.05670  0.32480  0.82190  Biso   1.000  C
  C2       1.0000 0.96610  0.27160  0.85330  Biso   1.000  C
  C3       1.0000 0.94140  0.19810  0.89970  Biso   1.000  C
  H1       1.0000 0.98170  0.18130  0.91370  Biso   1.000  H
  C4       1.0000 0.90920  0.29760  0.83860  Biso   1.000  C
  H2       1.0000 0.92660  0.34980  0.80890  Biso   1.000  H
  C5       1.0000 0.85750  0.14840  0.92620  Biso   1.000  C
  H3       1.0000 0.83980  0.09680  0.95720  Biso   1.000  H
  C6       1.0000 0.82600  0.24900  0.86650  Biso   1.000  C
  H4       1.0000 0.78670  0.26810  0.85670  Biso   1.000  H
  C7       1.0000 0.80080  0.17450  0.90740  Biso   1.000  C
  C8       1.0000 0.67850  0.15230  0.98980  Biso   1.000  C
  H5       1.0000 0.71210  0.20860  0.01140  Biso   1.000  H
  C9       1.0000 0.66860  0.04150  0.91140  Biso   1.000  C
  H6       1.0000 0.69530  0.01700  0.87820  Biso   1.000  H
  C10      1.0000 0.59620  0.10520  0.01710  Biso   1.000  C
  H7       1.0000 0.57440  0.12840  0.05890  Biso   1.000  H
  C11      1.0000 0.58450  0.99280  0.93500  Biso   1.000  C
  H8       1.0000 0.55300  0.93550  0.91590  Biso   1.000  H
  C12      1.0000 0.54530  0.02600  0.98570  Biso   1.000  C
  N1       1.0000 0.71230  0.12250  0.93510  Biso   1.000  N
  O1       1.0000 0.11390  0.31510  0.85470  Biso   1.000  O
  O2       1.0000 0.07180  0.37720  0.76330  Biso   1.000  O
  Cl1      1.0000 0.22970  0.54043  0.64607  Biso   1.000  Cl
  C13      1.0000 0.67520  0.73190  0.82190  Biso   1.000  C
  C14      1.0000 0.72840  0.69450  0.85330  Biso   1.000  C
  C15      1.0000 0.80190  0.74330  0.89970  Biso   1.000  C
  H9       1.0000 0.81870  0.80040  0.91370  Biso   1.000  H
  C16      1.0000 0.70240  0.61160  0.83860  Biso   1.000  C
  H10      1.0000 0.65020  0.57680  0.80890  Biso   1.000  H
  C17      1.0000 0.85160  0.70910  0.92620  Biso   1.000  C
  H11      1.0000 0.90320  0.74300  0.95720  Biso   1.000  H
  C18      1.0000 0.75100  0.57700  0.86650  Biso   1.000  C
  H12      1.0000 0.73190  0.51860  0.85670  Biso   1.000  H
  C19      1.0000 0.82550  0.62630  0.90740  Biso   1.000  C
  C20      1.0000 0.84770  0.52620  0.98980  Biso   1.000  C
  H13      1.0000 0.79140  0.50350  0.01140  Biso   1.000  H
  C21      1.0000 0.95850  0.62710  0.91140  Biso   1.000  C
  H14      1.0000 0.98300  0.67830  0.87820  Biso   1.000  H
  C22      1.0000 0.89480  0.49100  0.01710  Biso   1.000  C
  H15      1.0000 0.87160  0.44600  0.05890  Biso   1.000  H
  C23      1.0000 0.00720  0.59170  0.93500  Biso   1.000  C
  H16      1.0000 0.06450  0.61750  0.91590  Biso   1.000  H
  C24      1.0000 0.97400  0.51930  0.98570  Biso   1.000  C
  N2       1.0000 0.87750  0.58980  0.93510  Biso   1.000  N
  O3       1.0000 0.68490  0.79880  0.85470  Biso   1.000  O
  O4       1.0000 0.62280  0.69460  0.76330  Biso   1.000  O
  Cl2      1.0000 0.45957  0.68927  0.64607  Biso   1.000  Cl
  C25      1.0000 0.26810  0.94330  0.82190  Biso   1.000  C
  C26      1.0000 0.30550  0.03390  0.85330  Biso   1.000  C
  C27      1.0000 0.25670  0.05860  0.89970  Biso   1.000  C
  H17      1.0000 0.19960  0.01830  0.91370  Biso   1.000  H
  C28      1.0000 0.38840  0.09080  0.83860  Biso   1.000  C
  H18      1.0000 0.42320  0.07340  0.80890  Biso   1.000  H
  C29      1.0000 0.29090  0.14250  0.92620  Biso   1.000  C
  H19      1.0000 0.25700  0.16020  0.95720  Biso   1.000  H
  C30      1.0000 0.42300  0.17400  0.86650  Biso   1.000  C
  H20      1.0000 0.48140  0.21330  0.85670  Biso   1.000  H
  C31      1.0000 0.37370  0.19920  0.90740  Biso   1.000  C
  C32      1.0000 0.47380  0.32150  0.98980  Biso   1.000  C
  H21      1.0000 0.49650  0.28790  0.01140  Biso   1.000  H
  C33      1.0000 0.37290  0.33140  0.91140  Biso   1.000  C
  H22      1.0000 0.32170  0.30470  0.87820  Biso   1.000  H
  C34      1.0000 0.50900  0.40380  0.01710  Biso   1.000  C
  H23      1.0000 0.55400  0.42560  0.05890  Biso   1.000  H
  C35      1.0000 0.40830  0.41550  0.93500  Biso   1.000  C
  H24      1.0000 0.38250  0.44700  0.91590  Biso   1.000  H
  C36      1.0000 0.48070  0.45470  0.98570  Biso   1.000  C
  N3       1.0000 0.41020  0.28770  0.93510  Biso   1.000  N
  O5       1.0000 0.20120  0.88610  0.85470  Biso   1.000  O
  O6       1.0000 0.30540  0.92820  0.76330  Biso   1.000  O
  Cl3      1.0000 0.31073  0.77030  0.64607  Biso   1.000  Cl
  C37      1.0000 0.67520  0.94330  0.67810  Biso   1.000  C
  C38      1.0000 0.72840  0.03390  0.64670  Biso   1.000  C
  C39      1.0000 0.80190  0.05860  0.60030  Biso   1.000  C
  H25      1.0000 0.81870  0.01830  0.58630  Biso   1.000  H
  C40      1.0000 0.70240  0.09080  0.66140  Biso   1.000  C
  H26      1.0000 0.65020  0.07340  0.69110  Biso   1.000  H
  C41      1.0000 0.85160  0.14250  0.57380  Biso   1.000  C
  H27      1.0000 0.90320  0.16020  0.54280  Biso   1.000  H
  C42      1.0000 0.75100  0.17400  0.63350  Biso   1.000  C
  H28      1.0000 0.73190  0.21330  0.64330  Biso   1.000  H
  C43      1.0000 0.82550  0.19920  0.59260  Biso   1.000  C
  C44      1.0000 0.84770  0.32150  0.51020  Biso   1.000  C
  H29      1.0000 0.79140  0.28790  0.48860  Biso   1.000  H
  C45      1.0000 0.95850  0.33140  0.58860  Biso   1.000  C
  H30      1.0000 0.98300  0.30470  0.62180  Biso   1.000  H
  C46      1.0000 0.89480  0.40380  0.48290  Biso   1.000  C
  H31      1.0000 0.87160  0.42560  0.44110  Biso   1.000  H
  C47      1.0000 0.00720  0.41550  0.56500  Biso   1.000  C
  H32      1.0000 0.06450  0.44700  0.58410  Biso   1.000  H
  C48      1.0000 0.97400  0.45470  0.51430  Biso   1.000  C
  N4       1.0000 0.87750  0.28770  0.56490  Biso   1.000  N
  O7       1.0000 0.68490  0.88610  0.64530  Biso   1.000  O
  O8       1.0000 0.62280  0.92820  0.73670  Biso   1.000  O
  Cl4      1.0000 0.45957  0.77030  0.85393  Biso   1.000  Cl
  C49      1.0000 0.26810  0.32480  0.67810  Biso   1.000  C
  C50      1.0000 0.30550  0.27160  0.64670  Biso   1.000  C
  C51      1.0000 0.25670  0.19810  0.60030  Biso   1.000  C
  H33      1.0000 0.19960  0.18130  0.58630  Biso   1.000  H
  C52      1.0000 0.38840  0.29760  0.66140  Biso   1.000  C
  H34      1.0000 0.42320  0.34980  0.69110  Biso   1.000  H
  C53      1.0000 0.29090  0.14840  0.57380  Biso   1.000  C
  H35      1.0000 0.25700  0.09680  0.54280  Biso   1.000  H
  C54      1.0000 0.42300  0.24900  0.63350  Biso   1.000  C
  H36      1.0000 0.48140  0.26810  0.64330  Biso   1.000  H
  C55      1.0000 0.37370  0.17450  0.59260  Biso   1.000  C
  C56      1.0000 0.47380  0.15230  0.51020  Biso   1.000  C
  H37      1.0000 0.49650  0.20860  0.48860  Biso   1.000  H
  C57      1.0000 0.37290  0.04150  0.58860  Biso   1.000  C
  H38      1.0000 0.32170  0.01700  0.62180  Biso   1.000  H
  C58      1.0000 0.50900  0.10520  0.48290  Biso   1.000  C
  H39      1.0000 0.55400  0.12840  0.44110  Biso   1.000  H
  C59      1.0000 0.40830  0.99280  0.56500  Biso   1.000  C
  H40      1.0000 0.38250  0.93550  0.58410  Biso   1.000  H
  C60      1.0000 0.48070  0.02600  0.51430  Biso   1.000  C
  N5       1.0000 0.41020  0.12250  0.56490  Biso   1.000  N
  O9       1.0000 0.20120  0.31510  0.64530  Biso   1.000  O
  O10      1.0000 0.30540  0.37720  0.73670  Biso   1.000  O
  Cl5      1.0000 0.31073  0.54043  0.85393  Biso   1.000  Cl
  C61      1.0000 0.05670  0.73190  0.67810  Biso   1.000  C
  C62      1.0000 0.96610  0.69450  0.64670  Biso   1.000  C
  C63      1.0000 0.94140  0.74330  0.60030  Biso   1.000  C
  H41      1.0000 0.98170  0.80040  0.58630  Biso   1.000  H
  C64      1.0000 0.90920  0.61160  0.66140  Biso   1.000  C
  H42      1.0000 0.92660  0.57680  0.69110  Biso   1.000  H
  C65      1.0000 0.85750  0.70910  0.57380  Biso   1.000  C
  H43      1.0000 0.83980  0.74300  0.54280  Biso   1.000  H
  C66      1.0000 0.82600  0.57700  0.63350  Biso   1.000  C
  H44      1.0000 0.78670  0.51860  0.64330  Biso   1.000  H
  C67      1.0000 0.80080  0.62630  0.59260  Biso   1.000  C
  C68      1.0000 0.67850  0.52620  0.51020  Biso   1.000  C
  H45      1.0000 0.71210  0.50350  0.48860  Biso   1.000  H
  C69      1.0000 0.66860  0.62710  0.58860  Biso   1.000  C
  H46      1.0000 0.69530  0.67830  0.62180  Biso   1.000  H
  C70      1.0000 0.59620  0.49100  0.48290  Biso   1.000  C
  H47      1.0000 0.57440  0.44600  0.44110  Biso   1.000  H
  C71      1.0000 0.58450  0.59170  0.56500  Biso   1.000  C
  H48      1.0000 0.55300  0.61750  0.58410  Biso   1.000  H
  C72      1.0000 0.54530  0.51930  0.51430  Biso   1.000  C
  N6       1.0000 0.71230  0.58980  0.56490  Biso   1.000  N
  O11      1.0000 0.11390  0.79880  0.64530  Biso   1.000  O
  O12      1.0000 0.07180  0.69460  0.73670  Biso   1.000  O
  Cl6      1.0000 0.22970  0.68927  0.85393  Biso   1.000  Cl
  C73      1.0000 0.94330  0.67520  0.17810  Biso   1.000  C
  C74      1.0000 0.03390  0.72840  0.14670  Biso   1.000  C
  C75      1.0000 0.05860  0.80190  0.10030  Biso   1.000  C
  H49      1.0000 0.01830  0.81870  0.08630  Biso   1.000  H
  C76      1.0000 0.09080  0.70240  0.16140  Biso   1.000  C
  H50      1.0000 0.07340  0.65020  0.19110  Biso   1.000  H
  C77      1.0000 0.14250  0.85160  0.07380  Biso   1.000  C
  H51      1.0000 0.16020  0.90320  0.04280  Biso   1.000  H
  C78      1.0000 0.17400  0.75100  0.13350  Biso   1.000  C
  H52      1.0000 0.21330  0.73190  0.14330  Biso   1.000  H
  C79      1.0000 0.19920  0.82550  0.09260  Biso   1.000  C
  C80      1.0000 0.32150  0.84770  0.01020  Biso   1.000  C
  H53      1.0000 0.28790  0.79140  0.98860  Biso   1.000  H
  C81      1.0000 0.33140  0.95850  0.08860  Biso   1.000  C
  H54      1.0000 0.30470  0.98300  0.12180  Biso   1.000  H
  C82      1.0000 0.40380  0.89480  0.98290  Biso   1.000  C
  H55      1.0000 0.42560  0.87160  0.94110  Biso   1.000  H
  C83      1.0000 0.41550  0.00720  0.06500  Biso   1.000  C
  H56      1.0000 0.44700  0.06450  0.08410  Biso   1.000  H
  C84      1.0000 0.45470  0.97400  0.01430  Biso   1.000  C
  N7       1.0000 0.28770  0.87750  0.06490  Biso   1.000  N
  O13      1.0000 0.88610  0.68490  0.14530  Biso   1.000  O
  O14      1.0000 0.92820  0.62280  0.23670  Biso   1.000  O
  Cl7      1.0000 0.77030  0.45957  0.35393  Biso   1.000  Cl
  C85      1.0000 0.32480  0.26810  0.17810  Biso   1.000  C
  C86      1.0000 0.27160  0.30550  0.14670  Biso   1.000  C
  C87      1.0000 0.19810  0.25670  0.10030  Biso   1.000  C
  H57      1.0000 0.18130  0.19960  0.08630  Biso   1.000  H
  C88      1.0000 0.29760  0.38840  0.16140  Biso   1.000  C
  H58      1.0000 0.34980  0.42320  0.19110  Biso   1.000  H
  C89      1.0000 0.14840  0.29090  0.07380  Biso   1.000  C
  H59      1.0000 0.09680  0.25700  0.04280  Biso   1.000  H
  C90      1.0000 0.24900  0.42300  0.13350  Biso   1.000  C
  H60      1.0000 0.26810  0.48140  0.14330  Biso   1.000  H
  C91      1.0000 0.17450  0.37370  0.09260  Biso   1.000  C
  C92      1.0000 0.15230  0.47380  0.01020  Biso   1.000  C
  H61      1.0000 0.20860  0.49650  0.98860  Biso   1.000  H
  C93      1.0000 0.04150  0.37290  0.08860  Biso   1.000  C
  H62      1.0000 0.01700  0.32170  0.12180  Biso   1.000  H
  C94      1.0000 0.10520  0.50900  0.98290  Biso   1.000  C
  H63      1.0000 0.12840  0.55400  0.94110  Biso   1.000  H
  C95      1.0000 0.99280  0.40830  0.06500  Biso   1.000  C
  H64      1.0000 0.93550  0.38250  0.08410  Biso   1.000  H
  C96      1.0000 0.02600  0.48070  0.01430  Biso   1.000  C
  N8       1.0000 0.12250  0.41020  0.06490  Biso   1.000  N
  O15      1.0000 0.31510  0.20120  0.14530  Biso   1.000  O
  O16      1.0000 0.37720  0.30540  0.23670  Biso   1.000  O
  Cl8      1.0000 0.54043  0.31073  0.35393  Biso   1.000  Cl
  C97      1.0000 0.73190  0.05670  0.17810  Biso   1.000  C
  C98      1.0000 0.69450  0.96610  0.14670  Biso   1.000  C
  C99      1.0000 0.74330  0.94140  0.10030  Biso   1.000  C
  H65      1.0000 0.80040  0.98170  0.08630  Biso   1.000  H
  C100     1.0000 0.61160  0.90920  0.16140  Biso   1.000  C
  H66      1.0000 0.57680  0.92660  0.19110  Biso   1.000  H
  C101     1.0000 0.70910  0.85750  0.07380  Biso   1.000  C
  H67      1.0000 0.74300  0.83980  0.04280  Biso   1.000  H
  C102     1.0000 0.57700  0.82600  0.13350  Biso   1.000  C
  H68      1.0000 0.51860  0.78670  0.14330  Biso   1.000  H
  C103     1.0000 0.62630  0.80080  0.09260  Biso   1.000  C
  C104     1.0000 0.52620  0.67850  0.01020  Biso   1.000  C
  H69      1.0000 0.50350  0.71210  0.98860  Biso   1.000  H
  C105     1.0000 0.62710  0.66860  0.08860  Biso   1.000  C
  H70      1.0000 0.67830  0.69530  0.12180  Biso   1.000  H
  C106     1.0000 0.49100  0.59620  0.98290  Biso   1.000  C
  H71      1.0000 0.44600  0.57440  0.94110  Biso   1.000  H
  C107     1.0000 0.59170  0.58450  0.06500  Biso   1.000  C
  H72      1.0000 0.61750  0.55300  0.08410  Biso   1.000  H
  C108     1.0000 0.51930  0.54530  0.01430  Biso   1.000  C
  N9       1.0000 0.58980  0.71230  0.06490  Biso   1.000  N
  O17      1.0000 0.79880  0.11390  0.14530  Biso   1.000  O
  O18      1.0000 0.69460  0.07180  0.23670  Biso   1.000  O
  Cl9      1.0000 0.68927  0.22970  0.35393  Biso   1.000  Cl
  C109     1.0000 0.32480  0.05670  0.32190  Biso   1.000  C
  C110     1.0000 0.27160  0.96610  0.35330  Biso   1.000  C
  C111     1.0000 0.19810  0.94140  0.39970  Biso   1.000  C
  H73      1.0000 0.18130  0.98170  0.41370  Biso   1.000  H
  C112     1.0000 0.29760  0.90920  0.33860  Biso   1.000  C
  H74      1.0000 0.34980  0.92660  0.30890  Biso   1.000  H
  C113     1.0000 0.14840  0.85750  0.42620  Biso   1.000  C
  H75      1.0000 0.09680  0.83980  0.45720  Biso   1.000  H
  C114     1.0000 0.24900  0.82600  0.36650  Biso   1.000  C
  H76      1.0000 0.26810  0.78670  0.35670  Biso   1.000  H
  C115     1.0000 0.17450  0.80080  0.40740  Biso   1.000  C
  C116     1.0000 0.15230  0.67850  0.48980  Biso   1.000  C
  H77      1.0000 0.20860  0.71210  0.51140  Biso   1.000  H
  C117     1.0000 0.04150  0.66860  0.41140  Biso   1.000  C
  H78      1.0000 0.01700  0.69530  0.37820  Biso   1.000  H
  C118     1.0000 0.10520  0.59620  0.51710  Biso   1.000  C
  H79      1.0000 0.12840  0.57440  0.55890  Biso   1.000  H
  C119     1.0000 0.99280  0.58450  0.43500  Biso   1.000  C
  H80      1.0000 0.93550  0.55300  0.41590  Biso   1.000  H
  C120     1.0000 0.02600  0.54530  0.48570  Biso   1.000  C
  N10      1.0000 0.12250  0.71230  0.43510  Biso   1.000  N
  O19      1.0000 0.31510  0.11390  0.35470  Biso   1.000  O
  O20      1.0000 0.37720  0.07180  0.26330  Biso   1.000  O
  Cl10     1.0000 0.54043  0.22970  0.14607  Biso   1.000  Cl
  C121     1.0000 0.73190  0.67520  0.32190  Biso   1.000  C
  C122     1.0000 0.69450  0.72840  0.35330  Biso   1.000  C
  C123     1.0000 0.74330  0.80190  0.39970  Biso   1.000  C
  H81      1.0000 0.80040  0.81870  0.41370  Biso   1.000  H
  C124     1.0000 0.61160  0.70240  0.33860  Biso   1.000  C
  H82      1.0000 0.57680  0.65020  0.30890  Biso   1.000  H
  C125     1.0000 0.70910  0.85160  0.42620  Biso   1.000  C
  H83      1.0000 0.74300  0.90320  0.45720  Biso   1.000  H
  C126     1.0000 0.57700  0.75100  0.36650  Biso   1.000  C
  H84      1.0000 0.51860  0.73190  0.35670  Biso   1.000  H
  C127     1.0000 0.62630  0.82550  0.40740  Biso   1.000  C
  C128     1.0000 0.52620  0.84770  0.48980  Biso   1.000  C
  H85      1.0000 0.50350  0.79140  0.51140  Biso   1.000  H
  C129     1.0000 0.62710  0.95850  0.41140  Biso   1.000  C
  H86      1.0000 0.67830  0.98300  0.37820  Biso   1.000  H
  C130     1.0000 0.49100  0.89480  0.51710  Biso   1.000  C
  H87      1.0000 0.44600  0.87160  0.55890  Biso   1.000  H
  C131     1.0000 0.59170  0.00720  0.43500  Biso   1.000  C
  H88      1.0000 0.61750  0.06450  0.41590  Biso   1.000  H
  C132     1.0000 0.51930  0.97400  0.48570  Biso   1.000  C
  N11      1.0000 0.58980  0.87750  0.43510  Biso   1.000  N
  O21      1.0000 0.79880  0.68490  0.35470  Biso   1.000  O
  O22      1.0000 0.69460  0.62280  0.26330  Biso   1.000  O
  Cl11     1.0000 0.68927  0.45957  0.14607  Biso   1.000  Cl
  C133     1.0000 0.94330  0.26810  0.32190  Biso   1.000  C
  C134     1.0000 0.03390  0.30550  0.35330  Biso   1.000  C
  C135     1.0000 0.05860  0.25670  0.39970  Biso   1.000  C
  H89      1.0000 0.01830  0.19960  0.41370  Biso   1.000  H
  C136     1.0000 0.09080  0.38840  0.33860  Biso   1.000  C
  H90      1.0000 0.07340  0.42320  0.30890  Biso   1.000  H
  C137     1.0000 0.14250  0.29090  0.42620  Biso   1.000  C
  H91      1.0000 0.16020  0.25700  0.45720  Biso   1.000  H
  C138     1.0000 0.17400  0.42300  0.36650  Biso   1.000  C
  H92      1.0000 0.21330  0.48140  0.35670  Biso   1.000  H
  C139     1.0000 0.19920  0.37370  0.40740  Biso   1.000  C
  C140     1.0000 0.32150  0.47380  0.48980  Biso   1.000  C
  H93      1.0000 0.28790  0.49650  0.51140  Biso   1.000  H
  C141     1.0000 0.33140  0.37290  0.41140  Biso   1.000  C
  H94      1.0000 0.30470  0.32170  0.37820  Biso   1.000  H
  C142     1.0000 0.40380  0.50900  0.51710  Biso   1.000  C
  H95      1.0000 0.42560  0.55400  0.55890  Biso   1.000  H
  C143     1.0000 0.41550  0.40830  0.43500  Biso   1.000  C
  H96      1.0000 0.44700  0.38250  0.41590  Biso   1.000  H
  C144     1.0000 0.45470  0.48070  0.48570  Biso   1.000  C
  N12      1.0000 0.28770  0.41020  0.43510  Biso   1.000  N
  O23      1.0000 0.88610  0.20120  0.35470  Biso   1.000  O
  O24      1.0000 0.92820  0.30540  0.26330  Biso   1.000  O
  Cl12     1.0000 0.77030  0.31073  0.14607  Biso   1.000  Cl
  Cd1      1.0000 0.33333  0.66667  0.75000  Biso   1.000  Cd
  Cd2      1.0000 0.66667  0.33333  0.25000  Biso   1.000  Cd
  Cd3      1.0000 0.21150  0.42300  0.75000  Biso   1.000  Cd
  Cd4      1.0000 0.57700  0.78850  0.75000  Biso   1.000  Cd
  Cd5      1.0000 0.21150  0.78850  0.75000  Biso   1.000  Cd
  Cd6      1.0000 0.78850  0.57700  0.25000  Biso   1.000  Cd
  Cd7      1.0000 0.42300  0.21150  0.25000  Biso   1.000  Cd
  Cd8      1.0000 0.78850  0.21150  0.25000  Biso   1.000  Cd
