data_image0
_cell_length_a       7.7334
_cell_length_b       25.833
_cell_length_c       12.0623
_cell_angle_alpha    90
_cell_angle_beta     106.854
_cell_angle_gamma    90

_symmetry_space_group_name_H-M    "P 1"
_symmetry_int_tables_number       1

loop_
  _symmetry_equiv_pos_as_xyz
  'x, y, z'

loop_
  _atom_site_label
  _atom_site_occupancy
  _atom_site_fract_x
  _atom_site_fract_y
  _atom_site_fract_z
  _atom_site_thermal_displace_type
  _atom_site_B_iso_or_equiv
  _atom_site_type_symbol
  I1       1.0000 0.12933  0.43139  0.37316  Biso   1.000  I
  Ag1      1.0000 0.86463  0.64695  0.20889  Biso   1.000  Ag
  N1       1.0000 0.06130  0.59685  0.34050  Biso   1.000  N
  N2       1.0000 0.18940  0.66485  0.46090  Biso   1.000  N
  H1       1.0000 0.26460  0.67670  0.52290  Biso   1.000  H
  H2       1.0000 0.11990  0.68570  0.41250  Biso   1.000  H
  N3       1.0000 0.29220  0.58244  0.51830  Biso   1.000  N
  C1       1.0000 0.15610  0.51083  0.40200  Biso   1.000  C
  C2       1.0000 0.27750  0.53167  0.49870  Biso   1.000  C
  H3       1.0000 0.35210  0.50940  0.55230  Biso   1.000  H
  C3       1.0000 0.18040  0.61410  0.43980  Biso   1.000  C
  C4       1.0000 0.05020  0.54580  0.32360  Biso   1.000  C
  H4       1.0000 0.96820  0.53310  0.25670  Biso   1.000  H
  I2       1.0000 0.62003  0.67700  0.36107  Biso   1.000  I
  Ag2      1.0000 0.50606  0.89178  0.17124  Biso   1.000  Ag
  N4       1.0000 0.73570  0.82639  0.52520  Biso   1.000  N
  N5       1.0000 0.69260  0.90927  0.45340  Biso   1.000  N
  H5       1.0000 0.66190  0.93090  0.39680  Biso   1.000  H
  H6       1.0000 0.72890  0.92040  0.52350  Biso   1.000  H
  N6       1.0000 0.62660  0.84207  0.32200  Biso   1.000  N
  C5       1.0000 0.61870  0.79146  0.30350  Biso   1.000  C
  H7       1.0000 0.58250  0.77940  0.22760  Biso   1.000  H
  C6       1.0000 0.66240  0.75609  0.39250  Biso   1.000  C
  C7       1.0000 0.72160  0.77563  0.50410  Biso   1.000  C
  H8       1.0000 0.75240  0.75270  0.56610  Biso   1.000  H
  C8       1.0000 0.68390  0.85900  0.43260  Biso   1.000  C
  I3       1.0000 0.62003  0.82300  0.86107  Biso   1.000  I
  Ag3      1.0000 0.50606  0.60822  0.67124  Biso   1.000  Ag
  N7       1.0000 0.73570  0.67361  0.02520  Biso   1.000  N
  N8       1.0000 0.69260  0.59073  0.95340  Biso   1.000  N
  H9       1.0000 0.66190  0.56910  0.89680  Biso   1.000  H
  H10      1.0000 0.72890  0.57960  0.02350  Biso   1.000  H
  N9       1.0000 0.62660  0.65793  0.82200  Biso   1.000  N
  C9       1.0000 0.61870  0.70854  0.80350  Biso   1.000  C
  H11      1.0000 0.58250  0.72060  0.72760  Biso   1.000  H
  C10      1.0000 0.66240  0.74391  0.89250  Biso   1.000  C
  C11      1.0000 0.72160  0.72437  0.00410  Biso   1.000  C
  H12      1.0000 0.75240  0.74730  0.06610  Biso   1.000  H
  C12      1.0000 0.68390  0.64100  0.93260  Biso   1.000  C
  I4       1.0000 0.12933  0.06861  0.87316  Biso   1.000  I
  Ag4      1.0000 0.86463  0.85305  0.70889  Biso   1.000  Ag
  N10      1.0000 0.06130  0.90315  0.84050  Biso   1.000  N
  N11      1.0000 0.18940  0.83515  0.96090  Biso   1.000  N
  H13      1.0000 0.26460  0.82330  0.02290  Biso   1.000  H
  H14      1.0000 0.11990  0.81430  0.91250  Biso   1.000  H
  N12      1.0000 0.29220  0.91756  0.01830  Biso   1.000  N
  C13      1.0000 0.15610  0.98917  0.90200  Biso   1.000  C
  C14      1.0000 0.27750  0.96833  0.99870  Biso   1.000  C
  H15      1.0000 0.35210  0.99060  0.05230  Biso   1.000  H
  C15      1.0000 0.18040  0.88590  0.93980  Biso   1.000  C
  C16      1.0000 0.05020  0.95420  0.82360  Biso   1.000  C
  H16      1.0000 0.96820  0.96690  0.75670  Biso   1.000  H
  I5       1.0000 0.37997  0.17700  0.13893  Biso   1.000  I
  Ag5      1.0000 0.49394  0.39178  0.32876  Biso   1.000  Ag
  N13      1.0000 0.26430  0.32639  0.97480  Biso   1.000  N
  N14      1.0000 0.30740  0.40927  0.04660  Biso   1.000  N
  H17      1.0000 0.33810  0.43090  0.10320  Biso   1.000  H
  H18      1.0000 0.27110  0.42040  0.97650  Biso   1.000  H
  N15      1.0000 0.37340  0.34207  0.17800  Biso   1.000  N
  C17      1.0000 0.38130  0.29146  0.19650  Biso   1.000  C
  H19      1.0000 0.41750  0.27940  0.27240  Biso   1.000  H
  C18      1.0000 0.33760  0.25609  0.10750  Biso   1.000  C
  C19      1.0000 0.27840  0.27563  0.99590  Biso   1.000  C
  H20      1.0000 0.24760  0.25270  0.93390  Biso   1.000  H
  C20      1.0000 0.31610  0.35900  0.06740  Biso   1.000  C
  I6       1.0000 0.87067  0.93139  0.12684  Biso   1.000  I
  Ag6      1.0000 0.13537  0.14695  0.29111  Biso   1.000  Ag
  N16      1.0000 0.93870  0.09685  0.15950  Biso   1.000  N
  N17      1.0000 0.81060  0.16485  0.03910  Biso   1.000  N
  H21      1.0000 0.73540  0.17670  0.97710  Biso   1.000  H
  H22      1.0000 0.88010  0.18570  0.08750  Biso   1.000  H
  N18      1.0000 0.70780  0.08244  0.98170  Biso   1.000  N
  C21      1.0000 0.84390  0.01083  0.09800  Biso   1.000  C
  C22      1.0000 0.72250  0.03167  0.00130  Biso   1.000  C
  H23      1.0000 0.64790  0.00940  0.94770  Biso   1.000  H
  C23      1.0000 0.81960  0.11410  0.06020  Biso   1.000  C
  C24      1.0000 0.94980  0.04580  0.17640  Biso   1.000  C
  H24      1.0000 0.03180  0.03310  0.24330  Biso   1.000  H
  I7       1.0000 0.87067  0.56861  0.62684  Biso   1.000  I
  Ag7      1.0000 0.13537  0.35305  0.79111  Biso   1.000  Ag
  N19      1.0000 0.93870  0.40315  0.65950  Biso   1.000  N
  N20      1.0000 0.81060  0.33515  0.53910  Biso   1.000  N
  H25      1.0000 0.73540  0.32330  0.47710  Biso   1.000  H
  H26      1.0000 0.88010  0.31430  0.58750  Biso   1.000  H
  N21      1.0000 0.70780  0.41756  0.48170  Biso   1.000  N
  C25      1.0000 0.84390  0.48917  0.59800  Biso   1.000  C
  C26      1.0000 0.72250  0.46833  0.50130  Biso   1.000  C
  H27      1.0000 0.64790  0.49060  0.44770  Biso   1.000  H
  C27      1.0000 0.81960  0.38590  0.56020  Biso   1.000  C
  C28      1.0000 0.94980  0.45420  0.67640  Biso   1.000  C
  H28      1.0000 0.03180  0.46690  0.74330  Biso   1.000  H
  I8       1.0000 0.37997  0.32300  0.63893  Biso   1.000  I
  Ag8      1.0000 0.49394  0.10822  0.82876  Biso   1.000  Ag
  N22      1.0000 0.26430  0.17361  0.47480  Biso   1.000  N
  N23      1.0000 0.30740  0.09073  0.54660  Biso   1.000  N
  H29      1.0000 0.33810  0.06910  0.60320  Biso   1.000  H
  H30      1.0000 0.27110  0.07960  0.47650  Biso   1.000  H
  N24      1.0000 0.37340  0.15793  0.67800  Biso   1.000  N
  C29      1.0000 0.38130  0.20854  0.69650  Biso   1.000  C
  H31      1.0000 0.41750  0.22060  0.77240  Biso   1.000  H
  C30      1.0000 0.33760  0.24391  0.60750  Biso   1.000  C
  C31      1.0000 0.27840  0.22437  0.49590  Biso   1.000  C
  H32      1.0000 0.24760  0.24730  0.43390  Biso   1.000  H
  C32      1.0000 0.31610  0.14100  0.56740  Biso   1.000  C
