data_EXEQAA_clean
_audit_creation_date              2014-07-02
_audit_creation_method            'Materials Studio'
_symmetry_space_group_name_H-M    'P1'
_symmetry_Int_Tables_number       1
_symmetry_cell_setting            triclinic
loop_
_symmetry_equiv_pos_as_xyz
  x,y,z
_cell_length_a                    12.3850
_cell_length_b                    15.3520
_cell_length_c                    25.0378
_cell_angle_alpha                 107.8530
_cell_angle_beta                  104.3190
_cell_angle_gamma                 90.0001
loop_
_atom_site_label
_atom_site_type_symbol
_atom_site_fract_x
_atom_site_fract_y
_atom_site_fract_z
_atom_site_U_iso_or_equiv
_atom_site_adp_type
_atom_site_occupancy
Sc1    Sc    0.47934   0.04169   0.20854   0.01267  Uiso   1.00
Sc2    Sc    0.68745   0.99980   0.12486   0.01267  Uiso   1.00
Sc3    Sc    0.60412   0.79173   0.45818   0.01267  Uiso   1.00
Sc4    Sc    0.22920   0.16685   0.20854   0.01267  Uiso   1.00
Sc5    Sc    0.93741   0.12506   0.12486   0.01267  Uiso   1.00
Sc6    Sc    0.35406   0.66645   0.45818   0.01267  Uiso   1.00
Sc7    Sc    0.27080   0.45831   0.79146   0.01267  Uiso   1.00
Sc8    Sc    0.56259   0.50020   0.87514   0.01267  Uiso   1.00
Sc9    Sc    0.14594   0.70827   0.54182   0.01267  Uiso   1.00
Sc10   Sc    0.02066   0.33315   0.79146   0.01267  Uiso   1.00
Sc11   Sc    0.81255   0.37494   0.87514   0.01267  Uiso   1.00
Sc12   Sc    0.89588   0.83355   0.54182   0.01267  Uiso   1.00
H1     H     0.56900   0.12810   0.15800   0.01267  Uiso   1.00
H2     H     0.92430   0.93900   0.25560   0.01267  Uiso   1.00
H3     H     0.10120   0.01440   0.29340   0.01267  Uiso   1.00
H4     H     0.40500   0.91670   0.33360   0.01267  Uiso   1.00
H5     H     0.14210   0.81970   0.37460   0.01267  Uiso   1.00
H6     H     0.00160   0.89580   0.41180   0.01267  Uiso   1.00
H7     H     0.67840   0.91760   0.33340   0.01267  Uiso   1.00
H8     H     0.24240   0.84800   0.07740   0.01267  Uiso   1.00
H9     H     0.06610   0.88590   0.03920   0.01267  Uiso   1.00
H10    H     0.08900   0.02990   0.15800   0.01267  Uiso   1.00
H11    H     0.83130   0.31660   0.25560   0.01267  Uiso   1.00
H12    H     0.69220   0.27900   0.29340   0.01267  Uiso   1.00
H13    H     0.42860   0.41690   0.33360   0.01267  Uiso   1.00
H14    H     0.73250   0.55490   0.37460   0.01267  Uiso   1.00
H15    H     0.91020   0.51600   0.41180   0.01267  Uiso   1.00
H16    H     0.15500   0.41580   0.33340   0.01267  Uiso   1.00
H17    H     0.33500   0.22940   0.07740   0.01267  Uiso   1.00
H18    H     0.47310   0.15330   0.03920   0.01267  Uiso   1.00
H19    H     0.41100   0.37190   0.84200   0.01267  Uiso   1.00
H20    H     0.66870   0.56100   0.74440   0.01267  Uiso   1.00
H21    H     0.80780   0.48560   0.70660   0.01267  Uiso   1.00
H22    H     0.07140   0.58330   0.66640   0.01267  Uiso   1.00
H23    H     0.76750   0.68030   0.62540   0.01267  Uiso   1.00
H24    H     0.58980   0.60420   0.58820   0.01267  Uiso   1.00
H25    H     0.34500   0.58240   0.66660   0.01267  Uiso   1.00
H26    H     0.16500   0.65200   0.92260   0.01267  Uiso   1.00
H27    H     0.02690   0.61410   0.96080   0.01267  Uiso   1.00
H28    H     0.93100   0.47010   0.84200   0.01267  Uiso   1.00
H29    H     0.57570   0.18340   0.74440   0.01267  Uiso   1.00
H30    H     0.39880   0.22100   0.70660   0.01267  Uiso   1.00
H31    H     0.09500   0.08310   0.66640   0.01267  Uiso   1.00
H32    H     0.35790   0.94510   0.62540   0.01267  Uiso   1.00
H33    H     0.49840   0.98400   0.58820   0.01267  Uiso   1.00
H34    H     0.82160   0.08420   0.66660   0.01267  Uiso   1.00
H35    H     0.25760   0.27060   0.92260   0.01267  Uiso   1.00
H36    H     0.43390   0.34670   0.96080   0.01267  Uiso   1.00
H37    H     0.85060   0.10060   0.20120   0.01267  Uiso   1.00
H38    H     0.64940   0.39940   0.79880   0.01267  Uiso   1.00
H39    H     0.31610   0.06610   0.13220   0.01267  Uiso   1.00
H40    H     0.18390   0.43390   0.86780   0.01267  Uiso   1.00
H41    H     0.51720   0.76720   0.53440   0.01267  Uiso   1.00
H42    H     0.98280   0.73280   0.46560   0.01267  Uiso   1.00
H43    H     0.75000   0.69800   0.50000   0.01267  Uiso   1.00
H44    H     0.25000   0.80200   0.50000   0.01267  Uiso   1.00
H45    H     0.48760   0.75000   1.00000   0.01267  Uiso   1.00
H46    H     0.76140   0.75000  -0.00000   0.01267  Uiso   1.00
H47    H     0.01240   0.25000   0.00000   0.01267  Uiso   1.00
H48    H     0.73860   0.25000   0.00000   0.01267  Uiso   1.00
C1     C     0.70460   0.95300   0.24060   0.01267  Uiso   1.00
C2     C     0.78930   0.93130   0.28760   0.01267  Uiso   1.00
C3     C     0.90180   0.93010   0.28720   0.01267  Uiso   1.00
C4     C     0.98080   0.91590   0.33320   0.01267  Uiso   1.00
C5     C     0.10210   0.91590   0.33320   0.01267  Uiso   1.00
C6     C     0.14720   0.97400   0.30920   0.01267  Uiso   1.00
C7     C     0.25980   0.97220   0.30820   0.01267  Uiso   1.00
C8     C     0.30420   0.02830   0.27880   0.01267  Uiso   1.00
C9     C     0.32820   0.91660   0.33340   0.01267  Uiso   1.00
C10    C     0.28440   0.86050   0.35840   0.01267  Uiso   1.00
C11    C     0.35890   0.80560   0.38860   0.01267  Uiso   1.00
C12    C     0.17160   0.85920   0.35800   0.01267  Uiso   1.00
C13    C     0.94740   0.90310   0.37960   0.01267  Uiso   1.00
C14    C     0.83420   0.90110   0.37900   0.01267  Uiso   1.00
C15    C     0.75500   0.91680   0.33320   0.01267  Uiso   1.00
C16    C     0.79680   0.88110   0.42600   0.01267  Uiso   1.00
C17    C     0.46100   0.88080   0.09300   0.01267  Uiso   1.00
C18    C     0.37900   0.81030   0.04580   0.01267  Uiso   1.00
C19    C     0.26490   0.80820   0.04540   0.01267  Uiso   1.00
C20    C     0.01960   0.82990   0.02340   0.01267  Uiso   1.00
C21    C     0.90680   0.83120   0.02480   0.01267  Uiso   1.00
C22    C     0.86240   0.91640   0.05520   0.01267  Uiso   1.00
C23    C     0.03600   0.28760   0.24060   0.01267  Uiso   1.00
C24    C     0.99830   0.35630   0.28760   0.01267  Uiso   1.00
C25    C     0.88540   0.35710   0.28720   0.01267  Uiso   1.00
C26    C     0.85240   0.41730   0.33320   0.01267  Uiso   1.00
C27    C     0.73110   0.41730   0.33320   0.01267  Uiso   1.00
C28    C     0.66200   0.33520   0.30920   0.01267  Uiso   1.00
C29    C     0.54840   0.33600   0.30820   0.01267  Uiso   1.00
C30    C     0.47460   0.25050   0.27880   0.01267  Uiso   1.00
C31    C     0.50520   0.41680   0.33340   0.01267  Uiso   1.00
C32    C     0.57400   0.49790   0.35840   0.01267  Uiso   1.00
C33    C     0.52970   0.58300   0.38860   0.01267  Uiso   1.00
C34    C     0.68640   0.49880   0.35800   0.01267  Uiso   1.00
C35    C     0.93220   0.47650   0.37960   0.01267  Uiso   1.00
C36    C     0.04480   0.47790   0.37900   0.01267  Uiso   1.00
C37    C     0.07820   0.41640   0.33320   0.01267  Uiso   1.00
C38    C     0.12920   0.54490   0.42600   0.01267  Uiso   1.00
C39    C     0.13200   0.21220   0.09300   0.01267  Uiso   1.00
C40    C     0.16680   0.23550   0.04580   0.01267  Uiso   1.00
C41    C     0.28050   0.23720   0.04540   0.01267  Uiso   1.00
C42    C     0.50380   0.19350   0.02340   0.01267  Uiso   1.00
C43    C     0.61800   0.19360   0.02480   0.01267  Uiso   1.00
C44    C     0.69280   0.13880   0.05520   0.01267  Uiso   1.00
C45    C     0.46400   0.54700   0.75940   0.01267  Uiso   1.00
C46    C     0.50170   0.56870   0.71240   0.01267  Uiso   1.00
C47    C     0.61460   0.56990   0.71280   0.01267  Uiso   1.00
C48    C     0.64760   0.58410   0.66680   0.01267  Uiso   1.00
C49    C     0.76890   0.58410   0.66680   0.01267  Uiso   1.00
C50    C     0.83800   0.52600   0.69080   0.01267  Uiso   1.00
C51    C     0.95160   0.52780   0.69180   0.01267  Uiso   1.00
C52    C     0.02540   0.47170   0.72120   0.01267  Uiso   1.00
C53    C     0.99480   0.58340   0.66660   0.01267  Uiso   1.00
C54    C     0.92600   0.63950   0.64160   0.01267  Uiso   1.00
C55    C     0.97030   0.69440   0.61140   0.01267  Uiso   1.00
C56    C     0.81360   0.64080   0.64200   0.01267  Uiso   1.00
C57    C     0.56780   0.59690   0.62040   0.01267  Uiso   1.00
C58    C     0.45520   0.59890   0.62100   0.01267  Uiso   1.00
C59    C     0.42180   0.58320   0.66680   0.01267  Uiso   1.00
C60    C     0.37080   0.61890   0.57400   0.01267  Uiso   1.00
C61    C     0.36800   0.61920   0.90700   0.01267  Uiso   1.00
C62    C     0.33320   0.68970   0.95420   0.01267  Uiso   1.00
C63    C     0.21950   0.69180   0.95460   0.01267  Uiso   1.00
C64    C     0.99620   0.67010   0.97660   0.01267  Uiso   1.00
C65    C     0.88200   0.66880   0.97520   0.01267  Uiso   1.00
C66    C     0.80720   0.58360   0.94480   0.01267  Uiso   1.00
C67    C     0.79540   0.21240   0.75940   0.01267  Uiso   1.00
C68    C     0.71070   0.14370   0.71240   0.01267  Uiso   1.00
C69    C     0.59820   0.14290   0.71280   0.01267  Uiso   1.00
C70    C     0.51920   0.08270   0.66680   0.01267  Uiso   1.00
C71    C     0.39790   0.08270   0.66680   0.01267  Uiso   1.00
C72    C     0.35280   0.16480   0.69080   0.01267  Uiso   1.00
C73    C     0.24020   0.16400   0.69180   0.01267  Uiso   1.00
C74    C     0.19580   0.24950   0.72120   0.01267  Uiso   1.00
C75    C     0.17180   0.08320   0.66660   0.01267  Uiso   1.00
C76    C     0.21560   0.00210   0.64160   0.01267  Uiso   1.00
C77    C     0.14110   0.91700   0.61140   0.01267  Uiso   1.00
C78    C     0.32840   0.00120   0.64200   0.01267  Uiso   1.00
C79    C     0.55260   0.02350   0.62040   0.01267  Uiso   1.00
C80    C     0.66580   0.02210   0.62100   0.01267  Uiso   1.00
C81    C     0.74500   0.08360   0.66680   0.01267  Uiso   1.00
C82    C     0.70320   0.95510   0.57400   0.01267  Uiso   1.00
C83    C     0.03900   0.28780   0.90700   0.01267  Uiso   1.00
C84    C     0.12100   0.26450   0.95420   0.01267  Uiso   1.00
C85    C     0.23510   0.26280   0.95460   0.01267  Uiso   1.00
C86    C     0.48040   0.30650   0.97660   0.01267  Uiso   1.00
C87    C     0.59320   0.30640   0.97520   0.01267  Uiso   1.00
C88    C     0.63760   0.36120   0.94480   0.01267  Uiso   1.00
C89    C     0.41090   0.75000   0.00000   0.01267  Uiso   1.00
C90    C     0.18590   0.75000   0.00000   0.01267  Uiso   1.00
C91    C     0.06370   0.75000   0.00000   0.01267  Uiso   1.00
C92    C     0.83810   0.75000   0.00000   0.01267  Uiso   1.00
C93    C     0.08910   0.25000  -0.00000   0.01267  Uiso   1.00
C94    C     0.31410   0.25000   0.00000   0.01267  Uiso   1.00
C95    C     0.43630   0.25000   0.00000   0.01267  Uiso   1.00
C96    C     0.66190   0.25000   0.00000   0.01267  Uiso   1.00
O1     O     0.72913   0.94103   0.19266   0.01267  Uiso   1.00
O2     O     0.61517   0.98227   0.25174   0.01267  Uiso   1.00
O3     O     0.69629   0.85079   0.41518   0.01267  Uiso   1.00
O4     O     0.86998   0.89268   0.47416   0.01267  Uiso   1.00
O5     O     0.31552   0.73722   0.39624   0.01267  Uiso   1.00
O6     O     0.46330   0.82960   0.40440   0.01267  Uiso   1.00
O7     O     0.39228   0.00348   0.26216   0.01267  Uiso   1.00
O8     O     0.25311   0.09641   0.27042   0.01267  Uiso   1.00
O9     O     0.55194   0.89784   0.08168   0.01267  Uiso   1.00
O10    O     0.43808   0.91568   0.14136   0.01267  Uiso   1.00
O11    O     0.91360   0.99290   0.06280   0.01267  Uiso   1.00
O12    O     0.77400   0.90830   0.07120   0.01267  Uiso   1.00
O13    O     0.58368   0.08098   0.16716   0.01267  Uiso   1.00
O14    O     0.96353   0.25163   0.19266   0.01267  Uiso   1.00
O15    O     0.13657   0.26947   0.25174   0.01267  Uiso   1.00
O16    O     0.21889   0.56439   0.41518   0.01267  Uiso   1.00
O17    O     0.10418   0.58148   0.47416   0.01267  Uiso   1.00
O18    O     0.58072   0.65902   0.39624   0.01267  Uiso   1.00
O19    O     0.44110   0.57480   0.40440   0.01267  Uiso   1.00
O20    O     0.36988   0.25868   0.26216   0.01267  Uiso   1.00
O21    O     0.51731   0.17401   0.27042   0.01267  Uiso   1.00
O22    O     0.02974   0.18384   0.08168   0.01267  Uiso   1.00
O23    O     0.20328   0.22568   0.14136   0.01267  Uiso   1.00
O24    O     0.64920   0.06990   0.06280   0.01267  Uiso   1.00
O25    O     0.79720   0.16290   0.07120   0.01267  Uiso   1.00
O26    O     0.08348   0.08618   0.16716   0.01267  Uiso   1.00
O27    O     0.53647   0.55897   0.80734   0.01267  Uiso   1.00
O28    O     0.36343   0.51773   0.74826   0.01267  Uiso   1.00
O29    O     0.28111   0.64921   0.58482   0.01267  Uiso   1.00
O30    O     0.39582   0.60732   0.52584   0.01267  Uiso   1.00
O31    O     0.91928   0.76278   0.60376   0.01267  Uiso   1.00
O32    O     0.05890   0.67040   0.59560   0.01267  Uiso   1.00
O33    O     0.13012   0.49652   0.73784   0.01267  Uiso   1.00
O34    O     0.98269   0.40359   0.72958   0.01267  Uiso   1.00
O35    O     0.47026   0.60216   0.91832   0.01267  Uiso   1.00
O36    O     0.29672   0.58432   0.85864   0.01267  Uiso   1.00
O37    O     0.85080   0.50710   0.93720   0.01267  Uiso   1.00
O38    O     0.70280   0.59170   0.92880   0.01267  Uiso   1.00
O39    O     0.41652   0.41902   0.83284   0.01267  Uiso   1.00
O40    O     0.77087   0.24837   0.80734   0.01267  Uiso   1.00
O41    O     0.88483   0.23053   0.74826   0.01267  Uiso   1.00
O42    O     0.80371   0.93561   0.58482   0.01267  Uiso   1.00
O43    O     0.63002   0.91852   0.52584   0.01267  Uiso   1.00
O44    O     0.18448   0.84098   0.60376   0.01267  Uiso   1.00
O45    O     0.03670   0.92520   0.59560   0.01267  Uiso   1.00
O46    O     0.10772   0.24132   0.73784   0.01267  Uiso   1.00
O47    O     0.24689   0.32599   0.72958   0.01267  Uiso   1.00
O48    O     0.94806   0.31616   0.91832   0.01267  Uiso   1.00
O49    O     0.06192   0.27432   0.85864   0.01267  Uiso   1.00
O50    O     0.58640   0.43010   0.93720   0.01267  Uiso   1.00
O51    O     0.72600   0.33710   0.92880   0.01267  Uiso   1.00
O52    O     0.91632   0.41382   0.83284   0.01267  Uiso   1.00
O53    O     0.83249   0.08249   0.16498   0.01267  Uiso   1.00
O54    O     0.66751   0.41751   0.83502   0.01267  Uiso   1.00
O55    O     0.33420   0.08420   0.16840   0.01267  Uiso   1.00
O56    O     0.16580   0.41580   0.83160   0.01267  Uiso   1.00
O57    O     0.49910   0.74910   0.49820   0.01267  Uiso   1.00
O58    O     0.00090   0.75090   0.50180   0.01267  Uiso   1.00
O59    O     0.75000   0.75240   0.50000   0.01267  Uiso   1.00
O60    O     0.25000   0.74760   0.50000   0.01267  Uiso   1.00
