data_EXEQII_SL
_audit_creation_date              2015-05-12
_audit_creation_method            'Materials Studio'
_symmetry_space_group_name_H-M    'P1'
_symmetry_Int_Tables_number       1
_symmetry_cell_setting            triclinic
loop_
_symmetry_equiv_pos_as_xyz
  x,y,z
_cell_length_a                    12.3845
_cell_length_b                    12.4944
_cell_length_c                    12.4944
_cell_angle_alpha                 75.7813
_cell_angle_beta                  60.2905
_cell_angle_gamma                 60.2904
loop_
_atom_site_label
_atom_site_type_symbol
_atom_site_fract_x
_atom_site_fract_y
_atom_site_fract_z
_atom_site_U_iso_or_equiv
_atom_site_adp_type
_atom_site_occupancy
Sc1    Sc    0.18722  -0.00000   0.62556   0.01267  Uiso   1.00
Sc2    Sc    0.81278  -0.00000   0.37444   0.01267  Uiso   1.00
Sc3    Sc    0.06278   0.87444   0.50000   0.01267  Uiso   1.00
Sc4    Sc    0.43722   0.12556   0.50000   0.01267  Uiso   1.00
H5     H     0.88880   0.32290   0.55730   0.01267  Uiso   1.00
H6     H     0.76900   0.67710   0.44270   0.01267  Uiso   1.00
H7     H     0.69610   0.94270   0.82290   0.01267  Uiso   1.00
H8     H     0.46170   0.05730   0.17710   0.01267  Uiso   1.00
H9     H     0.48100   0.05730   0.82290   0.01267  Uiso   1.00
H10    H     0.36120   0.94270   0.17710   0.01267  Uiso   1.00
H11    H     0.78830   0.32290   0.44270   0.01267  Uiso   1.00
H12    H     0.55390   0.67710   0.55730   0.01267  Uiso   1.00
H13    H     0.11360   0.50000   0.50000   0.01267  Uiso   1.00
H14    H     0.86360  -0.00000   1.00000   0.01267  Uiso   1.00
H15    H     0.13640   0.00000  -0.00000   0.01267  Uiso   1.00
H16    H     0.38640   0.50000   0.50000   0.01267  Uiso   1.00
C17    C     0.12334   0.27774   0.55598   0.01267  Uiso   1.00
C18    C     0.90341   0.39476   0.53308   0.01267  Uiso   1.00
C19    C     0.01821   0.39337   0.53113   0.01267  Uiso   1.00
C20    C     0.95706   0.72226   0.44402   0.01267  Uiso   1.00
C21    C     0.83125   0.60524   0.46692   0.01267  Uiso   1.00
C22    C     0.94271   0.60663   0.46887   0.01267  Uiso   1.00
C23    C     0.92932   0.94402   0.77774   0.01267  Uiso   1.00
C24    C     0.68649   0.96692   0.89476   0.01267  Uiso   1.00
C25    C     0.79934   0.96887   0.89337   0.01267  Uiso   1.00
C26    C     0.65108   0.05598   0.22226   0.01267  Uiso   1.00
C27    C     0.54817   0.03308   0.10524   0.01267  Uiso   1.00
C28    C     0.66158   0.03113   0.10663   0.01267  Uiso   1.00
C29    C     0.29294   0.05598   0.77774   0.01267  Uiso   1.00
C30    C     0.41875   0.03308   0.89476   0.01267  Uiso   1.00
C31    C     0.30729   0.03113   0.89337   0.01267  Uiso   1.00
C32    C     0.12666   0.94402   0.22226   0.01267  Uiso   1.00
C33    C     0.34659   0.96692   0.10524   0.01267  Uiso   1.00
C34    C     0.23179   0.96887   0.10663   0.01267  Uiso   1.00
C35    C     0.59892   0.27774   0.44402   0.01267  Uiso   1.00
C36    C     0.70183   0.39476   0.46692   0.01267  Uiso   1.00
C37    C     0.58842   0.39337   0.46887   0.01267  Uiso   1.00
C38    C     0.32068   0.72226   0.55598   0.01267  Uiso   1.00
C39    C     0.56351   0.60524   0.53308   0.01267  Uiso   1.00
C40    C     0.45066   0.60663   0.53113   0.01267  Uiso   1.00
C41    C     0.81100   0.50000   0.50000   0.01267  Uiso   1.00
C42    C     0.03690   0.50000   0.50000   0.01267  Uiso   1.00
C43    C     0.56100  -0.00000  -0.00000   0.01267  Uiso   1.00
C44    C     0.78690  -0.00000   1.00000   0.01267  Uiso   1.00
C45    C     0.43900  -0.00000  -0.00000   0.01267  Uiso   1.00
C46    C     0.21310  -0.00000   0.00000   0.01267  Uiso   1.00
C47    C     0.68900   0.50000   0.50000   0.01267  Uiso   1.00
C48    C     0.46310   0.50000   0.50000   0.01267  Uiso   1.00
O49    O     0.08736   0.19402   0.61604   0.01267  Uiso   1.00
O50    O     0.24300   0.27026   0.51588   0.01267  Uiso   1.00
O51    O     0.89742   0.80598   0.38396   0.01267  Uiso   1.00
O52    O     0.02914   0.72974   0.48412   0.01267  Uiso   1.00
O53    O     0.95340   0.88396   0.69402   0.01267  Uiso   1.00
O54    O     0.00888   0.98412   0.77026   0.01267  Uiso   1.00
O55    O     0.53138   0.11604   0.30598   0.01267  Uiso   1.00
O56    O     0.76326   0.01588   0.22974   0.01267  Uiso   1.00
O57    O     0.35258   0.11604   0.69402   0.01267  Uiso   1.00
O58    O     0.22086   0.01588   0.77026   0.01267  Uiso   1.00
O59    O     0.16264   0.88396   0.30598   0.01267  Uiso   1.00
O60    O     0.00700   0.98412   0.22974   0.01267  Uiso   1.00
O61    O     0.71862   0.19402   0.38396   0.01267  Uiso   1.00
O62    O     0.48674   0.27026   0.48412   0.01267  Uiso   1.00
O63    O     0.29660   0.80598   0.61604   0.01267  Uiso   1.00
O64    O     0.24112   0.72974   0.51588   0.01267  Uiso   1.00
O65    O     0.37296   0.00204   0.50204   0.01267  Uiso   1.00
O66    O     0.87704   0.99796   0.49796   0.01267  Uiso   1.00
O67    O     0.12500   0.99796   0.50204   0.01267  Uiso   1.00
O68    O     0.62500   0.00204   0.49796   0.01267  Uiso   1.00
H70    H     0.12500   0.08053   0.44174   0.00000  Uiso   1.00
H71    H     0.87704   0.08053   0.47768   0.01267  Uiso   1.00
H72    H     0.47672   0.91984   0.43124   0.00000  Uiso   1.00
H73    H     0.62500   0.91947   0.51824   0.01267  Uiso   1.00
