data_image0
_cell_length_a       21.9544
_cell_length_b       23.8914
_cell_length_c       17.0398
_cell_angle_alpha    90
_cell_angle_beta     106.568
_cell_angle_gamma    90

_symmetry_space_group_name_H-M    "P 1"
_symmetry_int_tables_number       1

loop_
  _symmetry_equiv_pos_as_xyz
  'x, y, z'

loop_
  _atom_site_label
  _atom_site_occupancy
  _atom_site_fract_x
  _atom_site_fract_y
  _atom_site_fract_z
  _atom_site_thermal_displace_type
  _atom_site_B_iso_or_equiv
  _atom_site_type_symbol
  Zn1      1.0000 0.31152  0.01769  0.04588  Biso   1.000  Zn
  Zn2      1.0000 0.01786  0.00010  0.27939  Biso   1.000  Zn
  Zn3      1.0000 0.63572  0.49987  0.89623  Biso   1.000  Zn
  S1       1.0000 0.54050  0.63144  0.25499  Biso   1.000  S
  S2       1.0000 0.96044  0.77586  0.26129  Biso   1.000  S
  S3       1.0000 0.79391  0.61293  0.08306  Biso   1.000  S
  S4       1.0000 0.37521  0.78983  0.06374  Biso   1.000  S
  O1       1.0000 0.35960  0.95140  0.09020  Biso   1.000  O
  N1       1.0000 0.04434  0.01958  0.40030  Biso   1.000  N
  N2       1.0000 0.29206  0.03500  0.92410  Biso   1.000  N
  O2       1.0000 0.63939  0.57279  0.37957  Biso   1.000  O
  O3       1.0000 0.64368  0.62462  0.89140  Biso   1.000  O
  O4       1.0000 0.69052  0.55259  0.96850  Biso   1.000  O
  N3       1.0000 0.10712  0.98795  0.26320  Biso   1.000  N
  N4       1.0000 0.54314  0.99129  0.40150  Biso   1.000  N
  O5       1.0000 0.30792  0.89175  0.99210  Biso   1.000  O
  O6       1.0000 0.69608  0.64726  0.43710  Biso   1.000  O
  N5       1.0000 0.21761  0.00896  0.04050  Biso   1.000  N
  O7       1.0000 0.96727  0.93722  0.22660  Biso   1.000  O
  C1       1.0000 0.88010  0.69166  0.17460  Biso   1.000  C
  C2       1.0000 0.54358  0.73956  0.27200  Biso   1.000  C
  O8       1.0000 0.02321  0.88282  0.32830  Biso   1.000  O
  C3       1.0000 0.51230  0.94300  0.38320  Biso   1.000  C
  C4       1.0000 0.10048  0.05097  0.56250  Biso   1.000  C
  N6       1.0000 0.61269  0.50086  0.77240  Biso   1.000  N
  C5       1.0000 0.39160  0.85781  0.09940  Biso   1.000  C
  C6       1.0000 0.07180  0.98240  0.45730  Biso   1.000  C
  H1       1.0000 0.07190  0.94490  0.44220  Biso   1.000  H
  C7       1.0000 0.47180  0.80798  0.19200  Biso   1.000  C
  C8       1.0000 0.86120  0.79079  0.13500  Biso   1.000  C
  C9       1.0000 0.52490  0.79527  0.25590  Biso   1.000  C
  H2       1.0000 0.54800  0.82380  0.28820  Biso   1.000  H
  C10      1.0000 0.50840  0.69689  0.22200  Biso   1.000  C
  C11      1.0000 0.34930  0.90309  0.05600  Biso   1.000  C
  C12      1.0000 0.14190  0.94330  0.29410  Biso   1.000  C
  C13      1.0000 0.45620  0.70838  0.15590  Biso   1.000  C
  C14      1.0000 0.98070  0.89090  0.26400  Biso   1.000  C
  C15      1.0000 0.43880  0.76387  0.14230  Biso   1.000  C
  C16      1.0000 0.23510  0.98140  0.26740  Biso   1.000  C
  C17      1.0000 0.78980  0.72078  0.05920  Biso   1.000  C
  C18      1.0000 0.23864  0.05582  0.75650  Biso   1.000  C
  C19      1.0000 0.13360  0.06550  0.65000  Biso   1.000  C
  C20      1.0000 0.24480  0.00285  0.78780  Biso   1.000  C
  H3       1.0000 0.23120  0.97260  0.75280  Biso   1.000  H
  C21      1.0000 0.68499  0.60444  0.94950  Biso   1.000  C
  C22      1.0000 0.26130  0.09845  0.81150  Biso   1.000  C
  H4       1.0000 0.25870  0.13530  0.79340  Biso   1.000  H
  C23      1.0000 0.89629  0.74781  0.18620  Biso   1.000  C
  C24      1.0000 0.41270  0.98450  0.38120  Biso   1.000  C
  C25      1.0000 0.20641  0.06509  0.66700  Biso   1.000  C
  H5       1.0000 0.21850  0.03560  0.63530  Biso   1.000  H
  H6       1.0000 0.22020  0.10050  0.65010  Biso   1.000  H
  C26      1.0000 0.94110  0.84325  0.22390  Biso   1.000  C
  C27      1.0000 0.28780  0.08663  0.89370  Biso   1.000  C
  H7       1.0000 0.30330  0.11610  0.92940  Biso   1.000  H
  C28      1.0000 0.20510  0.93840  0.29660  Biso   1.000  C
  H8       1.0000 0.22760  0.90620  0.31780  Biso   1.000  H
  C29      1.0000 0.06970  0.08950  0.50500  Biso   1.000  C
  H9       1.0000 0.06700  0.12670  0.51970  Biso   1.000  H
  C30      1.0000 0.73320  0.64135  0.00370  Biso   1.000  C
  C31      1.0000 0.13540  0.02874  0.23190  Biso   1.000  C
  H10      1.0000 0.11150  0.05970  0.20810  Biso   1.000  H
  C32      1.0000 0.44290  0.86180  0.16560  Biso   1.000  C
  C33      1.0000 0.64950  0.62517  0.38820  Biso   1.000  C
  C34      1.0000 0.60110  0.66132  0.33220  Biso   1.000  C
  C35      1.0000 0.19850  0.02640  0.23380  Biso   1.000  C
  H11      1.0000 0.21640  0.05570  0.21190  Biso   1.000  H
  C36      1.0000 0.18090  0.05420  0.03050  Biso   1.000  C
  H12      1.0000 0.20000  0.08920  0.03960  Biso   1.000  H
  C37      1.0000 0.04260  0.07250  0.42490  Biso   1.000  C
  C38      1.0000 0.44540  0.03440  0.40160  Biso   1.000  C
  H13      1.0000 0.42380  0.06660  0.40860  Biso   1.000  H
  C39      1.0000 0.80800  0.77680  0.07180  Biso   1.000  C
  H14      1.0000 0.78450  0.80450  0.03800  Biso   1.000  H
  C40      1.0000 0.82660  0.67873  0.11080  Biso   1.000  C
  C41      1.0000 0.34210  0.98150  0.36690  Biso   1.000  C
  H15      1.0000 0.33210  0.94840  0.39390  Biso   1.000  H
  H16      1.0000 0.32840  0.01390  0.39160  Biso   1.000  H
  C42      1.0000 0.88870  0.84487  0.15930  Biso   1.000  C
  H17      1.0000 0.87190  0.87790  0.13300  Biso   1.000  H
  C43      1.0000 0.73760  0.69735  0.99920  Biso   1.000  C
  C44      1.0000 0.50960  0.03642  0.41140  Biso   1.000  C
  H18      1.0000 0.53060  0.07030  0.42540  Biso   1.000  H
  C45      1.0000 0.44770  0.93750  0.37250  Biso   1.000  C
  H19      1.0000 0.42800  0.90290  0.35970  Biso   1.000  H
  C46      1.0000 0.27080  0.99355  0.87030  Biso   1.000  C
  H20      1.0000 0.27380  0.95690  0.88960  Biso   1.000  H
  C47      1.0000 0.10010  0.99650  0.53710  Biso   1.000  C
  H21      1.0000 0.11930  0.96900  0.57450  Biso   1.000  H
  C48      1.0000 0.59640  0.71741  0.33360  Biso   1.000  C
  H22      1.0000 0.62500  0.73980  0.37140  Biso   1.000  H
  C49      1.0000 0.18900  0.95840  0.02930  Biso   1.000  C
  H23      1.0000 0.21390  0.92630  0.03790  Biso   1.000  H
  C50      1.0000 0.30560  0.97930  0.27750  Biso   1.000  C
  H24      1.0000 0.31760  0.01080  0.24920  Biso   1.000  H
  H25      1.0000 0.31590  0.94510  0.25340  Biso   1.000  H
  C51      1.0000 0.57820  0.44870  0.64880  Biso   1.000  C
  H26      1.0000 0.57150  0.41390  0.62340  Biso   1.000  H
  C52      1.0000 0.12390  0.95310  0.00570  Biso   1.000  C
  H27      1.0000 0.10560  0.91760  0.99830  Biso   1.000  H
  C53      1.0000 0.01310  0.99580  0.96510  Biso   1.000  C
  H28      1.0000 0.00040  0.95930  0.94100  Biso   1.000  H
  H29      1.0000 0.99610  0.02400  0.92370  Biso   1.000  H
  C54      1.0000 0.59900  0.54750  0.72800  Biso   1.000  C
  C55      1.0000 0.57480  0.54740  0.64440  Biso   1.000  C
  H30      1.0000 0.56570  0.58100  0.61590  Biso   1.000  H
  C56      1.0000 0.56410  0.49730  0.60260  Biso   1.000  C
  C57      1.0000 0.60210  0.45240  0.73220  Biso   1.000  C
  C58      1.0000 0.11520  0.05100  0.00700  Biso   1.000  C
  H31      1.0000 0.09110  0.08360  0.00070  Biso   1.000  H
  C59      1.0000 0.53630  0.49650  0.51150  Biso   1.000  C
  H32      1.0000 0.54660  0.46140  0.48980  Biso   1.000  H
  H33      1.0000 0.55450  0.52670  0.48740  Biso   1.000  H
  C60      1.0000 0.08570  0.99960  0.99280  Biso   1.000  C
  H34      1.0000 0.12200  0.09620  0.66500  Biso   1.000  H
  H35      1.0000 0.71220  0.71360  0.96700  Biso   1.000  H
  H36      1.0000 0.46190  0.89650  0.19000  Biso   1.000  H
  H37      1.0000 0.53700  0.91800  0.38400  Biso   1.000  H
  H38      1.0000 0.12400  0.03300  0.69400  Biso   1.000  H
  H39      1.0000 0.43400  0.67600  0.11600  Biso   1.000  H
  H40      1.0000 0.90300  0.66800  0.21700  Biso   1.000  H
  H41      1.0000 0.11700  0.91200  0.31900  Biso   1.000  H
  H42      1.0000 0.60700  0.58200  0.76500  Biso   1.000  H
  H43      1.0000 0.02700  0.10270  0.39000  Biso   1.000  H
  H44      1.0000 0.61700  0.41600  0.76600  Biso   1.000  H
  S5       1.0000 0.17297  0.86065  0.52602  Biso   1.000  S
  S6       1.0000 0.04667  0.67055  0.37182  Biso   1.000  S
  O9       1.0000 0.00811  0.57027  0.28304  Biso   1.000  O
  O10      1.0000 0.34431  0.92317  0.55792  Biso   1.000  O
  O11      1.0000 0.09007  0.55335  0.23460  Biso   1.000  O
  O12      1.0000 0.26207  0.94487  0.60380  Biso   1.000  O
  C61      1.0000 0.28770  0.91473  0.56390  Biso   1.000  C
  C62      1.0000 0.09620  0.63035  0.32230  Biso   1.000  C
  C63      1.0000 0.06360  0.58123  0.27660  Biso   1.000  C
  C64      1.0000 0.25290  0.86623  0.51810  Biso   1.000  C
  C65      1.0000 0.22440  0.78240  0.44450  Biso   1.000  C
  C66      1.0000 0.17080  0.79860  0.46320  Biso   1.000  C
  C67      1.0000 0.17020  0.69970  0.37980  Biso   1.000  C
  C68      1.0000 0.11560  0.71710  0.39980  Biso   1.000  C
  C69      1.0000 0.11410  0.76610  0.44240  Biso   1.000  C
  H45      1.0000 0.07810  0.77710  0.45660  Biso   1.000  H
  C70      1.0000 0.22770  0.73220  0.40040  Biso   1.000  C
  H46      1.0000 0.26390  0.72140  0.38630  Biso   1.000  H
  Zn4      1.0000 0.68848  0.51769  0.45412  Biso   1.000  Zn
  Zn5      1.0000 0.98214  0.50010  0.22061  Biso   1.000  Zn
  Zn6      1.0000 0.36428  0.99987  0.60377  Biso   1.000  Zn
  S7       1.0000 0.45950  0.13144  0.24501  Biso   1.000  S
  S8       1.0000 0.03956  0.27586  0.23871  Biso   1.000  S
  S9       1.0000 0.20609  0.11293  0.41694  Biso   1.000  S
  S10      1.0000 0.62479  0.28983  0.43626  Biso   1.000  S
  O13      1.0000 0.64040  0.45140  0.40980  Biso   1.000  O
  N7       1.0000 0.95566  0.51958  0.09970  Biso   1.000  N
  N8       1.0000 0.70794  0.53500  0.57590  Biso   1.000  N
  O14      1.0000 0.36061  0.07279  0.12043  Biso   1.000  O
  O15      1.0000 0.35632  0.12462  0.60860  Biso   1.000  O
  O16      1.0000 0.30948  0.05259  0.53150  Biso   1.000  O
  N9       1.0000 0.89288  0.48795  0.23680  Biso   1.000  N
  N10      1.0000 0.45686  0.49129  0.09850  Biso   1.000  N
  O17      1.0000 0.69208  0.39175  0.50790  Biso   1.000  O
  O18      1.0000 0.30392  0.14726  0.06290  Biso   1.000  O
  N11      1.0000 0.78239  0.50896  0.45950  Biso   1.000  N
  O19      1.0000 0.03273  0.43722  0.27340  Biso   1.000  O
  C71      1.0000 0.11990  0.19166  0.32540  Biso   1.000  C
  C72      1.0000 0.45642  0.23956  0.22800  Biso   1.000  C
  O20      1.0000 0.97679  0.38282  0.17170  Biso   1.000  O
  C73      1.0000 0.48770  0.44300  0.11680  Biso   1.000  C
  C74      1.0000 0.89952  0.55097  0.93750  Biso   1.000  C
  N12      1.0000 0.38731  0.00086  0.72760  Biso   1.000  N
  C75      1.0000 0.60840  0.35781  0.40060  Biso   1.000  C
  C76      1.0000 0.92820  0.48240  0.04270  Biso   1.000  C
  H47      1.0000 0.92810  0.44490  0.05780  Biso   1.000  H
  C77      1.0000 0.52820  0.30798  0.30800  Biso   1.000  C
  C78      1.0000 0.13880  0.29079  0.36500  Biso   1.000  C
  C79      1.0000 0.47510  0.29527  0.24410  Biso   1.000  C
  H48      1.0000 0.45200  0.32380  0.21180  Biso   1.000  H
  C80      1.0000 0.49160  0.19689  0.27800  Biso   1.000  C
  C81      1.0000 0.65070  0.40309  0.44400  Biso   1.000  C
  C82      1.0000 0.85810  0.44330  0.20590  Biso   1.000  C
  C83      1.0000 0.54380  0.20838  0.34410  Biso   1.000  C
  C84      1.0000 0.01930  0.39090  0.23600  Biso   1.000  C
  C85      1.0000 0.56120  0.26387  0.35770  Biso   1.000  C
  C86      1.0000 0.76490  0.48140  0.23260  Biso   1.000  C
  C87      1.0000 0.21020  0.22078  0.44080  Biso   1.000  C
  C88      1.0000 0.76136  0.55582  0.74350  Biso   1.000  C
  C89      1.0000 0.86640  0.56550  0.85000  Biso   1.000  C
  C90      1.0000 0.75520  0.50285  0.71220  Biso   1.000  C
  H49      1.0000 0.76880  0.47260  0.74720  Biso   1.000  H
  C91      1.0000 0.31501  0.10444  0.55050  Biso   1.000  C
  C92      1.0000 0.73870  0.59845  0.68850  Biso   1.000  C
  H50      1.0000 0.74130  0.63530  0.70660  Biso   1.000  H
  C93      1.0000 0.10371  0.24781  0.31380  Biso   1.000  C
  C94      1.0000 0.58730  0.48450  0.11880  Biso   1.000  C
  C95      1.0000 0.79359  0.56509  0.83300  Biso   1.000  C
  H51      1.0000 0.78150  0.53560  0.86470  Biso   1.000  H
  H52      1.0000 0.77980  0.60050  0.84990  Biso   1.000  H
  C96      1.0000 0.05890  0.34325  0.27610  Biso   1.000  C
  C97      1.0000 0.71220  0.58663  0.60630  Biso   1.000  C
  H53      1.0000 0.69670  0.61610  0.57060  Biso   1.000  H
  C98      1.0000 0.79490  0.43840  0.20340  Biso   1.000  C
  H54      1.0000 0.77240  0.40620  0.18220  Biso   1.000  H
  C99      1.0000 0.93030  0.58950  0.99500  Biso   1.000  C
  H55      1.0000 0.93300  0.62670  0.98030  Biso   1.000  H
  C100     1.0000 0.26680  0.14135  0.49630  Biso   1.000  C
  C101     1.0000 0.86460  0.52874  0.26810  Biso   1.000  C
  H56      1.0000 0.88850  0.55970  0.29190  Biso   1.000  H
  C102     1.0000 0.55710  0.36180  0.33440  Biso   1.000  C
  C103     1.0000 0.35050  0.12517  0.11180  Biso   1.000  C
  C104     1.0000 0.39890  0.16132  0.16780  Biso   1.000  C
  C105     1.0000 0.80150  0.52640  0.26620  Biso   1.000  C
  H57      1.0000 0.78360  0.55570  0.28810  Biso   1.000  H
  C106     1.0000 0.81910  0.55420  0.46950  Biso   1.000  C
  H58      1.0000 0.80000  0.58920  0.46040  Biso   1.000  H
  C107     1.0000 0.95740  0.57250  0.07510  Biso   1.000  C
  C108     1.0000 0.55460  0.53440  0.09840  Biso   1.000  C
  H59      1.0000 0.57620  0.56660  0.09140  Biso   1.000  H
  C109     1.0000 0.19200  0.27680  0.42820  Biso   1.000  C
  H60      1.0000 0.21550  0.30450  0.46200  Biso   1.000  H
  C110     1.0000 0.17340  0.17873  0.38920  Biso   1.000  C
  C111     1.0000 0.65790  0.48150  0.13310  Biso   1.000  C
  H61      1.0000 0.66790  0.44840  0.10610  Biso   1.000  H
  H62      1.0000 0.67160  0.51390  0.10840  Biso   1.000  H
  C112     1.0000 0.11130  0.34487  0.34070  Biso   1.000  C
  H63      1.0000 0.12810  0.37790  0.36700  Biso   1.000  H
  C113     1.0000 0.26240  0.19735  0.50080  Biso   1.000  C
  C114     1.0000 0.49040  0.53642  0.08860  Biso   1.000  C
  H64      1.0000 0.46940  0.57030  0.07460  Biso   1.000  H
  C115     1.0000 0.55230  0.43750  0.12750  Biso   1.000  C
  H65      1.0000 0.57200  0.40290  0.14030  Biso   1.000  H
  C116     1.0000 0.72920  0.49355  0.62970  Biso   1.000  C
  H66      1.0000 0.72620  0.45690  0.61040  Biso   1.000  H
  C117     1.0000 0.89990  0.49650  0.96290  Biso   1.000  C
  H67      1.0000 0.88070  0.46900  0.92550  Biso   1.000  H
  C118     1.0000 0.40360  0.21741  0.16640  Biso   1.000  C
  H68      1.0000 0.37500  0.23980  0.12860  Biso   1.000  H
  C119     1.0000 0.81100  0.45840  0.47070  Biso   1.000  C
  H69      1.0000 0.78610  0.42630  0.46210  Biso   1.000  H
  C120     1.0000 0.69440  0.47930  0.22250  Biso   1.000  C
  H70      1.0000 0.68240  0.51080  0.25080  Biso   1.000  H
  H71      1.0000 0.68410  0.44510  0.24660  Biso   1.000  H
  C121     1.0000 0.42180  0.94870  0.85120  Biso   1.000  C
  H72      1.0000 0.42850  0.91390  0.87660  Biso   1.000  H
  C122     1.0000 0.87610  0.45310  0.49430  Biso   1.000  C
  H73      1.0000 0.89440  0.41760  0.50170  Biso   1.000  H
  C123     1.0000 0.98690  0.49580  0.53490  Biso   1.000  C
  H74      1.0000 0.99960  0.45930  0.55900  Biso   1.000  H
  H75      1.0000 0.00390  0.52400  0.57630  Biso   1.000  H
  C124     1.0000 0.40100  0.04750  0.77200  Biso   1.000  C
  C125     1.0000 0.42520  0.04740  0.85560  Biso   1.000  C
  H76      1.0000 0.43430  0.08100  0.88410  Biso   1.000  H
  C126     1.0000 0.43590  0.99730  0.89740  Biso   1.000  C
  C127     1.0000 0.39790  0.95240  0.76780  Biso   1.000  C
  C128     1.0000 0.88480  0.55100  0.49300  Biso   1.000  C
  H77      1.0000 0.90890  0.58360  0.49930  Biso   1.000  H
  C129     1.0000 0.46370  0.99650  0.98850  Biso   1.000  C
  H78      1.0000 0.45340  0.96140  0.01020  Biso   1.000  H
  H79      1.0000 0.44550  0.02670  0.01260  Biso   1.000  H
  C130     1.0000 0.91430  0.49960  0.50720  Biso   1.000  C
  H80      1.0000 0.87800  0.59620  0.83500  Biso   1.000  H
  H81      1.0000 0.28780  0.21360  0.53300  Biso   1.000  H
  H82      1.0000 0.53810  0.39650  0.31000  Biso   1.000  H
  H83      1.0000 0.46300  0.41800  0.11600  Biso   1.000  H
  H84      1.0000 0.87600  0.53300  0.80600  Biso   1.000  H
  H85      1.0000 0.56600  0.17600  0.38400  Biso   1.000  H
  H86      1.0000 0.09700  0.16800  0.28300  Biso   1.000  H
  H87      1.0000 0.88300  0.41200  0.18100  Biso   1.000  H
  H88      1.0000 0.39300  0.08200  0.73500  Biso   1.000  H
  H89      1.0000 0.97300  0.60270  0.11000  Biso   1.000  H
  H90      1.0000 0.38300  0.91600  0.73400  Biso   1.000  H
  Zn7      1.0000 0.68848  0.98231  0.95412  Biso   1.000  Zn
  Zn8      1.0000 0.98214  0.99990  0.72061  Biso   1.000  Zn
  Zn9      1.0000 0.36428  0.50013  0.10377  Biso   1.000  Zn
  S11      1.0000 0.45950  0.36856  0.74501  Biso   1.000  S
  S12      1.0000 0.03956  0.22414  0.73871  Biso   1.000  S
  S13      1.0000 0.20609  0.38707  0.91694  Biso   1.000  S
  S14      1.0000 0.62479  0.21017  0.93626  Biso   1.000  S
  O21      1.0000 0.64040  0.04860  0.90980  Biso   1.000  O
  N13      1.0000 0.95566  0.98042  0.59970  Biso   1.000  N
  N14      1.0000 0.70794  0.96500  0.07590  Biso   1.000  N
  O22      1.0000 0.36061  0.42721  0.62043  Biso   1.000  O
  O23      1.0000 0.35632  0.37538  0.10860  Biso   1.000  O
  O24      1.0000 0.30948  0.44741  0.03150  Biso   1.000  O
  N15      1.0000 0.89288  0.01205  0.73680  Biso   1.000  N
  N16      1.0000 0.45686  0.00871  0.59850  Biso   1.000  N
  O25      1.0000 0.69208  0.10825  0.00790  Biso   1.000  O
  O26      1.0000 0.30392  0.35274  0.56290  Biso   1.000  O
  N17      1.0000 0.78239  0.99104  0.95950  Biso   1.000  N
  O27      1.0000 0.03273  0.06278  0.77340  Biso   1.000  O
  C131     1.0000 0.11990  0.30834  0.82540  Biso   1.000  C
  C132     1.0000 0.45642  0.26044  0.72800  Biso   1.000  C
  O28      1.0000 0.97679  0.11718  0.67170  Biso   1.000  O
  C133     1.0000 0.48770  0.05700  0.61680  Biso   1.000  C
  C134     1.0000 0.89952  0.94903  0.43750  Biso   1.000  C
  N18      1.0000 0.38731  0.49914  0.22760  Biso   1.000  N
  C135     1.0000 0.60840  0.14219  0.90060  Biso   1.000  C
  C136     1.0000 0.92820  0.01760  0.54270  Biso   1.000  C
  H91      1.0000 0.92810  0.05510  0.55780  Biso   1.000  H
  C137     1.0000 0.52820  0.19202  0.80800  Biso   1.000  C
  C138     1.0000 0.13880  0.20921  0.86500  Biso   1.000  C
  C139     1.0000 0.47510  0.20473  0.74410  Biso   1.000  C
  H92      1.0000 0.45200  0.17620  0.71180  Biso   1.000  H
  C140     1.0000 0.49160  0.30311  0.77800  Biso   1.000  C
  C141     1.0000 0.65070  0.09691  0.94400  Biso   1.000  C
  C142     1.0000 0.85810  0.05670  0.70590  Biso   1.000  C
  C143     1.0000 0.54380  0.29162  0.84410  Biso   1.000  C
  C144     1.0000 0.01930  0.10910  0.73600  Biso   1.000  C
  C145     1.0000 0.56120  0.23613  0.85770  Biso   1.000  C
  C146     1.0000 0.76490  0.01860  0.73260  Biso   1.000  C
  C147     1.0000 0.21020  0.27922  0.94080  Biso   1.000  C
  C148     1.0000 0.76136  0.94418  0.24350  Biso   1.000  C
  C149     1.0000 0.86640  0.93450  0.35000  Biso   1.000  C
  C150     1.0000 0.75520  0.99715  0.21220  Biso   1.000  C
  H93      1.0000 0.76880  0.02740  0.24720  Biso   1.000  H
  C151     1.0000 0.31501  0.39556  0.05050  Biso   1.000  C
  C152     1.0000 0.73870  0.90155  0.18850  Biso   1.000  C
  H94      1.0000 0.74130  0.86470  0.20660  Biso   1.000  H
  C153     1.0000 0.10371  0.25219  0.81380  Biso   1.000  C
  C154     1.0000 0.58730  0.01550  0.61880  Biso   1.000  C
  C155     1.0000 0.79359  0.93491  0.33300  Biso   1.000  C
  H95      1.0000 0.78150  0.96440  0.36470  Biso   1.000  H
  H96      1.0000 0.77980  0.89950  0.34990  Biso   1.000  H
  C156     1.0000 0.05890  0.15675  0.77610  Biso   1.000  C
  C157     1.0000 0.71220  0.91337  0.10630  Biso   1.000  C
  H97      1.0000 0.69670  0.88390  0.07060  Biso   1.000  H
  C158     1.0000 0.79490  0.06160  0.70340  Biso   1.000  C
  H98      1.0000 0.77240  0.09380  0.68220  Biso   1.000  H
  C159     1.0000 0.93030  0.91050  0.49500  Biso   1.000  C
  H99      1.0000 0.93300  0.87330  0.48030  Biso   1.000  H
  C160     1.0000 0.26680  0.35865  0.99630  Biso   1.000  C
  C161     1.0000 0.86460  0.97126  0.76810  Biso   1.000  C
  H100     1.0000 0.88850  0.94030  0.79190  Biso   1.000  H
  C162     1.0000 0.55710  0.13820  0.83440  Biso   1.000  C
  C163     1.0000 0.35050  0.37483  0.61180  Biso   1.000  C
  C164     1.0000 0.39890  0.33868  0.66780  Biso   1.000  C
  C165     1.0000 0.80150  0.97360  0.76620  Biso   1.000  C
  H101     1.0000 0.78360  0.94430  0.78810  Biso   1.000  H
  C166     1.0000 0.81910  0.94580  0.96950  Biso   1.000  C
  H102     1.0000 0.80000  0.91080  0.96040  Biso   1.000  H
  C167     1.0000 0.95740  0.92750  0.57510  Biso   1.000  C
  C168     1.0000 0.55460  0.96560  0.59840  Biso   1.000  C
  H103     1.0000 0.57620  0.93340  0.59140  Biso   1.000  H
  C169     1.0000 0.19200  0.22320  0.92820  Biso   1.000  C
  H104     1.0000 0.21550  0.19550  0.96200  Biso   1.000  H
  C170     1.0000 0.17340  0.32127  0.88920  Biso   1.000  C
  C171     1.0000 0.65790  0.01850  0.63310  Biso   1.000  C
  H105     1.0000 0.66790  0.05160  0.60610  Biso   1.000  H
  H106     1.0000 0.67160  0.98610  0.60840  Biso   1.000  H
  C172     1.0000 0.11130  0.15513  0.84070  Biso   1.000  C
  H107     1.0000 0.12810  0.12210  0.86700  Biso   1.000  H
  C173     1.0000 0.26240  0.30265  0.00080  Biso   1.000  C
  C174     1.0000 0.49040  0.96358  0.58860  Biso   1.000  C
  H108     1.0000 0.46940  0.92970  0.57460  Biso   1.000  H
  C175     1.0000 0.55230  0.06250  0.62750  Biso   1.000  C
  H109     1.0000 0.57200  0.09710  0.64030  Biso   1.000  H
  C176     1.0000 0.72920  0.00645  0.12970  Biso   1.000  C
  H110     1.0000 0.72620  0.04310  0.11040  Biso   1.000  H
  C177     1.0000 0.89990  0.00350  0.46290  Biso   1.000  C
  H111     1.0000 0.88070  0.03100  0.42550  Biso   1.000  H
  C178     1.0000 0.40360  0.28259  0.66640  Biso   1.000  C
  H112     1.0000 0.37500  0.26020  0.62860  Biso   1.000  H
  C179     1.0000 0.81100  0.04160  0.97070  Biso   1.000  C
  H113     1.0000 0.78610  0.07370  0.96210  Biso   1.000  H
  C180     1.0000 0.69440  0.02070  0.72250  Biso   1.000  C
  H114     1.0000 0.68240  0.98920  0.75080  Biso   1.000  H
  H115     1.0000 0.68410  0.05490  0.74660  Biso   1.000  H
  C181     1.0000 0.42180  0.55130  0.35120  Biso   1.000  C
  H116     1.0000 0.42850  0.58610  0.37660  Biso   1.000  H
  C182     1.0000 0.87610  0.04690  0.99430  Biso   1.000  C
  H117     1.0000 0.89440  0.08240  0.00170  Biso   1.000  H
  C183     1.0000 0.98690  0.00420  0.03490  Biso   1.000  C
  H118     1.0000 0.99960  0.04070  0.05900  Biso   1.000  H
  H119     1.0000 0.00390  0.97600  0.07630  Biso   1.000  H
  C184     1.0000 0.40100  0.45250  0.27200  Biso   1.000  C
  C185     1.0000 0.42520  0.45260  0.35560  Biso   1.000  C
  H120     1.0000 0.43430  0.41900  0.38410  Biso   1.000  H
  C186     1.0000 0.43590  0.50270  0.39740  Biso   1.000  C
  C187     1.0000 0.39790  0.54760  0.26780  Biso   1.000  C
  C188     1.0000 0.88480  0.94900  0.99300  Biso   1.000  C
  H121     1.0000 0.90890  0.91640  0.99930  Biso   1.000  H
  C189     1.0000 0.46370  0.50350  0.48850  Biso   1.000  C
  H122     1.0000 0.45340  0.53860  0.51020  Biso   1.000  H
  H123     1.0000 0.44550  0.47330  0.51260  Biso   1.000  H
  C190     1.0000 0.91430  0.00040  0.00720  Biso   1.000  C
  H124     1.0000 0.87800  0.90380  0.33500  Biso   1.000  H
  H125     1.0000 0.28780  0.28640  0.03300  Biso   1.000  H
  H126     1.0000 0.53810  0.10350  0.81000  Biso   1.000  H
  H127     1.0000 0.46300  0.08200  0.61600  Biso   1.000  H
  H128     1.0000 0.87600  0.96700  0.30600  Biso   1.000  H
  H129     1.0000 0.56600  0.32400  0.88400  Biso   1.000  H
  H130     1.0000 0.09700  0.33200  0.78300  Biso   1.000  H
  H131     1.0000 0.88300  0.08800  0.68100  Biso   1.000  H
  H132     1.0000 0.39300  0.41800  0.23500  Biso   1.000  H
  H133     1.0000 0.97300  0.89730  0.61000  Biso   1.000  H
  H134     1.0000 0.38300  0.58400  0.23400  Biso   1.000  H
  S15      1.0000 0.82703  0.13935  0.47398  Biso   1.000  S
  S16      1.0000 0.95333  0.32945  0.62818  Biso   1.000  S
  O29      1.0000 0.99189  0.42973  0.71696  Biso   1.000  O
  O30      1.0000 0.65569  0.07683  0.44208  Biso   1.000  O
  O31      1.0000 0.90993  0.44665  0.76540  Biso   1.000  O
  O32      1.0000 0.73793  0.05513  0.39620  Biso   1.000  O
  C191     1.0000 0.71230  0.08527  0.43610  Biso   1.000  C
  C192     1.0000 0.90380  0.36965  0.67770  Biso   1.000  C
  C193     1.0000 0.93640  0.41877  0.72340  Biso   1.000  C
  C194     1.0000 0.74710  0.13377  0.48190  Biso   1.000  C
  C195     1.0000 0.77560  0.21760  0.55550  Biso   1.000  C
  C196     1.0000 0.82920  0.20140  0.53680  Biso   1.000  C
  C197     1.0000 0.82980  0.30030  0.62020  Biso   1.000  C
  C198     1.0000 0.88440  0.28290  0.60020  Biso   1.000  C
  C199     1.0000 0.88590  0.23390  0.55760  Biso   1.000  C
  H135     1.0000 0.92190  0.22290  0.54340  Biso   1.000  H
  C200     1.0000 0.77230  0.26780  0.59960  Biso   1.000  C
  H136     1.0000 0.73610  0.27860  0.61370  Biso   1.000  H
  Zn10     1.0000 0.31152  0.48231  0.54588  Biso   1.000  Zn
  Zn11     1.0000 0.01786  0.49990  0.77939  Biso   1.000  Zn
  Zn12     1.0000 0.63572  0.00013  0.39623  Biso   1.000  Zn
  S17      1.0000 0.54050  0.86856  0.75499  Biso   1.000  S
  S18      1.0000 0.96044  0.72414  0.76129  Biso   1.000  S
  S19      1.0000 0.79391  0.88707  0.58306  Biso   1.000  S
  S20      1.0000 0.37521  0.71017  0.56374  Biso   1.000  S
  O33      1.0000 0.35960  0.54860  0.59020  Biso   1.000  O
  N19      1.0000 0.04434  0.48042  0.90030  Biso   1.000  N
  N20      1.0000 0.29206  0.46500  0.42410  Biso   1.000  N
  O34      1.0000 0.63939  0.92721  0.87957  Biso   1.000  O
  O35      1.0000 0.64368  0.87538  0.39140  Biso   1.000  O
  O36      1.0000 0.69052  0.94741  0.46850  Biso   1.000  O
  N21      1.0000 0.10712  0.51205  0.76320  Biso   1.000  N
  N22      1.0000 0.54314  0.50871  0.90150  Biso   1.000  N
  O37      1.0000 0.30792  0.60825  0.49210  Biso   1.000  O
  O38      1.0000 0.69608  0.85274  0.93710  Biso   1.000  O
  N23      1.0000 0.21761  0.49104  0.54050  Biso   1.000  N
  O39      1.0000 0.96727  0.56278  0.72660  Biso   1.000  O
  C201     1.0000 0.88010  0.80834  0.67460  Biso   1.000  C
  C202     1.0000 0.54358  0.76044  0.77200  Biso   1.000  C
  O40      1.0000 0.02321  0.61718  0.82830  Biso   1.000  O
  C203     1.0000 0.51230  0.55700  0.88320  Biso   1.000  C
  C204     1.0000 0.10048  0.44903  0.06250  Biso   1.000  C
  N24      1.0000 0.61269  0.99914  0.27240  Biso   1.000  N
  C205     1.0000 0.39160  0.64219  0.59940  Biso   1.000  C
  C206     1.0000 0.07180  0.51760  0.95730  Biso   1.000  C
  H137     1.0000 0.07190  0.55510  0.94220  Biso   1.000  H
  C207     1.0000 0.47180  0.69202  0.69200  Biso   1.000  C
  C208     1.0000 0.86120  0.70921  0.63500  Biso   1.000  C
  C209     1.0000 0.52490  0.70473  0.75590  Biso   1.000  C
  H138     1.0000 0.54800  0.67620  0.78820  Biso   1.000  H
  C210     1.0000 0.50840  0.80311  0.72200  Biso   1.000  C
  C211     1.0000 0.34930  0.59691  0.55600  Biso   1.000  C
  C212     1.0000 0.14190  0.55670  0.79410  Biso   1.000  C
  C213     1.0000 0.45620  0.79162  0.65590  Biso   1.000  C
  C214     1.0000 0.98070  0.60910  0.76400  Biso   1.000  C
  C215     1.0000 0.43880  0.73613  0.64230  Biso   1.000  C
  C216     1.0000 0.23510  0.51860  0.76740  Biso   1.000  C
  C217     1.0000 0.78980  0.77922  0.55920  Biso   1.000  C
  C218     1.0000 0.23864  0.44418  0.25650  Biso   1.000  C
  C219     1.0000 0.13360  0.43450  0.15000  Biso   1.000  C
  C220     1.0000 0.24480  0.49715  0.28780  Biso   1.000  C
  H139     1.0000 0.23120  0.52740  0.25280  Biso   1.000  H
  C221     1.0000 0.68499  0.89556  0.44950  Biso   1.000  C
  C222     1.0000 0.26130  0.40155  0.31150  Biso   1.000  C
  H140     1.0000 0.25870  0.36470  0.29340  Biso   1.000  H
  C223     1.0000 0.89629  0.75219  0.68620  Biso   1.000  C
  C224     1.0000 0.41270  0.51550  0.88120  Biso   1.000  C
  C225     1.0000 0.20641  0.43491  0.16700  Biso   1.000  C
  H141     1.0000 0.21850  0.46440  0.13530  Biso   1.000  H
  H142     1.0000 0.22020  0.39950  0.15010  Biso   1.000  H
  C226     1.0000 0.94110  0.65675  0.72390  Biso   1.000  C
  C227     1.0000 0.28780  0.41337  0.39370  Biso   1.000  C
  H143     1.0000 0.30330  0.38390  0.42940  Biso   1.000  H
  C228     1.0000 0.20510  0.56160  0.79660  Biso   1.000  C
  H144     1.0000 0.22760  0.59380  0.81780  Biso   1.000  H
  C229     1.0000 0.06970  0.41050  0.00500  Biso   1.000  C
  H145     1.0000 0.06700  0.37330  0.01970  Biso   1.000  H
  C230     1.0000 0.73320  0.85865  0.50370  Biso   1.000  C
  C231     1.0000 0.13540  0.47126  0.73190  Biso   1.000  C
  H146     1.0000 0.11150  0.44030  0.70810  Biso   1.000  H
  C232     1.0000 0.44290  0.63820  0.66560  Biso   1.000  C
  C233     1.0000 0.64950  0.87483  0.88820  Biso   1.000  C
  C234     1.0000 0.60110  0.83868  0.83220  Biso   1.000  C
  C235     1.0000 0.19850  0.47360  0.73380  Biso   1.000  C
  H147     1.0000 0.21640  0.44430  0.71190  Biso   1.000  H
  C236     1.0000 0.18090  0.44580  0.53050  Biso   1.000  C
  H148     1.0000 0.20000  0.41080  0.53960  Biso   1.000  H
  C237     1.0000 0.04260  0.42750  0.92490  Biso   1.000  C
  C238     1.0000 0.44540  0.46560  0.90160  Biso   1.000  C
  H149     1.0000 0.42380  0.43340  0.90860  Biso   1.000  H
  C239     1.0000 0.80800  0.72320  0.57180  Biso   1.000  C
  H150     1.0000 0.78450  0.69550  0.53800  Biso   1.000  H
  C240     1.0000 0.82660  0.82127  0.61080  Biso   1.000  C
  C241     1.0000 0.34210  0.51850  0.86690  Biso   1.000  C
  H151     1.0000 0.33210  0.55160  0.89390  Biso   1.000  H
  H152     1.0000 0.32840  0.48610  0.89160  Biso   1.000  H
  C242     1.0000 0.88870  0.65513  0.65930  Biso   1.000  C
  H153     1.0000 0.87190  0.62210  0.63300  Biso   1.000  H
  C243     1.0000 0.73760  0.80265  0.49920  Biso   1.000  C
  C244     1.0000 0.50960  0.46358  0.91140  Biso   1.000  C
  H154     1.0000 0.53060  0.42970  0.92540  Biso   1.000  H
  C245     1.0000 0.44770  0.56250  0.87250  Biso   1.000  C
  H155     1.0000 0.42800  0.59710  0.85970  Biso   1.000  H
  C246     1.0000 0.27080  0.50645  0.37030  Biso   1.000  C
  H156     1.0000 0.27380  0.54310  0.38960  Biso   1.000  H
  C247     1.0000 0.10010  0.50350  0.03710  Biso   1.000  C
  H157     1.0000 0.11930  0.53100  0.07450  Biso   1.000  H
  C248     1.0000 0.59640  0.78259  0.83360  Biso   1.000  C
  H158     1.0000 0.62500  0.76020  0.87140  Biso   1.000  H
  C249     1.0000 0.18900  0.54160  0.52930  Biso   1.000  C
  H159     1.0000 0.21390  0.57370  0.53790  Biso   1.000  H
  C250     1.0000 0.30560  0.52070  0.77750  Biso   1.000  C
  H160     1.0000 0.31760  0.48920  0.74920  Biso   1.000  H
  H161     1.0000 0.31590  0.55490  0.75340  Biso   1.000  H
  C251     1.0000 0.57820  0.05130  0.14880  Biso   1.000  C
  H162     1.0000 0.57150  0.08610  0.12340  Biso   1.000  H
  C252     1.0000 0.12390  0.54690  0.50570  Biso   1.000  C
  H163     1.0000 0.10560  0.58240  0.49830  Biso   1.000  H
  C253     1.0000 0.01310  0.50420  0.46510  Biso   1.000  C
  H164     1.0000 0.00040  0.54070  0.44100  Biso   1.000  H
  H165     1.0000 0.99610  0.47600  0.42370  Biso   1.000  H
  C254     1.0000 0.59900  0.95250  0.22800  Biso   1.000  C
  C255     1.0000 0.57480  0.95260  0.14440  Biso   1.000  C
  H166     1.0000 0.56570  0.91900  0.11590  Biso   1.000  H
  C256     1.0000 0.56410  0.00270  0.10260  Biso   1.000  C
  C257     1.0000 0.60210  0.04760  0.23220  Biso   1.000  C
  C258     1.0000 0.11520  0.44900  0.50700  Biso   1.000  C
  H167     1.0000 0.09110  0.41640  0.50070  Biso   1.000  H
  C259     1.0000 0.53630  0.00350  0.01150  Biso   1.000  C
  H168     1.0000 0.54660  0.03860  0.98980  Biso   1.000  H
  H169     1.0000 0.55450  0.97330  0.98740  Biso   1.000  H
  C260     1.0000 0.08570  0.50040  0.49280  Biso   1.000  C
  H170     1.0000 0.12200  0.40380  0.16500  Biso   1.000  H
  H171     1.0000 0.71220  0.78640  0.46700  Biso   1.000  H
  H172     1.0000 0.46190  0.60350  0.69000  Biso   1.000  H
  H173     1.0000 0.53700  0.58200  0.88400  Biso   1.000  H
  H174     1.0000 0.12400  0.46700  0.19400  Biso   1.000  H
  H175     1.0000 0.43400  0.82400  0.61600  Biso   1.000  H
  H176     1.0000 0.90300  0.83200  0.71700  Biso   1.000  H
  H177     1.0000 0.11700  0.58800  0.81900  Biso   1.000  H
  H178     1.0000 0.60700  0.91800  0.26500  Biso   1.000  H
  H179     1.0000 0.02700  0.39730  0.89000  Biso   1.000  H
  H180     1.0000 0.61700  0.08400  0.26600  Biso   1.000  H
