data_EXIBUI_clean
_audit_creation_date              2014-07-02
_audit_creation_method            'Materials Studio'
_symmetry_space_group_name_H-M    'P1'
_symmetry_Int_Tables_number       1
_symmetry_cell_setting            triclinic
loop_
_symmetry_equiv_pos_as_xyz
  x,y,z
_cell_length_a                    7.2190
_cell_length_b                    10.7950
_cell_length_c                    11.6620
_cell_angle_alpha                 113.6860
_cell_angle_beta                  102.8140
_cell_angle_gamma                 95.0690
loop_
_atom_site_label
_atom_site_type_symbol
_atom_site_fract_x
_atom_site_fract_y
_atom_site_fract_z
_atom_site_U_iso_or_equiv
_atom_site_adp_type
_atom_site_occupancy
Ba1    Ba    0.54785   0.22705   0.61578   0.01267  Uiso   1.00
Ba2    Ba    0.45215   0.77295   0.38422   0.01267  Uiso   1.00
V1     V     0.86984   0.74980   0.17464   0.01267  Uiso   1.00
V2     V     0.13016   0.25020   0.82536   0.01267  Uiso   1.00
H1     H     0.59600   0.73000   0.73150   0.01267  Uiso   1.00
H2     H     0.76000   0.12150   0.02400   0.01267  Uiso   1.00
H3     H     0.15000   0.97700   0.42460   0.01267  Uiso   1.00
H4     H     0.18700   0.95300   0.54500   0.01267  Uiso   1.00
H5     H     0.40400   0.27000   0.26850   0.01267  Uiso   1.00
H6     H     0.24000   0.87850   0.97600   0.01267  Uiso   1.00
H7     H     0.85000   0.02300   0.57540   0.01267  Uiso   1.00
H8     H     0.81300   0.04700   0.45500   0.01267  Uiso   1.00
C1     C     0.70630   0.59780   0.89410   0.01267  Uiso   1.00
C2     C     0.71330   0.74520   0.91440   0.01267  Uiso   1.00
C3     C     0.65210   0.79270   0.82160   0.01267  Uiso   1.00
C4     C     0.66460   0.93460   0.86300   0.01267  Uiso   1.00
C5     C     0.59070   0.98880   0.76170   0.01267  Uiso   1.00
C6     C     0.74170   0.02390   0.99510   0.01267  Uiso   1.00
C7     C     0.80320   0.96780   0.08170   0.01267  Uiso   1.00
C8     C     0.88790   0.04190   0.22760   0.01267  Uiso   1.00
C9     C     0.29370   0.40220   0.10590   0.01267  Uiso   1.00
C10    C     0.28670   0.25480   0.08560   0.01267  Uiso   1.00
C11    C     0.34790   0.20730   0.17840   0.01267  Uiso   1.00
C12    C     0.33540   0.06540   0.13700   0.01267  Uiso   1.00
C13    C     0.40930   0.01120   0.23830   0.01267  Uiso   1.00
C14    C     0.25830   0.97610   0.00490   0.01267  Uiso   1.00
C15    C     0.19680   0.03220   0.91830   0.01267  Uiso   1.00
C16    C     0.11210   0.95810   0.77240   0.01267  Uiso   1.00
N1     N     0.78820   0.83160   0.03980   0.01267  Uiso   1.00
N2     N     0.21180   0.16840   0.96020   0.01267  Uiso   1.00
O1     O     0.64230   0.50130   0.78680   0.01267  Uiso   1.00
O2     O     0.77160   0.58780   0.00310   0.01267  Uiso   1.00
O3     O     0.92540   0.95770   0.28060   0.01267  Uiso   1.00
O4     O     0.91500   0.16660   0.28720   0.01267  Uiso   1.00
O5     O     0.56740   0.90900   0.64740   0.01267  Uiso   1.00
O6     O     0.56020   0.10810   0.80220   0.01267  Uiso   1.00
O7     O     0.74040   0.71020   0.25600   0.01267  Uiso   1.00
O8     O     0.08680   0.72720   0.21870   0.01267  Uiso   1.00
O9     O     0.24210   0.98970   0.49870   0.01267  Uiso   1.00
O10    O     0.35770   0.49870   0.21320   0.01267  Uiso   1.00
O11    O     0.22840   0.41220   0.99690   0.01267  Uiso   1.00
O12    O     0.07460   0.04230   0.71940   0.01267  Uiso   1.00
O13    O     0.08500   0.83340   0.71280   0.01267  Uiso   1.00
O14    O     0.43260   0.09100   0.35260   0.01267  Uiso   1.00
O15    O     0.43980   0.89190   0.19780   0.01267  Uiso   1.00
O16    O     0.25960   0.28980   0.74400   0.01267  Uiso   1.00
O17    O     0.91320   0.27280   0.78130   0.01267  Uiso   1.00
O18    O     0.75790   0.01030   0.50130   0.01267  Uiso   1.00
