data_image0
_cell_length_a       9.038
_cell_length_b       9.038
_cell_length_c       18.975
_cell_angle_alpha    90
_cell_angle_beta     90
_cell_angle_gamma    120

_symmetry_space_group_name_H-M    "P 1"
_symmetry_int_tables_number       1

loop_
  _symmetry_equiv_pos_as_xyz
  'x, y, z'

loop_
  _atom_site_label
  _atom_site_occupancy
  _atom_site_fract_x
  _atom_site_fract_y
  _atom_site_fract_z
  _atom_site_thermal_displace_type
  _atom_site_B_iso_or_equiv
  _atom_site_type_symbol
  C1       1.0000 0.76920  0.99840  0.07780  Biso   1.000  C
  O1       1.0000 0.85350  0.11200  0.12520  Biso   1.000  O
  C2       1.0000 0.63110  0.99690  0.03810  Biso   1.000  C
  O2       1.0000 0.81370  0.88770  0.06950  Biso   1.000  O
  C3       1.0000 0.00160  0.77080  0.74447  Biso   1.000  C
  O3       1.0000 0.88800  0.74150  0.79187  Biso   1.000  O
  C4       1.0000 0.00310  0.63420  0.70477  Biso   1.000  C
  O4       1.0000 0.11230  0.92600  0.73617  Biso   1.000  O
  C5       1.0000 0.22920  0.23080  0.41113  Biso   1.000  C
  O5       1.0000 0.25850  0.14650  0.45853  Biso   1.000  O
  C6       1.0000 0.36580  0.36890  0.37143  Biso   1.000  C
  O6       1.0000 0.07400  0.18630  0.40283  Biso   1.000  O
  C7       1.0000 0.23080  0.00160  0.07780  Biso   1.000  C
  O7       1.0000 0.14650  0.88800  0.12520  Biso   1.000  O
  C8       1.0000 0.36890  0.00310  0.03810  Biso   1.000  C
  O8       1.0000 0.18630  0.11230  0.06950  Biso   1.000  O
  C9       1.0000 0.99840  0.22920  0.74447  Biso   1.000  C
  O9       1.0000 0.11200  0.25850  0.79187  Biso   1.000  O
  C10      1.0000 0.99690  0.36580  0.70477  Biso   1.000  C
  O10      1.0000 0.88770  0.07400  0.73617  Biso   1.000  O
  C11      1.0000 0.77080  0.76920  0.41113  Biso   1.000  C
  O11      1.0000 0.74150  0.85350  0.45853  Biso   1.000  O
  C12      1.0000 0.63420  0.63110  0.37143  Biso   1.000  C
  O12      1.0000 0.92600  0.81370  0.40283  Biso   1.000  O
  C13      1.0000 0.99840  0.76920  0.58887  Biso   1.000  C
  O13      1.0000 0.11200  0.85350  0.54147  Biso   1.000  O
  C14      1.0000 0.99690  0.63110  0.62857  Biso   1.000  C
  O14      1.0000 0.88770  0.81370  0.59717  Biso   1.000  O
  C15      1.0000 0.77080  0.00160  0.92220  Biso   1.000  C
  O15      1.0000 0.74150  0.88800  0.87480  Biso   1.000  O
  C16      1.0000 0.63420  0.00310  0.96190  Biso   1.000  C
  O16      1.0000 0.92600  0.11230  0.93050  Biso   1.000  O
  C17      1.0000 0.23080  0.22920  0.25553  Biso   1.000  C
  O17      1.0000 0.14650  0.25850  0.20813  Biso   1.000  O
  C18      1.0000 0.36890  0.36580  0.29523  Biso   1.000  C
  O18      1.0000 0.18630  0.07400  0.26383  Biso   1.000  O
  C19      1.0000 0.00160  0.23080  0.58887  Biso   1.000  C
  O19      1.0000 0.88800  0.14650  0.54147  Biso   1.000  O
  C20      1.0000 0.00310  0.36890  0.62857  Biso   1.000  C
  O20      1.0000 0.11230  0.18630  0.59717  Biso   1.000  O
  C21      1.0000 0.22920  0.99840  0.92220  Biso   1.000  C
  O21      1.0000 0.25850  0.11200  0.87480  Biso   1.000  O
  C22      1.0000 0.36580  0.99690  0.96190  Biso   1.000  C
  O22      1.0000 0.07400  0.88770  0.93050  Biso   1.000  O
  C23      1.0000 0.76920  0.77080  0.25553  Biso   1.000  C
  O23      1.0000 0.85350  0.74150  0.20813  Biso   1.000  O
  C24      1.0000 0.63110  0.63420  0.29523  Biso   1.000  C
  O24      1.0000 0.81370  0.92600  0.26383  Biso   1.000  O
  In1      1.0000 0.00000  0.00000  0.16667  Biso   1.000  In
  In2      1.0000 0.00000  0.00000  0.83333  Biso   1.000  In
  In3      1.0000 0.00000  0.00000  0.50000  Biso   1.000  In
  C25      1.0000 0.50000  0.00000  0.07150  Biso   1.000  C
  H1       1.0000 0.50000  0.00000  0.12150  Biso   1.000  H
  C26      1.0000 0.00000  0.50000  0.73817  Biso   1.000  C
  H2       1.0000 0.00000  0.50000  0.78817  Biso   1.000  H
  C27      1.0000 0.50000  0.50000  0.40483  Biso   1.000  C
  H3       1.0000 0.50000  0.50000  0.45483  Biso   1.000  H
  C28      1.0000 0.00000  0.50000  0.59517  Biso   1.000  C
  H4       1.0000 0.00000  0.50000  0.54517  Biso   1.000  H
  C29      1.0000 0.50000  0.00000  0.92850  Biso   1.000  C
  H5       1.0000 0.50000  0.00000  0.87850  Biso   1.000  H
  C30      1.0000 0.50000  0.50000  0.26183  Biso   1.000  C
  H6       1.0000 0.50000  0.50000  0.21183  Biso   1.000  H
