data_EXOZIB_clean
_audit_creation_date              2014-07-02
_audit_creation_method            'Materials Studio'
_symmetry_space_group_name_H-M    'P1'
_symmetry_Int_Tables_number       1
_symmetry_cell_setting            triclinic
loop_
_symmetry_equiv_pos_as_xyz
  x,y,z
_cell_length_a                    11.7090
_cell_length_b                    12.6260
_cell_length_c                    13.1949
_cell_angle_alpha                 103.4820
_cell_angle_beta                  116.3400
_cell_angle_gamma                 90.0000
loop_
_atom_site_label
_atom_site_type_symbol
_atom_site_fract_x
_atom_site_fract_y
_atom_site_fract_z
_atom_site_U_iso_or_equiv
_atom_site_adp_type
_atom_site_occupancy
Cu1    Cu    0.98647   0.09456   0.97294   0.01267  Uiso   1.00
Cu2    Cu    0.01353   0.90544   0.02706   0.01267  Uiso   1.00
Cu3    Cu    0.00000   0.50000   0.00000   0.01267  Uiso   1.00
H1     H     0.93250   0.15690   0.73100   0.01267  Uiso   1.00
H2     H     0.75350   0.30150   0.64100   0.01267  Uiso   1.00
H3     H     0.82340   0.95620   0.24840   0.01267  Uiso   1.00
H4     H     0.94580   0.02410   0.35820   0.01267  Uiso   1.00
H5     H     0.91170   0.17640   0.28760   0.01267  Uiso   1.00
H6     H     0.77590   0.12300   0.18780   0.01267  Uiso   1.00
H7     H     0.20150   0.84310   0.26900   0.01267  Uiso   1.00
H8     H     0.11250   0.69850   0.35900   0.01267  Uiso   1.00
H9     H     0.57500   0.04380   0.75160   0.01267  Uiso   1.00
H10    H     0.58760   0.97590   0.64180   0.01267  Uiso   1.00
H11    H     0.62410   0.82360   0.71240   0.01267  Uiso   1.00
H12    H     0.58810   0.87700   0.81220   0.01267  Uiso   1.00
H13    H     0.06750   0.84310   0.26900   0.01267  Uiso   1.00
H14    H     0.24650   0.69850   0.35900   0.01267  Uiso   1.00
H15    H     0.17660   0.04380   0.75160   0.01267  Uiso   1.00
H16    H     0.05420   0.97590   0.64180   0.01267  Uiso   1.00
H17    H     0.08830   0.82360   0.71240   0.01267  Uiso   1.00
H18    H     0.22410   0.87700   0.81220   0.01267  Uiso   1.00
H19    H     0.79850   0.15690   0.73100   0.01267  Uiso   1.00
H20    H     0.88750   0.30150   0.64100   0.01267  Uiso   1.00
H21    H     0.42500   0.95620   0.24840   0.01267  Uiso   1.00
H22    H     0.41240   0.02410   0.35820   0.01267  Uiso   1.00
H23    H     0.37590   0.17640   0.28760   0.01267  Uiso   1.00
H24    H     0.41190   0.12300   0.18780   0.01267  Uiso   1.00
C1     C     0.84069   0.13640   0.47218   0.01267  Uiso   1.00
C2     C     0.85910   0.02870   0.30100   0.01267  Uiso   1.00
C3     C     0.86280   0.10790   0.23260   0.01267  Uiso   1.00
C4     C     0.92008   0.06950   0.14996   0.01267  Uiso   1.00
C5     C     0.36851   0.86360   0.52782   0.01267  Uiso   1.00
C6     C     0.55810   0.97130   0.69900   0.01267  Uiso   1.00
C7     C     0.63020   0.89210   0.76740   0.01267  Uiso   1.00
C8     C     0.77012   0.93050   0.85004   0.01267  Uiso   1.00
C9     C     0.15931   0.86360   0.52782   0.01267  Uiso   1.00
C10    C     0.14090   0.97130   0.69900   0.01267  Uiso   1.00
C11    C     0.13720   0.89210   0.76740   0.01267  Uiso   1.00
C12    C     0.07992   0.93050   0.85004   0.01267  Uiso   1.00
C13    C     0.63149   0.13640   0.47218   0.01267  Uiso   1.00
C14    C     0.44190   0.02870   0.30100   0.01267  Uiso   1.00
C15    C     0.36980   0.10790   0.23260   0.01267  Uiso   1.00
C16    C     0.22988   0.06950   0.14996   0.01267  Uiso   1.00
C17    C     0.92700   0.28670   0.85400   0.01267  Uiso   1.00
C18    C     0.86830   0.20330   0.73660   0.01267  Uiso   1.00
C19    C     0.81810   0.25540   0.63620   0.01267  Uiso   1.00
C20    C     0.65140   0.02910   0.30280   0.01267  Uiso   1.00
C21    C     0.07300   0.71330   0.14600   0.01267  Uiso   1.00
C22    C     0.13170   0.79670   0.26340   0.01267  Uiso   1.00
C23    C     0.18190   0.74460   0.36380   0.01267  Uiso   1.00
C24    C     0.34860   0.97090   0.69720   0.01267  Uiso   1.00
N1     N     0.78083   0.06480   0.36166   0.01267  Uiso   1.00
N2     N     0.41917   0.93520   0.63834   0.01267  Uiso   1.00
N3     N     0.21917   0.93520   0.63834   0.01267  Uiso   1.00
N4     N     0.58083   0.06480   0.36166   0.01267  Uiso   1.00
N5     N     0.76150   0.17120   0.52300   0.01267  Uiso   1.00
N6     N     0.23850   0.82880   0.47700   0.01267  Uiso   1.00
O1     O     0.95071   0.97420   0.14022   0.01267  Uiso   1.00
O2     O     0.92967   0.13340   0.09554   0.01267  Uiso   1.00
O3     O     0.95364   0.16620   0.52028   0.01267  Uiso   1.00
O4     O     0.81049   0.02580   0.85978   0.01267  Uiso   1.00
O5     O     0.83413   0.86660   0.90446   0.01267  Uiso   1.00
O6     O     0.43336   0.83380   0.47972   0.01267  Uiso   1.00
O7     O     0.04929   0.02580   0.85978   0.01267  Uiso   1.00
O8     O     0.07033   0.86660   0.90446   0.01267  Uiso   1.00
O9     O     0.04636   0.83380   0.47972   0.01267  Uiso   1.00
O10    O     0.18951   0.97420   0.14022   0.01267  Uiso   1.00
O11    O     0.16587   0.13340   0.09554   0.01267  Uiso   1.00
O12    O     0.56664   0.16620   0.52028   0.01267  Uiso   1.00
O13    O     0.97289   0.25260   0.94578   0.01267  Uiso   1.00
O14    O     0.92820   0.38560   0.85640   0.01267  Uiso   1.00
O15    O     0.60230   0.97240   0.20460   0.01267  Uiso   1.00
O16    O     0.02711   0.74740   0.05422   0.01267  Uiso   1.00
O17    O     0.07180   0.61440   0.14360   0.01267  Uiso   1.00
O18    O     0.39770   0.02760   0.79540   0.01267  Uiso   1.00
