data_EXOZEX_clean
_audit_creation_date              2014-07-02
_audit_creation_method            'Materials Studio'
_symmetry_space_group_name_H-M    'P1'
_symmetry_Int_Tables_number       1
_symmetry_cell_setting            triclinic
loop_
_symmetry_equiv_pos_as_xyz
  x,y,z
_cell_length_a                    8.9114
_cell_length_b                    11.3900
_cell_length_c                    13.2137
_cell_angle_alpha                 115.5300
_cell_angle_beta                  92.9955
_cell_angle_gamma                 90.0000
loop_
_atom_site_label
_atom_site_type_symbol
_atom_site_fract_x
_atom_site_fract_y
_atom_site_fract_z
_atom_site_U_iso_or_equiv
_atom_site_adp_type
_atom_site_occupancy
Cu1    Cu    0.00000   0.00000   0.00000   0.01267  Uiso   1.00
Cu2    Cu    0.62777   0.03032   0.06064   0.01267  Uiso   1.00
Cu3    Cu    0.37223   0.96968   0.93936   0.01267  Uiso   1.00
H1     H     0.95070   0.15460   0.44700   0.01267  Uiso   1.00
H2     H     0.75580   0.66170   0.76660   0.01267  Uiso   1.00
H3     H     0.68180   0.59710   0.83580   0.01267  Uiso   1.00
H4     H     0.45600   0.56170   0.70940   0.01267  Uiso   1.00
H5     H     0.55990   0.59540   0.63260   0.01267  Uiso   1.00
H6     H     0.75010   0.08580   0.30880   0.01267  Uiso   1.00
H7     H     0.04930   0.70760   0.55300   0.01267  Uiso   1.00
H8     H     0.24420   0.89510   0.23340   0.01267  Uiso   1.00
H9     H     0.31820   0.76130   0.16420   0.01267  Uiso   1.00
H10    H     0.54400   0.85230   0.29060   0.01267  Uiso   1.00
H11    H     0.44010   0.96280   0.36740   0.01267  Uiso   1.00
H12    H     0.24990   0.77700   0.69120   0.01267  Uiso   1.00
H13    H     0.04930   0.84540   0.55300   0.01267  Uiso   1.00
H14    H     0.24420   0.33830   0.23340   0.01267  Uiso   1.00
H15    H     0.31820   0.40290   0.16420   0.01267  Uiso   1.00
H16    H     0.54400   0.43830   0.29060   0.01267  Uiso   1.00
H17    H     0.44010   0.40460   0.36740   0.01267  Uiso   1.00
H18    H     0.24990   0.91420   0.69120   0.01267  Uiso   1.00
H19    H     0.95070   0.29240   0.44700   0.01267  Uiso   1.00
H20    H     0.75580   0.10490   0.76660   0.01267  Uiso   1.00
H21    H     0.68180   0.23870   0.83580   0.01267  Uiso   1.00
H22    H     0.45600   0.14770   0.70940   0.01267  Uiso   1.00
H23    H     0.55990   0.03720   0.63260   0.01267  Uiso   1.00
H24    H     0.75010   0.22300   0.30880   0.01267  Uiso   1.00
C1     C     0.59360   0.77580   0.86660   0.01267  Uiso   1.00
C2     C     0.66090   0.64520   0.79160   0.01267  Uiso   1.00
C3     C     0.55860   0.56030   0.68760   0.01267  Uiso   1.00
C4     C     0.71830   0.38740   0.55860   0.01267  Uiso   1.00
C5     C     0.40640   0.90920   0.13340   0.01267  Uiso   1.00
C6     C     0.33910   0.85360   0.20840   0.01267  Uiso   1.00
C7     C     0.44140   0.87270   0.31240   0.01267  Uiso   1.00
C8     C     0.28170   0.82880   0.44140   0.01267  Uiso   1.00
C9     C     0.40640   0.22420   0.13340   0.01267  Uiso   1.00
C10    C     0.33910   0.35480   0.20840   0.01267  Uiso   1.00
C11    C     0.44140   0.43970   0.31240   0.01267  Uiso   1.00
C12    C     0.28170   0.61260   0.44140   0.01267  Uiso   1.00
C13    C     0.59360   0.09080   0.86660   0.01267  Uiso   1.00
C14    C     0.66090   0.14640   0.79160   0.01267  Uiso   1.00
C15    C     0.55860   0.12730   0.68760   0.01267  Uiso   1.00
C16    C     0.71830   0.17120   0.55860   0.01267  Uiso   1.00
C17    C     0.92570   0.11260   0.22520   0.01267  Uiso   1.00
C18    C     0.81210   0.15850   0.31700   0.01267  Uiso   1.00
C19    C     0.88750   0.21810   0.43620   0.01267  Uiso   1.00
C20    C     0.55920   0.34190   0.68380   0.01267  Uiso   1.00
C21    C     0.07430   0.88740   0.77480   0.01267  Uiso   1.00
C22    C     0.18790   0.84150   0.68300   0.01267  Uiso   1.00
C23    C     0.11250   0.78190   0.56380   0.01267  Uiso   1.00
C24    C     0.44080   0.65810   0.31620   0.01267  Uiso   1.00
N1     N     0.61110   0.42340   0.63700   0.01267  Uiso   1.00
N2     N     0.38890   0.78640   0.36300   0.01267  Uiso   1.00
N3     N     0.38890   0.57660   0.36300   0.01267  Uiso   1.00
N4     N     0.61110   0.21360   0.63700   0.01267  Uiso   1.00
N5     N     0.76960   0.26090   0.52180   0.01267  Uiso   1.00
N6     N     0.23040   0.73910   0.47820   0.01267  Uiso   1.00
O1     O     0.67740   0.85260   0.95020   0.01267  Uiso   1.00
O2     O     0.46100   0.79907   0.84514   0.01267  Uiso   1.00
O3     O     0.76370   0.46290   0.52220   0.01267  Uiso   1.00
O4     O     0.32260   0.90240   0.04980   0.01267  Uiso   1.00
O5     O     0.53900   0.95393   0.15486   0.01267  Uiso   1.00
O6     O     0.23630   0.94070   0.47780   0.01267  Uiso   1.00
O7     O     0.32260   0.14740   0.04980   0.01267  Uiso   1.00
O8     O     0.53900   0.20093   0.15486   0.01267  Uiso   1.00
O9     O     0.23630   0.53710   0.47780   0.01267  Uiso   1.00
O10    O     0.67740   0.09760   0.95020   0.01267  Uiso   1.00
O11    O     0.46100   0.04607   0.84514   0.01267  Uiso   1.00
O12    O     0.76370   0.05930   0.52220   0.01267  Uiso   1.00
O13    O     0.86290   0.06150   0.12300   0.01267  Uiso   1.00
O14    O     0.06340   0.12270   0.24540   0.01267  Uiso   1.00
O15    O     0.47170   0.38020   0.76040   0.01267  Uiso   1.00
O16    O     0.13710   0.93850   0.87700   0.01267  Uiso   1.00
O17    O     0.93660   0.87730   0.75460   0.01267  Uiso   1.00
O18    O     0.52830   0.61980   0.23960   0.01267  Uiso   1.00
