data_image0
_cell_length_a       25.4614
_cell_length_b       25.4614
_cell_length_c       14.2628
_cell_angle_alpha    90
_cell_angle_beta     90
_cell_angle_gamma    120

_symmetry_space_group_name_H-M    "P 1"
_symmetry_int_tables_number       1

loop_
  _symmetry_equiv_pos_as_xyz
  'x, y, z'

loop_
  _atom_site_label
  _atom_site_occupancy
  _atom_site_fract_x
  _atom_site_fract_y
  _atom_site_fract_z
  _atom_site_thermal_displace_type
  _atom_site_B_iso_or_equiv
  _atom_site_type_symbol
  Mn1      1.0000 0.08062  0.40207  0.18801  Biso   1.000  Mn
  O1       1.0000 0.06808  0.41727  0.33383  Biso   1.000  O
  N1       1.0000 0.09096  0.49346  0.19080  Biso   1.000  N
  O2       1.0000 0.05910  0.47636  0.43680  Biso   1.000  O
  C1       1.0000 0.09470  0.53713  0.13320  Biso   1.000  C
  C2       1.0000 0.11440  0.54213  0.03450  Biso   1.000  C
  C3       1.0000 0.06550  0.46400  0.35420  Biso   1.000  C
  C4       1.0000 0.07294  0.50515  0.27550  Biso   1.000  C
  C5       1.0000 0.15080  0.54770  0.84930  Biso   1.000  C
  H1       1.0000 0.16340  0.55030  0.78740  Biso   1.000  H
  C6       1.0000 0.08680  0.55750  0.96340  Biso   1.000  C
  H2       1.0000 0.05640  0.56620  0.97810  Biso   1.000  H
  C7       1.0000 0.10470  0.55990  0.87150  Biso   1.000  C
  C8       1.0000 0.17730  0.53200  0.91780  Biso   1.000  C
  H3       1.0000 0.20770  0.52330  0.90270  Biso   1.000  H
  C9       1.0000 0.15910  0.52890  0.01150  Biso   1.000  C
  H4       1.0000 0.17730  0.51790  0.05820  Biso   1.000  H
  C10      1.0000 0.06606  0.55569  0.26510  Biso   1.000  C
  O3       1.0000 0.03220  0.57486  0.41080  Biso   1.000  O
  C11      1.0000 0.04770  0.58981  0.32790  Biso   1.000  C
  O4       1.0000 0.08100  0.57520  0.80000  Biso   1.000  O
  H5       1.0000 0.07940  0.55570  0.75330  Biso   1.000  H
  O5       1.0000 0.04729  0.63524  0.29160  Biso   1.000  O
  N2       1.0000 0.08010  0.57557  0.17390  Biso   1.000  N
  Mn2      1.0000 0.74729  0.73540  0.52134  Biso   1.000  Mn
  O6       1.0000 0.73475  0.75060  0.66716  Biso   1.000  O
  N3       1.0000 0.75763  0.82679  0.52413  Biso   1.000  N
  O7       1.0000 0.72577  0.80969  0.77013  Biso   1.000  O
  C12      1.0000 0.76137  0.87046  0.46653  Biso   1.000  C
  C13      1.0000 0.78107  0.87546  0.36783  Biso   1.000  C
  C14      1.0000 0.73217  0.79733  0.68753  Biso   1.000  C
  C15      1.0000 0.73961  0.83848  0.60883  Biso   1.000  C
  C16      1.0000 0.81747  0.88103  0.18263  Biso   1.000  C
  H6       1.0000 0.83007  0.88363  0.12073  Biso   1.000  H
  C17      1.0000 0.75347  0.89083  0.29673  Biso   1.000  C
  H7       1.0000 0.72307  0.89953  0.31143  Biso   1.000  H
  C18      1.0000 0.77137  0.89323  0.20483  Biso   1.000  C
  C19      1.0000 0.84397  0.86533  0.25113  Biso   1.000  C
  H8       1.0000 0.87437  0.85663  0.23603  Biso   1.000  H
  C20      1.0000 0.82577  0.86223  0.34483  Biso   1.000  C
  H9       1.0000 0.84397  0.85123  0.39153  Biso   1.000  H
  C21      1.0000 0.73273  0.88902  0.59843  Biso   1.000  C
  O8       1.0000 0.69887  0.90819  0.74413  Biso   1.000  O
  C22      1.0000 0.71437  0.92314  0.66123  Biso   1.000  C
  O9       1.0000 0.74767  0.90853  0.13333  Biso   1.000  O
  H10      1.0000 0.74607  0.88903  0.08663  Biso   1.000  H
  O10      1.0000 0.71396  0.96857  0.62493  Biso   1.000  O
  N4       1.0000 0.74677  0.90890  0.50723  Biso   1.000  N
  Mn3      1.0000 0.41395  0.06874  0.85468  Biso   1.000  Mn
  O11      1.0000 0.40141  0.08394  0.00050  Biso   1.000  O
  N5       1.0000 0.42429  0.16013  0.85747  Biso   1.000  N
  O12      1.0000 0.39243  0.14303  0.10347  Biso   1.000  O
  C23      1.0000 0.42803  0.20380  0.79987  Biso   1.000  C
  C24      1.0000 0.44773  0.20880  0.70117  Biso   1.000  C
  C25      1.0000 0.39883  0.13067  0.02087  Biso   1.000  C
  C26      1.0000 0.40627  0.17182  0.94217  Biso   1.000  C
  C27      1.0000 0.48413  0.21437  0.51597  Biso   1.000  C
  H11      1.0000 0.49673  0.21697  0.45407  Biso   1.000  H
  C28      1.0000 0.42013  0.22417  0.63007  Biso   1.000  C
  H12      1.0000 0.38973  0.23287  0.64477  Biso   1.000  H
  C29      1.0000 0.43803  0.22657  0.53817  Biso   1.000  C
  C30      1.0000 0.51063  0.19867  0.58447  Biso   1.000  C
  H13      1.0000 0.54103  0.18997  0.56937  Biso   1.000  H
  C31      1.0000 0.49243  0.19557  0.67817  Biso   1.000  C
  H14      1.0000 0.51063  0.18457  0.72487  Biso   1.000  H
  C32      1.0000 0.39939  0.22236  0.93177  Biso   1.000  C
  O13      1.0000 0.36553  0.24153  0.07747  Biso   1.000  O
  C33      1.0000 0.38103  0.25648  0.99457  Biso   1.000  C
  O14      1.0000 0.41433  0.24187  0.46667  Biso   1.000  O
  H15      1.0000 0.41273  0.22237  0.41997  Biso   1.000  H
  O15      1.0000 0.38062  0.30191  0.95827  Biso   1.000  O
  N6       1.0000 0.41343  0.24224  0.84057  Biso   1.000  N
  Mn4      1.0000 0.59793  0.67855  0.18801  Biso   1.000  Mn
  O16      1.0000 0.58273  0.65081  0.33383  Biso   1.000  O
  N7       1.0000 0.50654  0.59750  0.19080  Biso   1.000  N
  O17      1.0000 0.52364  0.58274  0.43680  Biso   1.000  O
  C34      1.0000 0.46287  0.55757  0.13320  Biso   1.000  C
  C35      1.0000 0.45787  0.57227  0.03450  Biso   1.000  C
  C36      1.0000 0.53600  0.60150  0.35420  Biso   1.000  C
  C37      1.0000 0.49485  0.56779  0.27550  Biso   1.000  C
  C38      1.0000 0.45230  0.60310  0.84930  Biso   1.000  C
  H16      1.0000 0.44970  0.61310  0.78740  Biso   1.000  H
  C39      1.0000 0.44250  0.52930  0.96340  Biso   1.000  C
  H17      1.0000 0.43380  0.49020  0.97810  Biso   1.000  H
  C40      1.0000 0.44010  0.54480  0.87150  Biso   1.000  C
  C41      1.0000 0.46800  0.64530  0.91780  Biso   1.000  C
  H18      1.0000 0.47670  0.68440  0.90270  Biso   1.000  H
  C42      1.0000 0.47110  0.63020  0.01150  Biso   1.000  C
  H19      1.0000 0.48210  0.65940  0.05820  Biso   1.000  H
  C43      1.0000 0.44431  0.51037  0.26510  Biso   1.000  C
  O18      1.0000 0.42514  0.45734  0.41080  Biso   1.000  O
  C44      1.0000 0.41019  0.45789  0.32790  Biso   1.000  C
  O19      1.0000 0.42480  0.50580  0.80000  Biso   1.000  O
  H20      1.0000 0.44430  0.52370  0.75330  Biso   1.000  H
  O20      1.0000 0.36476  0.41205  0.29160  Biso   1.000  O
  N8       1.0000 0.42443  0.50453  0.17390  Biso   1.000  N
  Mn5      1.0000 0.26460  0.01188  0.52134  Biso   1.000  Mn
  O21      1.0000 0.24940  0.98414  0.66716  Biso   1.000  O
  N9       1.0000 0.17321  0.93083  0.52413  Biso   1.000  N
  O22      1.0000 0.19031  0.91607  0.77013  Biso   1.000  O
  C45      1.0000 0.12954  0.89090  0.46653  Biso   1.000  C
  C46      1.0000 0.12454  0.90560  0.36783  Biso   1.000  C
  C47      1.0000 0.20267  0.93483  0.68753  Biso   1.000  C
  C48      1.0000 0.16152  0.90112  0.60883  Biso   1.000  C
  C49      1.0000 0.11897  0.93643  0.18263  Biso   1.000  C
  H21      1.0000 0.11637  0.94643  0.12073  Biso   1.000  H
  C50      1.0000 0.10917  0.86263  0.29673  Biso   1.000  C
  H22      1.0000 0.10047  0.82353  0.31143  Biso   1.000  H
  C51      1.0000 0.10677  0.87813  0.20483  Biso   1.000  C
  C52      1.0000 0.13467  0.97863  0.25113  Biso   1.000  C
  H23      1.0000 0.14337  0.01773  0.23603  Biso   1.000  H
  C53      1.0000 0.13777  0.96353  0.34483  Biso   1.000  C
  H24      1.0000 0.14877  0.99273  0.39153  Biso   1.000  H
  C54      1.0000 0.11098  0.84370  0.59843  Biso   1.000  C
  O23      1.0000 0.09181  0.79067  0.74413  Biso   1.000  O
  C55      1.0000 0.07686  0.79122  0.66123  Biso   1.000  C
  O24      1.0000 0.09147  0.83913  0.13333  Biso   1.000  O
  H25      1.0000 0.11097  0.85703  0.08663  Biso   1.000  H
  O25      1.0000 0.03143  0.74538  0.62493  Biso   1.000  O
  N10      1.0000 0.09110  0.83786  0.50723  Biso   1.000  N
  Mn6      1.0000 0.93126  0.34522  0.85468  Biso   1.000  Mn
  O26      1.0000 0.91606  0.31748  0.00050  Biso   1.000  O
  N11      1.0000 0.83987  0.26417  0.85747  Biso   1.000  N
  O27      1.0000 0.85697  0.24941  0.10347  Biso   1.000  O
  C56      1.0000 0.79620  0.22424  0.79987  Biso   1.000  C
  C57      1.0000 0.79120  0.23894  0.70117  Biso   1.000  C
  C58      1.0000 0.86933  0.26817  0.02087  Biso   1.000  C
  C59      1.0000 0.82818  0.23446  0.94217  Biso   1.000  C
  C60      1.0000 0.78563  0.26977  0.51597  Biso   1.000  C
  H26      1.0000 0.78303  0.27977  0.45407  Biso   1.000  H
  C61      1.0000 0.77583  0.19597  0.63007  Biso   1.000  C
  H27      1.0000 0.76713  0.15687  0.64477  Biso   1.000  H
  C62      1.0000 0.77343  0.21147  0.53817  Biso   1.000  C
  C63      1.0000 0.80133  0.31197  0.58447  Biso   1.000  C
  H28      1.0000 0.81003  0.35107  0.56937  Biso   1.000  H
  C64      1.0000 0.80443  0.29687  0.67817  Biso   1.000  C
  H29      1.0000 0.81543  0.32607  0.72487  Biso   1.000  H
  C65      1.0000 0.77764  0.17704  0.93177  Biso   1.000  C
  O28      1.0000 0.75847  0.12401  0.07747  Biso   1.000  O
  C66      1.0000 0.74352  0.12456  0.99457  Biso   1.000  C
  O29      1.0000 0.75813  0.17247  0.46667  Biso   1.000  O
  H30      1.0000 0.77763  0.19037  0.41997  Biso   1.000  H
  O30      1.0000 0.69809  0.07872  0.95827  Biso   1.000  O
  N12      1.0000 0.75776  0.17120  0.84057  Biso   1.000  N
  Mn7      1.0000 0.32145  0.91938  0.18801  Biso   1.000  Mn
  O31      1.0000 0.34919  0.93192  0.33383  Biso   1.000  O
  N13      1.0000 0.40250  0.90904  0.19080  Biso   1.000  N
  O32      1.0000 0.41726  0.94090  0.43680  Biso   1.000  O
  C67      1.0000 0.44243  0.90530  0.13320  Biso   1.000  C
  C68      1.0000 0.42773  0.88560  0.03450  Biso   1.000  C
  C69      1.0000 0.39850  0.93450  0.35420  Biso   1.000  C
  C70      1.0000 0.43221  0.92706  0.27550  Biso   1.000  C
  C71      1.0000 0.39690  0.84920  0.84930  Biso   1.000  C
  H31      1.0000 0.38690  0.83660  0.78740  Biso   1.000  H
  C72      1.0000 0.47070  0.91320  0.96340  Biso   1.000  C
  H32      1.0000 0.50980  0.94360  0.97810  Biso   1.000  H
  C73      1.0000 0.45520  0.89530  0.87150  Biso   1.000  C
  C74      1.0000 0.35470  0.82270  0.91780  Biso   1.000  C
  H33      1.0000 0.31560  0.79230  0.90270  Biso   1.000  H
  C75      1.0000 0.36980  0.84090  0.01150  Biso   1.000  C
  H34      1.0000 0.34060  0.82270  0.05820  Biso   1.000  H
  C76      1.0000 0.48963  0.93394  0.26510  Biso   1.000  C
  O33      1.0000 0.54266  0.96780  0.41080  Biso   1.000  O
  C77      1.0000 0.54211  0.95230  0.32790  Biso   1.000  C
  O34      1.0000 0.49420  0.91900  0.80000  Biso   1.000  O
  H35      1.0000 0.47630  0.92060  0.75330  Biso   1.000  H
  O35      1.0000 0.58795  0.95271  0.29160  Biso   1.000  O
  N14      1.0000 0.49547  0.91990  0.17390  Biso   1.000  N
  Mn8      1.0000 0.98812  0.25271  0.52134  Biso   1.000  Mn
  O36      1.0000 0.01586  0.26525  0.66716  Biso   1.000  O
  N15      1.0000 0.06917  0.24237  0.52413  Biso   1.000  N
  O37      1.0000 0.08393  0.27423  0.77013  Biso   1.000  O
  C78      1.0000 0.10910  0.23863  0.46653  Biso   1.000  C
  C79      1.0000 0.09440  0.21893  0.36783  Biso   1.000  C
  C80      1.0000 0.06517  0.26783  0.68753  Biso   1.000  C
  C81      1.0000 0.09888  0.26039  0.60883  Biso   1.000  C
  C82      1.0000 0.06357  0.18253  0.18263  Biso   1.000  C
  H36      1.0000 0.05357  0.16993  0.12073  Biso   1.000  H
  C83      1.0000 0.13737  0.24653  0.29673  Biso   1.000  C
  H37      1.0000 0.17647  0.27693  0.31143  Biso   1.000  H
  C84      1.0000 0.12187  0.22863  0.20483  Biso   1.000  C
  C85      1.0000 0.02137  0.15603  0.25113  Biso   1.000  C
  H38      1.0000 0.98227  0.12563  0.23603  Biso   1.000  H
  C86      1.0000 0.03647  0.17423  0.34483  Biso   1.000  C
  H39      1.0000 0.00727  0.15603  0.39153  Biso   1.000  H
  C87      1.0000 0.15630  0.26727  0.59843  Biso   1.000  C
  O38      1.0000 0.20933  0.30113  0.74413  Biso   1.000  O
  C88      1.0000 0.20878  0.28563  0.66123  Biso   1.000  C
  O39      1.0000 0.16087  0.25233  0.13333  Biso   1.000  O
  H40      1.0000 0.14297  0.25393  0.08663  Biso   1.000  H
  O40      1.0000 0.25462  0.28604  0.62493  Biso   1.000  O
  N16      1.0000 0.16214  0.25323  0.50723  Biso   1.000  N
  Mn9      1.0000 0.65478  0.58605  0.85468  Biso   1.000  Mn
  O41      1.0000 0.68252  0.59859  0.00050  Biso   1.000  O
  N17      1.0000 0.73583  0.57571  0.85747  Biso   1.000  N
  O42      1.0000 0.75059  0.60757  0.10347  Biso   1.000  O
  C89      1.0000 0.77576  0.57197  0.79987  Biso   1.000  C
  C90      1.0000 0.76106  0.55227  0.70117  Biso   1.000  C
  C91      1.0000 0.73183  0.60117  0.02087  Biso   1.000  C
  C92      1.0000 0.76554  0.59373  0.94217  Biso   1.000  C
  C93      1.0000 0.73023  0.51587  0.51597  Biso   1.000  C
  H41      1.0000 0.72023  0.50327  0.45407  Biso   1.000  H
  C94      1.0000 0.80403  0.57987  0.63007  Biso   1.000  C
  H42      1.0000 0.84313  0.61027  0.64477  Biso   1.000  H
  C95      1.0000 0.78853  0.56197  0.53817  Biso   1.000  C
  C96      1.0000 0.68803  0.48937  0.58447  Biso   1.000  C
  H43      1.0000 0.64893  0.45897  0.56937  Biso   1.000  H
  C97      1.0000 0.70313  0.50757  0.67817  Biso   1.000  C
  H44      1.0000 0.67393  0.48937  0.72487  Biso   1.000  H
  C98      1.0000 0.82296  0.60061  0.93177  Biso   1.000  C
  O43      1.0000 0.87599  0.63447  0.07747  Biso   1.000  O
  C99      1.0000 0.87544  0.61897  0.99457  Biso   1.000  C
  O44      1.0000 0.82753  0.58567  0.46667  Biso   1.000  O
  H45      1.0000 0.80963  0.58727  0.41997  Biso   1.000  H
  O45      1.0000 0.92128  0.61938  0.95827  Biso   1.000  O
  N18      1.0000 0.82880  0.58657  0.84057  Biso   1.000  N
  Mn10     1.0000 0.91938  0.59793  0.81199  Biso   1.000  Mn
  O46      1.0000 0.93192  0.58273  0.66617  Biso   1.000  O
  N19      1.0000 0.90904  0.50654  0.80920  Biso   1.000  N
  O47      1.0000 0.94090  0.52364  0.56320  Biso   1.000  O
  C100     1.0000 0.90530  0.46287  0.86680  Biso   1.000  C
  C101     1.0000 0.88560  0.45787  0.96550  Biso   1.000  C
  C102     1.0000 0.93450  0.53600  0.64580  Biso   1.000  C
  C103     1.0000 0.92706  0.49485  0.72450  Biso   1.000  C
  C104     1.0000 0.84920  0.45230  0.15070  Biso   1.000  C
  H46      1.0000 0.83660  0.44970  0.21260  Biso   1.000  H
  C105     1.0000 0.91320  0.44250  0.03660  Biso   1.000  C
  H47      1.0000 0.94360  0.43380  0.02190  Biso   1.000  H
  C106     1.0000 0.89530  0.44010  0.12850  Biso   1.000  C
  C107     1.0000 0.82270  0.46800  0.08220  Biso   1.000  C
  H48      1.0000 0.79230  0.47670  0.09730  Biso   1.000  H
  C108     1.0000 0.84090  0.47110  0.98850  Biso   1.000  C
  H49      1.0000 0.82270  0.48210  0.94180  Biso   1.000  H
  C109     1.0000 0.93394  0.44431  0.73490  Biso   1.000  C
  O48      1.0000 0.96780  0.42514  0.58920  Biso   1.000  O
  C110     1.0000 0.95230  0.41019  0.67210  Biso   1.000  C
  O49      1.0000 0.91900  0.42480  0.20000  Biso   1.000  O
  H50      1.0000 0.92060  0.44430  0.24670  Biso   1.000  H
  O50      1.0000 0.95271  0.36476  0.70840  Biso   1.000  O
  N20      1.0000 0.91990  0.42443  0.82610  Biso   1.000  N
  Mn11     1.0000 0.58605  0.93126  0.14532  Biso   1.000  Mn
  O51      1.0000 0.59859  0.91606  0.99950  Biso   1.000  O
  N21      1.0000 0.57571  0.83987  0.14253  Biso   1.000  N
  O52      1.0000 0.60757  0.85697  0.89653  Biso   1.000  O
  C111     1.0000 0.57197  0.79620  0.20013  Biso   1.000  C
  C112     1.0000 0.55227  0.79120  0.29883  Biso   1.000  C
  C113     1.0000 0.60117  0.86933  0.97913  Biso   1.000  C
  C114     1.0000 0.59373  0.82818  0.05783  Biso   1.000  C
  C115     1.0000 0.51587  0.78563  0.48403  Biso   1.000  C
  H51      1.0000 0.50327  0.78303  0.54593  Biso   1.000  H
  C116     1.0000 0.57987  0.77583  0.36993  Biso   1.000  C
  H52      1.0000 0.61027  0.76713  0.35523  Biso   1.000  H
  C117     1.0000 0.56197  0.77343  0.46183  Biso   1.000  C
  C118     1.0000 0.48937  0.80133  0.41553  Biso   1.000  C
  H53      1.0000 0.45897  0.81003  0.43063  Biso   1.000  H
  C119     1.0000 0.50757  0.80443  0.32183  Biso   1.000  C
  H54      1.0000 0.48937  0.81543  0.27513  Biso   1.000  H
  C120     1.0000 0.60061  0.77764  0.06823  Biso   1.000  C
  O53      1.0000 0.63447  0.75847  0.92253  Biso   1.000  O
  C121     1.0000 0.61897  0.74352  0.00543  Biso   1.000  C
  O54      1.0000 0.58567  0.75813  0.53333  Biso   1.000  O
  H55      1.0000 0.58727  0.77763  0.58003  Biso   1.000  H
  O55      1.0000 0.61938  0.69809  0.04173  Biso   1.000  O
  N22      1.0000 0.58657  0.75776  0.15943  Biso   1.000  N
  Mn12     1.0000 0.25271  0.26460  0.47866  Biso   1.000  Mn
  O56      1.0000 0.26525  0.24940  0.33284  Biso   1.000  O
  N23      1.0000 0.24237  0.17321  0.47587  Biso   1.000  N
  O57      1.0000 0.27423  0.19031  0.22987  Biso   1.000  O
  C122     1.0000 0.23863  0.12954  0.53347  Biso   1.000  C
  C123     1.0000 0.21893  0.12454  0.63217  Biso   1.000  C
  C124     1.0000 0.26783  0.20267  0.31247  Biso   1.000  C
  C125     1.0000 0.26039  0.16152  0.39117  Biso   1.000  C
  C126     1.0000 0.18253  0.11897  0.81737  Biso   1.000  C
  H56      1.0000 0.16993  0.11637  0.87927  Biso   1.000  H
  C127     1.0000 0.24653  0.10917  0.70327  Biso   1.000  C
  H57      1.0000 0.27693  0.10047  0.68857  Biso   1.000  H
  C128     1.0000 0.22863  0.10677  0.79517  Biso   1.000  C
  C129     1.0000 0.15603  0.13467  0.74887  Biso   1.000  C
  H58      1.0000 0.12563  0.14337  0.76397  Biso   1.000  H
  C130     1.0000 0.17423  0.13777  0.65517  Biso   1.000  C
  H59      1.0000 0.15603  0.14877  0.60847  Biso   1.000  H
  C131     1.0000 0.26727  0.11098  0.40157  Biso   1.000  C
  O58      1.0000 0.30113  0.09181  0.25587  Biso   1.000  O
  C132     1.0000 0.28563  0.07686  0.33877  Biso   1.000  C
  O59      1.0000 0.25233  0.09147  0.86667  Biso   1.000  O
  H60      1.0000 0.25393  0.11097  0.91337  Biso   1.000  H
  O60      1.0000 0.28604  0.03143  0.37507  Biso   1.000  O
  N24      1.0000 0.25323  0.09110  0.49277  Biso   1.000  N
  Mn13     1.0000 0.40207  0.32145  0.81199  Biso   1.000  Mn
  O61      1.0000 0.41727  0.34919  0.66617  Biso   1.000  O
  N25      1.0000 0.49346  0.40250  0.80920  Biso   1.000  N
  O62      1.0000 0.47636  0.41726  0.56320  Biso   1.000  O
  C133     1.0000 0.53713  0.44243  0.86680  Biso   1.000  C
  C134     1.0000 0.54213  0.42773  0.96550  Biso   1.000  C
  C135     1.0000 0.46400  0.39850  0.64580  Biso   1.000  C
  C136     1.0000 0.50515  0.43221  0.72450  Biso   1.000  C
  C137     1.0000 0.54770  0.39690  0.15070  Biso   1.000  C
  H61      1.0000 0.55030  0.38690  0.21260  Biso   1.000  H
  C138     1.0000 0.55750  0.47070  0.03660  Biso   1.000  C
  H62      1.0000 0.56620  0.50980  0.02190  Biso   1.000  H
  C139     1.0000 0.55990  0.45520  0.12850  Biso   1.000  C
  C140     1.0000 0.53200  0.35470  0.08220  Biso   1.000  C
  H63      1.0000 0.52330  0.31560  0.09730  Biso   1.000  H
  C141     1.0000 0.52890  0.36980  0.98850  Biso   1.000  C
  H64      1.0000 0.51790  0.34060  0.94180  Biso   1.000  H
  C142     1.0000 0.55569  0.48963  0.73490  Biso   1.000  C
  O63      1.0000 0.57486  0.54266  0.58920  Biso   1.000  O
  C143     1.0000 0.58981  0.54211  0.67210  Biso   1.000  C
  O64      1.0000 0.57520  0.49420  0.20000  Biso   1.000  O
  H65      1.0000 0.55570  0.47630  0.24670  Biso   1.000  H
  O65      1.0000 0.63524  0.58795  0.70840  Biso   1.000  O
  N26      1.0000 0.57557  0.49547  0.82610  Biso   1.000  N
  Mn14     1.0000 0.06874  0.65478  0.14532  Biso   1.000  Mn
  O66      1.0000 0.08394  0.68252  0.99950  Biso   1.000  O
  N27      1.0000 0.16013  0.73583  0.14253  Biso   1.000  N
  O67      1.0000 0.14303  0.75059  0.89653  Biso   1.000  O
  C144     1.0000 0.20380  0.77576  0.20013  Biso   1.000  C
  C145     1.0000 0.20880  0.76106  0.29883  Biso   1.000  C
  C146     1.0000 0.13067  0.73183  0.97913  Biso   1.000  C
  C147     1.0000 0.17182  0.76554  0.05783  Biso   1.000  C
  C148     1.0000 0.21437  0.73023  0.48403  Biso   1.000  C
  H66      1.0000 0.21697  0.72023  0.54593  Biso   1.000  H
  C149     1.0000 0.22417  0.80403  0.36993  Biso   1.000  C
  H67      1.0000 0.23287  0.84313  0.35523  Biso   1.000  H
  C150     1.0000 0.22657  0.78853  0.46183  Biso   1.000  C
  C151     1.0000 0.19867  0.68803  0.41553  Biso   1.000  C
  H68      1.0000 0.18997  0.64893  0.43063  Biso   1.000  H
  C152     1.0000 0.19557  0.70313  0.32183  Biso   1.000  C
  H69      1.0000 0.18457  0.67393  0.27513  Biso   1.000  H
  C153     1.0000 0.22236  0.82296  0.06823  Biso   1.000  C
  O68      1.0000 0.24153  0.87599  0.92253  Biso   1.000  O
  C154     1.0000 0.25648  0.87544  0.00543  Biso   1.000  C
  O69      1.0000 0.24187  0.82753  0.53333  Biso   1.000  O
  H70      1.0000 0.22237  0.80963  0.58003  Biso   1.000  H
  O70      1.0000 0.30191  0.92128  0.04173  Biso   1.000  O
  N28      1.0000 0.24224  0.82880  0.15943  Biso   1.000  N
  Mn15     1.0000 0.73540  0.98812  0.47866  Biso   1.000  Mn
  O71      1.0000 0.75060  0.01586  0.33284  Biso   1.000  O
  N29      1.0000 0.82679  0.06917  0.47587  Biso   1.000  N
  O72      1.0000 0.80969  0.08393  0.22987  Biso   1.000  O
  C155     1.0000 0.87046  0.10910  0.53347  Biso   1.000  C
  C156     1.0000 0.87546  0.09440  0.63217  Biso   1.000  C
  C157     1.0000 0.79733  0.06517  0.31247  Biso   1.000  C
  C158     1.0000 0.83848  0.09888  0.39117  Biso   1.000  C
  C159     1.0000 0.88103  0.06357  0.81737  Biso   1.000  C
  H71      1.0000 0.88363  0.05357  0.87927  Biso   1.000  H
  C160     1.0000 0.89083  0.13737  0.70327  Biso   1.000  C
  H72      1.0000 0.89953  0.17647  0.68857  Biso   1.000  H
  C161     1.0000 0.89323  0.12187  0.79517  Biso   1.000  C
  C162     1.0000 0.86533  0.02137  0.74887  Biso   1.000  C
  H73      1.0000 0.85663  0.98227  0.76397  Biso   1.000  H
  C163     1.0000 0.86223  0.03647  0.65517  Biso   1.000  C
  H74      1.0000 0.85123  0.00727  0.60847  Biso   1.000  H
  C164     1.0000 0.88902  0.15630  0.40157  Biso   1.000  C
  O73      1.0000 0.90819  0.20933  0.25587  Biso   1.000  O
  C165     1.0000 0.92314  0.20878  0.33877  Biso   1.000  C
  O74      1.0000 0.90853  0.16087  0.86667  Biso   1.000  O
  H75      1.0000 0.88903  0.14297  0.91337  Biso   1.000  H
  O75      1.0000 0.96857  0.25462  0.37507  Biso   1.000  O
  N30      1.0000 0.90890  0.16214  0.49277  Biso   1.000  N
  Mn16     1.0000 0.67855  0.08062  0.81199  Biso   1.000  Mn
  O76      1.0000 0.65081  0.06808  0.66617  Biso   1.000  O
  N31      1.0000 0.59750  0.09096  0.80920  Biso   1.000  N
  O77      1.0000 0.58274  0.05910  0.56320  Biso   1.000  O
  C166     1.0000 0.55757  0.09470  0.86680  Biso   1.000  C
  C167     1.0000 0.57227  0.11440  0.96550  Biso   1.000  C
  C168     1.0000 0.60150  0.06550  0.64580  Biso   1.000  C
  C169     1.0000 0.56779  0.07294  0.72450  Biso   1.000  C
  C170     1.0000 0.60310  0.15080  0.15070  Biso   1.000  C
  H76      1.0000 0.61310  0.16340  0.21260  Biso   1.000  H
  C171     1.0000 0.52930  0.08680  0.03660  Biso   1.000  C
  H77      1.0000 0.49020  0.05640  0.02190  Biso   1.000  H
  C172     1.0000 0.54480  0.10470  0.12850  Biso   1.000  C
  C173     1.0000 0.64530  0.17730  0.08220  Biso   1.000  C
  H78      1.0000 0.68440  0.20770  0.09730  Biso   1.000  H
  C174     1.0000 0.63020  0.15910  0.98850  Biso   1.000  C
  H79      1.0000 0.65940  0.17730  0.94180  Biso   1.000  H
  C175     1.0000 0.51037  0.06606  0.73490  Biso   1.000  C
  O78      1.0000 0.45734  0.03220  0.58920  Biso   1.000  O
  C176     1.0000 0.45789  0.04770  0.67210  Biso   1.000  C
  O79      1.0000 0.50580  0.08100  0.20000  Biso   1.000  O
  H80      1.0000 0.52370  0.07940  0.24670  Biso   1.000  H
  O80      1.0000 0.41205  0.04729  0.70840  Biso   1.000  O
  N32      1.0000 0.50453  0.08010  0.82610  Biso   1.000  N
  Mn17     1.0000 0.34522  0.41395  0.14532  Biso   1.000  Mn
  O81      1.0000 0.31748  0.40141  0.99950  Biso   1.000  O
  N33      1.0000 0.26417  0.42429  0.14253  Biso   1.000  N
  O82      1.0000 0.24941  0.39243  0.89653  Biso   1.000  O
  C177     1.0000 0.22424  0.42803  0.20013  Biso   1.000  C
  C178     1.0000 0.23894  0.44773  0.29883  Biso   1.000  C
  C179     1.0000 0.26817  0.39883  0.97913  Biso   1.000  C
  C180     1.0000 0.23446  0.40627  0.05783  Biso   1.000  C
  C181     1.0000 0.26977  0.48413  0.48403  Biso   1.000  C
  H81      1.0000 0.27977  0.49673  0.54593  Biso   1.000  H
  C182     1.0000 0.19597  0.42013  0.36993  Biso   1.000  C
  H82      1.0000 0.15687  0.38973  0.35523  Biso   1.000  H
  C183     1.0000 0.21147  0.43803  0.46183  Biso   1.000  C
  C184     1.0000 0.31197  0.51063  0.41553  Biso   1.000  C
  H83      1.0000 0.35107  0.54103  0.43063  Biso   1.000  H
  C185     1.0000 0.29687  0.49243  0.32183  Biso   1.000  C
  H84      1.0000 0.32607  0.51063  0.27513  Biso   1.000  H
  C186     1.0000 0.17704  0.39939  0.06823  Biso   1.000  C
  O83      1.0000 0.12401  0.36553  0.92253  Biso   1.000  O
  C187     1.0000 0.12456  0.38103  0.00543  Biso   1.000  C
  O84      1.0000 0.17247  0.41433  0.53333  Biso   1.000  O
  H85      1.0000 0.19037  0.41273  0.58003  Biso   1.000  H
  O85      1.0000 0.07872  0.38062  0.04173  Biso   1.000  O
  N34      1.0000 0.17120  0.41343  0.15943  Biso   1.000  N
  Mn18     1.0000 0.01188  0.74729  0.47866  Biso   1.000  Mn
  O86      1.0000 0.98414  0.73475  0.33284  Biso   1.000  O
  N35      1.0000 0.93083  0.75763  0.47587  Biso   1.000  N
  O87      1.0000 0.91607  0.72577  0.22987  Biso   1.000  O
  C188     1.0000 0.89090  0.76137  0.53347  Biso   1.000  C
  C189     1.0000 0.90560  0.78107  0.63217  Biso   1.000  C
  C190     1.0000 0.93483  0.73217  0.31247  Biso   1.000  C
  C191     1.0000 0.90112  0.73961  0.39117  Biso   1.000  C
  C192     1.0000 0.93643  0.81747  0.81737  Biso   1.000  C
  H86      1.0000 0.94643  0.83007  0.87927  Biso   1.000  H
  C193     1.0000 0.86263  0.75347  0.70327  Biso   1.000  C
  H87      1.0000 0.82353  0.72307  0.68857  Biso   1.000  H
  C194     1.0000 0.87813  0.77137  0.79517  Biso   1.000  C
  C195     1.0000 0.97863  0.84397  0.74887  Biso   1.000  C
  H88      1.0000 0.01773  0.87437  0.76397  Biso   1.000  H
  C196     1.0000 0.96353  0.82577  0.65517  Biso   1.000  C
  H89      1.0000 0.99273  0.84397  0.60847  Biso   1.000  H
  C197     1.0000 0.84370  0.73273  0.40157  Biso   1.000  C
  O88      1.0000 0.79067  0.69887  0.25587  Biso   1.000  O
  C198     1.0000 0.79122  0.71437  0.33877  Biso   1.000  C
  O89      1.0000 0.83913  0.74767  0.86667  Biso   1.000  O
  H90      1.0000 0.85703  0.74607  0.91337  Biso   1.000  H
  O90      1.0000 0.74538  0.71396  0.37507  Biso   1.000  O
  N36      1.0000 0.83786  0.74677  0.49277  Biso   1.000  N
  Mn19     1.0000 0.00000  0.50000  0.50000  Biso   1.000  Mn
  Mn20     1.0000 0.66667  0.83333  0.83333  Biso   1.000  Mn
  Mn21     1.0000 0.33333  0.16667  0.16667  Biso   1.000  Mn
  Mn22     1.0000 0.50000  0.50000  0.50000  Biso   1.000  Mn
  Mn23     1.0000 0.16667  0.83333  0.83333  Biso   1.000  Mn
  Mn24     1.0000 0.83333  0.16667  0.16667  Biso   1.000  Mn
  Mn25     1.0000 0.50000  0.00000  0.50000  Biso   1.000  Mn
  Mn26     1.0000 0.16667  0.33333  0.83333  Biso   1.000  Mn
  Mn27     1.0000 0.83333  0.66667  0.16667  Biso   1.000  Mn
