data_image0
_cell_length_a       13.312
_cell_length_b       7.316
_cell_length_c       14.87
_cell_angle_alpha    90
_cell_angle_beta     91.315
_cell_angle_gamma    90

_symmetry_space_group_name_H-M    "P 1"
_symmetry_int_tables_number       1

loop_
  _symmetry_equiv_pos_as_xyz
  'x, y, z'

loop_
  _atom_site_label
  _atom_site_occupancy
  _atom_site_fract_x
  _atom_site_fract_y
  _atom_site_fract_z
  _atom_site_thermal_displace_type
  _atom_site_B_iso_or_equiv
  _atom_site_type_symbol
  Cd1      1.0000 0.97959  0.18386  0.18541  Biso   1.000  Cd
  N1       1.0000 0.10050  0.79560  0.38720  Biso   1.000  N
  O1       1.0000 0.52900  0.60060  0.58210  Biso   1.000  O
  C1       1.0000 0.21760  0.32250  0.39720  Biso   1.000  C
  H1       1.0000 0.20880  0.20820  0.37080  Biso   1.000  H
  C2       1.0000 0.37010  0.14660  0.57560  Biso   1.000  C
  C3       1.0000 0.16620  0.63700  0.40830  Biso   1.000  C
  O2       1.0000 0.93180  0.41070  0.28800  Biso   1.000  O
  N2       1.0000 0.02410  0.99670  0.29970  Biso   1.000  N
  O3       1.0000 0.65070  0.75800  0.64300  Biso   1.000  O
  N3       1.0000 0.43040  0.00250  0.56960  Biso   1.000  N
  C4       1.0000 0.30780  0.52980  0.50310  Biso   1.000  C
  H2       1.0000 0.35990  0.55000  0.54470  Biso   1.000  H
  N4       1.0000 0.35210  0.21330  0.49190  Biso   1.000  N
  C5       1.0000 0.72180  0.30360  0.40640  Biso   1.000  C
  H3       1.0000 0.68610  0.21440  0.36950  Biso   1.000  H
  H4       1.0000 0.77480  0.24030  0.43960  Biso   1.000  H
  C6       1.0000 0.83720  0.36500  0.28470  Biso   1.000  C
  C7       1.0000 0.69640  0.55030  0.52530  Biso   1.000  C
  H5       1.0000 0.75520  0.51030  0.56090  Biso   1.000  H
  C8       1.0000 0.24170  0.65900  0.47640  Biso   1.000  C
  H6       1.0000 0.24580  0.77250  0.50480  Biso   1.000  H
  C9       1.0000 0.04480  0.88400  0.43470  Biso   1.000  C
  H7       1.0000 0.03500  0.85960  0.49530  Biso   1.000  H
  C10      1.0000 0.15740  0.47100  0.37420  Biso   1.000  C
  H8       1.0000 0.10660  0.45170  0.33120  Biso   1.000  H
  C11      1.0000 0.32780  0.21450  0.65030  Biso   1.000  C
  H9       1.0000 0.25670  0.19240  0.64770  Biso   1.000  H
  H10      1.0000 0.35660  0.15550  0.70250  Biso   1.000  H
  H11      1.0000 0.34000  0.34360  0.65390  Biso   1.000  H
  C12      1.0000 0.28860  0.35500  0.45940  Biso   1.000  C
  C13      1.0000 0.45990  0.97700  0.48430  Biso   1.000  C
  H12      1.0000 0.50660  0.89080  0.46610  Biso   1.000  H
  C14      1.0000 0.40930  0.10060  0.42740  Biso   1.000  C
  H13      1.0000 0.41100  0.10980  0.36510  Biso   1.000  H
  C15      1.0000 0.76860  0.45030  0.34520  Biso   1.000  C
  H14      1.0000 0.71350  0.49970  0.30780  Biso   1.000  H
  C16      1.0000 0.81260  0.60880  0.39650  Biso   1.000  C
  H15      1.0000 0.83650  0.70100  0.35530  Biso   1.000  H
  H16      1.0000 0.86890  0.56840  0.43410  Biso   1.000  H
  C17      1.0000 0.00020  0.01800  0.38970  Biso   1.000  C
  H17      1.0000 0.96040  0.10970  0.41360  Biso   1.000  H
  C18      1.0000 0.08770  0.86200  0.30180  Biso   1.000  C
  C19      1.0000 0.61440  0.63900  0.58920  Biso   1.000  C
  C20      1.0000 0.13200  0.77400  0.21550  Biso   1.000  C
  H18      1.0000 0.15480  0.86820  0.17600  Biso   1.000  H
  H19      1.0000 0.08160  0.70170  0.18530  Biso   1.000  H
  H20      1.0000 0.18810  0.69670  0.23240  Biso   1.000  H
  C21      1.0000 0.65120  0.38700  0.47080  Biso   1.000  C
  H21      1.0000 0.63000  0.29350  0.51260  Biso   1.000  H
  H22      1.0000 0.59190  0.42870  0.43770  Biso   1.000  H
  O4       1.0000 0.81290  0.24900  0.22730  Biso   1.000  O
  C22      1.0000 0.72660  0.69060  0.45690  Biso   1.000  C
  H23      1.0000 0.75060  0.80000  0.48730  Biso   1.000  H
  H24      1.0000 0.66890  0.72340  0.41930  Biso   1.000  H
  Cd2      1.0000 0.47959  0.81614  0.68541  Biso   1.000  Cd
  N5       1.0000 0.60050  0.20440  0.88720  Biso   1.000  N
  O5       1.0000 0.02900  0.39940  0.08210  Biso   1.000  O
  C23      1.0000 0.71760  0.67750  0.89720  Biso   1.000  C
  H25      1.0000 0.70880  0.79180  0.87080  Biso   1.000  H
  C24      1.0000 0.87010  0.85340  0.07560  Biso   1.000  C
  C25      1.0000 0.66620  0.36300  0.90830  Biso   1.000  C
  O6       1.0000 0.43180  0.58930  0.78800  Biso   1.000  O
  N6       1.0000 0.52410  0.00330  0.79970  Biso   1.000  N
  O7       1.0000 0.15070  0.24200  0.14300  Biso   1.000  O
  N7       1.0000 0.93040  0.99750  0.06960  Biso   1.000  N
  C26      1.0000 0.80780  0.47020  0.00310  Biso   1.000  C
  H26      1.0000 0.85990  0.45000  0.04470  Biso   1.000  H
  N8       1.0000 0.85210  0.78670  0.99190  Biso   1.000  N
  C27      1.0000 0.22180  0.69640  0.90640  Biso   1.000  C
  H27      1.0000 0.18610  0.78560  0.86950  Biso   1.000  H
  H28      1.0000 0.27480  0.75970  0.93960  Biso   1.000  H
  C28      1.0000 0.33720  0.63500  0.78470  Biso   1.000  C
  C29      1.0000 0.19640  0.44970  0.02530  Biso   1.000  C
  H29      1.0000 0.25520  0.48970  0.06090  Biso   1.000  H
  C30      1.0000 0.74170  0.34100  0.97640  Biso   1.000  C
  H30      1.0000 0.74580  0.22750  0.00480  Biso   1.000  H
  C31      1.0000 0.54480  0.11600  0.93470  Biso   1.000  C
  H31      1.0000 0.53500  0.14040  0.99530  Biso   1.000  H
  C32      1.0000 0.65740  0.52900  0.87420  Biso   1.000  C
  H32      1.0000 0.60660  0.54830  0.83120  Biso   1.000  H
  C33      1.0000 0.82780  0.78550  0.15030  Biso   1.000  C
  H33      1.0000 0.75670  0.80760  0.14770  Biso   1.000  H
  H34      1.0000 0.85660  0.84450  0.20250  Biso   1.000  H
  H35      1.0000 0.84000  0.65640  0.15390  Biso   1.000  H
  C34      1.0000 0.78860  0.64500  0.95940  Biso   1.000  C
  C35      1.0000 0.95990  0.02300  0.98430  Biso   1.000  C
  H36      1.0000 0.00660  0.10920  0.96610  Biso   1.000  H
  C36      1.0000 0.90930  0.89940  0.92740  Biso   1.000  C
  H37      1.0000 0.91100  0.89020  0.86510  Biso   1.000  H
  C37      1.0000 0.26860  0.54970  0.84520  Biso   1.000  C
  H38      1.0000 0.21350  0.50030  0.80780  Biso   1.000  H
  C38      1.0000 0.31260  0.39120  0.89650  Biso   1.000  C
  H39      1.0000 0.33650  0.29900  0.85530  Biso   1.000  H
  H40      1.0000 0.36890  0.43160  0.93410  Biso   1.000  H
  C39      1.0000 0.50020  0.98200  0.88970  Biso   1.000  C
  H41      1.0000 0.46040  0.89030  0.91360  Biso   1.000  H
  C40      1.0000 0.58770  0.13800  0.80180  Biso   1.000  C
  C41      1.0000 0.11440  0.36100  0.08920  Biso   1.000  C
  C42      1.0000 0.63200  0.22600  0.71550  Biso   1.000  C
  H42      1.0000 0.65480  0.13180  0.67600  Biso   1.000  H
  H43      1.0000 0.58160  0.29830  0.68530  Biso   1.000  H
  H44      1.0000 0.68810  0.30330  0.73240  Biso   1.000  H
  C43      1.0000 0.15120  0.61300  0.97080  Biso   1.000  C
  H45      1.0000 0.13000  0.70650  0.01260  Biso   1.000  H
  H46      1.0000 0.09190  0.57130  0.93770  Biso   1.000  H
  O8       1.0000 0.31290  0.75100  0.72730  Biso   1.000  O
  C44      1.0000 0.22660  0.30940  0.95690  Biso   1.000  C
  H47      1.0000 0.25060  0.20000  0.98730  Biso   1.000  H
  H48      1.0000 0.16890  0.27660  0.91930  Biso   1.000  H
