data_EYACOX_clean
_audit_creation_date              2014-07-02
_audit_creation_method            'Materials Studio'
_symmetry_space_group_name_H-M    'P1'
_symmetry_Int_Tables_number       1
_symmetry_cell_setting            triclinic
loop_
_symmetry_equiv_pos_as_xyz
  x,y,z
_cell_length_a                    18.4797
_cell_length_b                    18.4797
_cell_length_c                    18.6320
_cell_angle_alpha                 86.3772
_cell_angle_beta                  86.3772
_cell_angle_gamma                 70.3635
loop_
_atom_site_label
_atom_site_type_symbol
_atom_site_fract_x
_atom_site_fract_y
_atom_site_fract_z
_atom_site_U_iso_or_equiv
_atom_site_adp_type
_atom_site_occupancy
Eu1    Eu    0.89878   0.54547   0.56756   0.01267  Uiso   1.00
Eu2    Eu    0.35245   0.00879   0.52016   0.01267  Uiso   1.00
Eu3    Eu    0.45453   0.10122   0.93244   0.01267  Uiso   1.00
Eu4    Eu    0.99121   0.64755   0.97984   0.01267  Uiso   1.00
Eu5    Eu    0.10122   0.45453   0.43244   0.01267  Uiso   1.00
Eu6    Eu    0.64755   0.99121   0.47984   0.01267  Uiso   1.00
Eu7    Eu    0.54547   0.89878   0.06756   0.01267  Uiso   1.00
Eu8    Eu    0.00879   0.35245   0.02016   0.01267  Uiso   1.00
H1     H     0.67350   0.76790   0.50590   0.01267  Uiso   1.00
H2     H     0.45140   0.79120   0.55050   0.01267  Uiso   1.00
H3     H     0.61630   0.59310   0.60040   0.01267  Uiso   1.00
H4     H     0.03580   0.56160   0.73550   0.01267  Uiso   1.00
H5     H     0.21780   0.54580   0.59960   0.01267  Uiso   1.00
H6     H     0.20880   0.62420   0.79560   0.01267  Uiso   1.00
H7     H     0.13400   0.26380   0.53220   0.01267  Uiso   1.00
H8     H     0.93330   0.28650   0.63950   0.01267  Uiso   1.00
H9     H     0.10380   0.08260   0.64520   0.01267  Uiso   1.00
H10    H     0.23210   0.32650   0.99410   0.01267  Uiso   1.00
H11    H     0.20880   0.54860   0.94950   0.01267  Uiso   1.00
H12    H     0.40690   0.38370   0.89960   0.01267  Uiso   1.00
H13    H     0.43840   0.96420   0.76450   0.01267  Uiso   1.00
H14    H     0.45420   0.78220   0.90040   0.01267  Uiso   1.00
H15    H     0.37580   0.79120   0.70440   0.01267  Uiso   1.00
H16    H     0.73620   0.86600   0.96780   0.01267  Uiso   1.00
H17    H     0.71350   0.06670   0.86050   0.01267  Uiso   1.00
H18    H     0.91740   0.89620   0.85480   0.01267  Uiso   1.00
H19    H     0.32650   0.23210   0.49410   0.01267  Uiso   1.00
H20    H     0.54860   0.20880   0.44950   0.01267  Uiso   1.00
H21    H     0.38370   0.40690   0.39960   0.01267  Uiso   1.00
H22    H     0.96420   0.43840   0.26450   0.01267  Uiso   1.00
H23    H     0.78220   0.45420   0.40040   0.01267  Uiso   1.00
H24    H     0.79120   0.37580   0.20440   0.01267  Uiso   1.00
H25    H     0.86600   0.73620   0.46780   0.01267  Uiso   1.00
H26    H     0.06670   0.71350   0.36050   0.01267  Uiso   1.00
H27    H     0.89620   0.91740   0.35480   0.01267  Uiso   1.00
H28    H     0.76790   0.67350   0.00590   0.01267  Uiso   1.00
H29    H     0.79120   0.45140   0.05050   0.01267  Uiso   1.00
H30    H     0.59310   0.61630   0.10040   0.01267  Uiso   1.00
H31    H     0.56160   0.03580   0.23550   0.01267  Uiso   1.00
H32    H     0.54580   0.21780   0.09960   0.01267  Uiso   1.00
H33    H     0.62420   0.20880   0.29560   0.01267  Uiso   1.00
H34    H     0.26380   0.13400   0.03220   0.01267  Uiso   1.00
H35    H     0.28650   0.93330   0.13950   0.01267  Uiso   1.00
H36    H     0.08260   0.10380   0.14520   0.01267  Uiso   1.00
C1     C     0.53720   0.87480   0.49550   0.01267  Uiso   1.00
C2     C     0.55850   0.79390   0.52220   0.01267  Uiso   1.00
C3     C     0.63570   0.74750   0.52330   0.01267  Uiso   1.00
C4     C     0.65700   0.67280   0.54970   0.01267  Uiso   1.00
C5     C     0.73980   0.62480   0.55100   0.01267  Uiso   1.00
C6     C     0.50320   0.76140   0.55100   0.01267  Uiso   1.00
C7     C     0.52280   0.68900   0.57920   0.01267  Uiso   1.00
C8     C     0.60180   0.64280   0.57990   0.01267  Uiso   1.00
C9     C     0.46430   0.66110   0.60990   0.01267  Uiso   1.00
C10    C     0.41050   0.64250   0.63280   0.01267  Uiso   1.00
C11    C     0.08580   0.51680   0.60170   0.01267  Uiso   1.00
C12    C     0.12050   0.54610   0.65600   0.01267  Uiso   1.00
C13    C     0.08340   0.56740   0.72460   0.01267  Uiso   1.00
C14    C     0.11580   0.59600   0.77480   0.01267  Uiso   1.00
C15    C     0.07510   0.61730   0.84780   0.01267  Uiso   1.00
C16    C     0.19120   0.55900   0.64350   0.01267  Uiso   1.00
C17    C     0.22260   0.59040   0.69320   0.01267  Uiso   1.00
C18    C     0.18630   0.60650   0.76040   0.01267  Uiso   1.00
C19    C     0.29150   0.60670   0.67570   0.01267  Uiso   1.00
C20    C     0.34880   0.62360   0.65580   0.01267  Uiso   1.00
C21    C     0.99590   0.37030   0.55860   0.01267  Uiso   1.00
C22    C     0.02780   0.28720   0.58180   0.01267  Uiso   1.00
C23    C     0.10250   0.24190   0.56000   0.01267  Uiso   1.00
C24    C     0.12870   0.16450   0.58040   0.01267  Uiso   1.00
C25    C     0.20670   0.11430   0.55740   0.01267  Uiso   1.00
C26    C     0.98250   0.25610   0.62460   0.01267  Uiso   1.00
C27    C     0.01060   0.17760   0.64640   0.01267  Uiso   1.00
C28    C     0.08400   0.13320   0.62720   0.01267  Uiso   1.00
C29    C     0.96200   0.14360   0.69380   0.01267  Uiso   1.00
C30    C     0.92690   0.11110   0.72730   0.01267  Uiso   1.00
C31    C     0.12520   0.46280   0.00450   0.01267  Uiso   1.00
C32    C     0.20610   0.44150   0.97780   0.01267  Uiso   1.00
C33    C     0.25250   0.36430   0.97670   0.01267  Uiso   1.00
C34    C     0.32720   0.34300   0.95030   0.01267  Uiso   1.00
C35    C     0.37520   0.26020   0.94900   0.01267  Uiso   1.00
C36    C     0.23860   0.49680   0.94900   0.01267  Uiso   1.00
C37    C     0.31100   0.47720   0.92080   0.01267  Uiso   1.00
C38    C     0.35720   0.39820   0.92010   0.01267  Uiso   1.00
C39    C     0.33890   0.53570   0.89010   0.01267  Uiso   1.00
C40    C     0.35750   0.58950   0.86720   0.01267  Uiso   1.00
C41    C     0.48320   0.91420   0.89830   0.01267  Uiso   1.00
C42    C     0.45390   0.87950   0.84400   0.01267  Uiso   1.00
C43    C     0.43260   0.91660   0.77540   0.01267  Uiso   1.00
C44    C     0.40400   0.88420   0.72520   0.01267  Uiso   1.00
C45    C     0.38270   0.92490   0.65220   0.01267  Uiso   1.00
C46    C     0.44100   0.80880   0.85650   0.01267  Uiso   1.00
C47    C     0.40960   0.77740   0.80680   0.01267  Uiso   1.00
C48    C     0.39350   0.81370   0.73960   0.01267  Uiso   1.00
C49    C     0.39330   0.70850   0.82430   0.01267  Uiso   1.00
C50    C     0.37640   0.65120   0.84420   0.01267  Uiso   1.00
C51    C     0.62970   0.00410   0.94140   0.01267  Uiso   1.00
C52    C     0.71280   0.97220   0.91820   0.01267  Uiso   1.00
C53    C     0.75810   0.89750   0.94000   0.01267  Uiso   1.00
C54    C     0.83550   0.87130   0.91960   0.01267  Uiso   1.00
C55    C     0.88570   0.79330   0.94260   0.01267  Uiso   1.00
C56    C     0.74390   0.01750   0.87540   0.01267  Uiso   1.00
C57    C     0.82240   0.98940   0.85360   0.01267  Uiso   1.00
C58    C     0.86680   0.91600   0.87280   0.01267  Uiso   1.00
C59    C     0.85640   0.03800   0.80620   0.01267  Uiso   1.00
C60    C     0.88890   0.07310   0.77270   0.01267  Uiso   1.00
C61    C     0.46280   0.12520   0.50450   0.01267  Uiso   1.00
C62    C     0.44150   0.20610   0.47780   0.01267  Uiso   1.00
C63    C     0.36430   0.25250   0.47670   0.01267  Uiso   1.00
C64    C     0.34300   0.32720   0.45030   0.01267  Uiso   1.00
C65    C     0.26020   0.37520   0.44900   0.01267  Uiso   1.00
C66    C     0.49680   0.23860   0.44900   0.01267  Uiso   1.00
C67    C     0.47720   0.31100   0.42080   0.01267  Uiso   1.00
C68    C     0.39820   0.35720   0.42010   0.01267  Uiso   1.00
C69    C     0.53570   0.33890   0.39010   0.01267  Uiso   1.00
C70    C     0.58950   0.35750   0.36720   0.01267  Uiso   1.00
C71    C     0.91420   0.48320   0.39830   0.01267  Uiso   1.00
C72    C     0.87950   0.45390   0.34400   0.01267  Uiso   1.00
C73    C     0.91660   0.43260   0.27540   0.01267  Uiso   1.00
C74    C     0.88420   0.40400   0.22520   0.01267  Uiso   1.00
C75    C     0.92490   0.38270   0.15220   0.01267  Uiso   1.00
C76    C     0.80880   0.44100   0.35650   0.01267  Uiso   1.00
C77    C     0.77740   0.40960   0.30680   0.01267  Uiso   1.00
C78    C     0.81370   0.39350   0.23960   0.01267  Uiso   1.00
C79    C     0.70850   0.39330   0.32430   0.01267  Uiso   1.00
C80    C     0.65120   0.37640   0.34420   0.01267  Uiso   1.00
C81    C     0.00410   0.62970   0.44140   0.01267  Uiso   1.00
C82    C     0.97220   0.71280   0.41820   0.01267  Uiso   1.00
C83    C     0.89750   0.75810   0.44000   0.01267  Uiso   1.00
C84    C     0.87130   0.83550   0.41960   0.01267  Uiso   1.00
C85    C     0.79330   0.88570   0.44260   0.01267  Uiso   1.00
C86    C     0.01750   0.74390   0.37540   0.01267  Uiso   1.00
C87    C     0.98940   0.82240   0.35360   0.01267  Uiso   1.00
C88    C     0.91600   0.86680   0.37280   0.01267  Uiso   1.00
C89    C     0.03800   0.85640   0.30620   0.01267  Uiso   1.00
C90    C     0.07310   0.88890   0.27270   0.01267  Uiso   1.00
C91    C     0.87480   0.53720   0.99550   0.01267  Uiso   1.00
C92    C     0.79390   0.55850   0.02220   0.01267  Uiso   1.00
C93    C     0.74750   0.63570   0.02330   0.01267  Uiso   1.00
C94    C     0.67280   0.65700   0.04970   0.01267  Uiso   1.00
C95    C     0.62480   0.73980   0.05100   0.01267  Uiso   1.00
C96    C     0.76140   0.50320   0.05100   0.01267  Uiso   1.00
C97    C     0.68900   0.52280   0.07920   0.01267  Uiso   1.00
C98    C     0.64280   0.60180   0.07990   0.01267  Uiso   1.00
C99    C     0.66110   0.46430   0.10990   0.01267  Uiso   1.00
C100   C     0.64250   0.41050   0.13280   0.01267  Uiso   1.00
C101   C     0.51680   0.08580   0.10170   0.01267  Uiso   1.00
C102   C     0.54610   0.12050   0.15600   0.01267  Uiso   1.00
C103   C     0.56740   0.08340   0.22460   0.01267  Uiso   1.00
C104   C     0.59600   0.11580   0.27480   0.01267  Uiso   1.00
C105   C     0.61730   0.07510   0.34780   0.01267  Uiso   1.00
C106   C     0.55900   0.19120   0.14350   0.01267  Uiso   1.00
C107   C     0.59040   0.22260   0.19320   0.01267  Uiso   1.00
C108   C     0.60650   0.18630   0.26040   0.01267  Uiso   1.00
C109   C     0.60670   0.29150   0.17570   0.01267  Uiso   1.00
C110   C     0.62360   0.34880   0.15580   0.01267  Uiso   1.00
C111   C     0.37030   0.99590   0.05860   0.01267  Uiso   1.00
C112   C     0.28720   0.02780   0.08180   0.01267  Uiso   1.00
C113   C     0.24190   0.10250   0.06000   0.01267  Uiso   1.00
C114   C     0.16450   0.12870   0.08040   0.01267  Uiso   1.00
C115   C     0.11430   0.20670   0.05740   0.01267  Uiso   1.00
C116   C     0.25610   0.98250   0.12460   0.01267  Uiso   1.00
C117   C     0.17760   0.01060   0.14640   0.01267  Uiso   1.00
C118   C     0.13320   0.08400   0.12720   0.01267  Uiso   1.00
C119   C     0.14360   0.96200   0.19380   0.01267  Uiso   1.00
C120   C     0.11110   0.92690   0.22730   0.01267  Uiso   1.00
O1     O     0.46540   0.91180   0.49150   0.01267  Uiso   1.00
O2     O     0.58800   0.90080   0.47430   0.01267  Uiso   1.00
O3     O     0.78830   0.65350   0.52300   0.01267  Uiso   1.00
O4     O     0.75920   0.55800   0.57800   0.01267  Uiso   1.00
O5     O     0.12240   0.49760   0.54540   0.01267  Uiso   1.00
O6     O     0.01860   0.51380   0.61820   0.01267  Uiso   1.00
O7     O     0.09830   0.65010   0.88900   0.01267  Uiso   1.00
O8     O     0.01600   0.59740   0.86230   0.01267  Uiso   1.00
O9     O     0.93320   0.40920   0.58620   0.01267  Uiso   1.00
O10    O     0.03330   0.39650   0.51210   0.01267  Uiso   1.00
O11    O     0.24400   0.13160   0.50850   0.01267  Uiso   1.00
O12    O     0.23720   0.05500   0.59340   0.01267  Uiso   1.00
O13    O     0.08820   0.53460   0.00850   0.01267  Uiso   1.00
O14    O     0.09920   0.41200   0.02570   0.01267  Uiso   1.00
O15    O     0.34650   0.21170   0.97700   0.01267  Uiso   1.00
O16    O     0.44200   0.24080   0.92200   0.01267  Uiso   1.00
O17    O     0.50240   0.87760   0.95460   0.01267  Uiso   1.00
O18    O     0.48620   0.98140   0.88180   0.01267  Uiso   1.00
O19    O     0.34990   0.90170   0.61100   0.01267  Uiso   1.00
O20    O     0.40260   0.98400   0.63770   0.01267  Uiso   1.00
O21    O     0.59080   0.06680   0.91380   0.01267  Uiso   1.00
O22    O     0.60350   0.96670   0.98790   0.01267  Uiso   1.00
O23    O     0.86840   0.75600   0.99150   0.01267  Uiso   1.00
O24    O     0.94500   0.76280   0.90660   0.01267  Uiso   1.00
O25    O     0.53460   0.08820   0.50850   0.01267  Uiso   1.00
O26    O     0.41200   0.09920   0.52570   0.01267  Uiso   1.00
O27    O     0.21170   0.34650   0.47700   0.01267  Uiso   1.00
O28    O     0.24080   0.44200   0.42200   0.01267  Uiso   1.00
O29    O     0.87760   0.50240   0.45460   0.01267  Uiso   1.00
O30    O     0.98140   0.48620   0.38180   0.01267  Uiso   1.00
O31    O     0.90170   0.34990   0.11100   0.01267  Uiso   1.00
O32    O     0.98400   0.40260   0.13770   0.01267  Uiso   1.00
O33    O     0.06680   0.59080   0.41380   0.01267  Uiso   1.00
O34    O     0.96670   0.60350   0.48790   0.01267  Uiso   1.00
O35    O     0.75600   0.86840   0.49150   0.01267  Uiso   1.00
O36    O     0.76280   0.94500   0.40660   0.01267  Uiso   1.00
O37    O     0.91180   0.46540   0.99150   0.01267  Uiso   1.00
O38    O     0.90080   0.58800   0.97430   0.01267  Uiso   1.00
O39    O     0.65350   0.78830   0.02300   0.01267  Uiso   1.00
O40    O     0.55800   0.75920   0.07800   0.01267  Uiso   1.00
O41    O     0.49760   0.12240   0.04540   0.01267  Uiso   1.00
O42    O     0.51380   0.01860   0.11820   0.01267  Uiso   1.00
O43    O     0.65010   0.09830   0.38900   0.01267  Uiso   1.00
O44    O     0.59740   0.01600   0.36230   0.01267  Uiso   1.00
O45    O     0.40920   0.93320   0.08620   0.01267  Uiso   1.00
O46    O     0.39650   0.03330   0.01210   0.01267  Uiso   1.00
O47    O     0.13160   0.24400   0.00850   0.01267  Uiso   1.00
O48    O     0.05500   0.23720   0.09340   0.01267  Uiso   1.00
