data_image0
_cell_length_a       29.8541
_cell_length_b       20.9459
_cell_length_c       19.3789
_cell_angle_alpha    90
_cell_angle_beta     94.071
_cell_angle_gamma    90

_symmetry_space_group_name_H-M    "P 1"
_symmetry_int_tables_number       1

loop_
  _symmetry_equiv_pos_as_xyz
  'x, y, z'

loop_
  _atom_site_label
  _atom_site_occupancy
  _atom_site_fract_x
  _atom_site_fract_y
  _atom_site_fract_z
  _atom_site_thermal_displace_type
  _atom_site_B_iso_or_equiv
  _atom_site_type_symbol
  Yb1      1.0000 0.27693  0.17580  0.05712  Biso   1.000  Yb
  Yb2      1.0000 0.18218  0.82912  0.96305  Biso   1.000  Yb
  O1       1.0000 0.33990  0.10480  0.07040  Biso   1.000  O
  O2       1.0000 0.27740  0.07070  0.01940  Biso   1.000  O
  O3       1.0000 0.25700  0.83990  0.96670  Biso   1.000  O
  O4       1.0000 0.30830  0.77140  0.00340  Biso   1.000  O
  O5       1.0000 0.62908  0.72390  0.38190  Biso   1.000  O
  O6       1.0000 0.69716  0.70860  0.35290  Biso   1.000  O
  O7       1.0000 0.68946  0.80810  0.04460  Biso   1.000  O
  O8       1.0000 0.73191  0.74330  0.11130  Biso   1.000  O
  O9       1.0000 0.19120  0.94310  0.97490  Biso   1.000  O
  O10      1.0000 0.14890  0.90770  0.89190  Biso   1.000  O
  O11      1.0000 0.21660  0.18440  0.98150  Biso   1.000  O
  O12      1.0000 0.17325  0.24340  0.91240  Biso   1.000  O
  C1       1.0000 0.31670  0.06010  0.04470  Biso   1.000  C
  C2       1.0000 0.33400  0.99370  0.04680  Biso   1.000  C
  C3       1.0000 0.37680  0.98050  0.07660  Biso   1.000  C
  H1       1.0000 0.39490  0.01360  0.09430  Biso   1.000  H
  C4       1.0000 0.39280  0.91740  0.08030  Biso   1.000  C
  C5       1.0000 0.36510  0.86820  0.05400  Biso   1.000  C
  H2       1.0000 0.37540  0.82630  0.05660  Biso   1.000  H
  C6       1.0000 0.32260  0.88110  0.02390  Biso   1.000  C
  C7       1.0000 0.30690  0.94330  0.01910  Biso   1.000  C
  H3       1.0000 0.27870  0.95180  0.99770  Biso   1.000  H
  C8       1.0000 0.29410  0.82630  0.99550  Biso   1.000  C
  C9       1.0000 0.43680  0.90350  0.11130  Biso   1.000  C
  C10      1.0000 0.47320  0.88660  0.13410  Biso   1.000  C
  C11      1.0000 0.51490  0.86440  0.15780  Biso   1.000  C
  C12      1.0000 0.55120  0.84370  0.17710  Biso   1.000  C
  C13      1.0000 0.59290  0.81600  0.19200  Biso   1.000  C
  C14      1.0000 0.60550  0.78830  0.25700  Biso   1.000  C
  H4       1.0000 0.58570  0.79060  0.29190  Biso   1.000  H
  C15      1.0000 0.64590  0.75820  0.27010  Biso   1.000  C
  C16      1.0000 0.67630  0.75570  0.21980  Biso   1.000  C
  H5       1.0000 0.70390  0.73590  0.22940  Biso   1.000  H
  C17      1.0000 0.66610  0.78260  0.15420  Biso   1.000  C
  C18      1.0000 0.62500  0.81230  0.14130  Biso   1.000  C
  H6       1.0000 0.61810  0.83040  0.09800  Biso   1.000  H
  C19      1.0000 0.65820  0.72820  0.33870  Biso   1.000  C
  C20      1.0000 0.69840  0.77850  0.09930  Biso   1.000  C
  C21      1.0000 0.16390  0.95380  0.92630  Biso   1.000  C
  C22      1.0000 0.14870  0.01910  0.90760  Biso   1.000  C
  C23      1.0000 0.17290  0.07230  0.93230  Biso   1.000  C
  H7       1.0000 0.19880  0.06700  0.96110  Biso   1.000  H
  C24      1.0000 0.15820  0.13270  0.91380  Biso   1.000  C
  C25      1.0000 0.11930  0.14150  0.87250  Biso   1.000  C
  H8       1.0000 0.10960  0.18240  0.86040  Biso   1.000  H
  C26      1.0000 0.09460  0.08870  0.84890  Biso   1.000  C
  C27      1.0000 0.11050  0.02640  0.86580  Biso   1.000  C
  H9       1.0000 0.09490  0.99080  0.84840  Biso   1.000  H
  C28      1.0000 0.18470  0.19160  0.93800  Biso   1.000  C
  C29      1.0000 0.05410  0.09560  0.80510  Biso   1.000  C
  C30      1.0000 0.02020  0.09760  0.77090  Biso   1.000  C
  Yb3      1.0000 0.77693  0.67580  0.05712  Biso   1.000  Yb
  Yb4      1.0000 0.68218  0.32912  0.96305  Biso   1.000  Yb
  O13      1.0000 0.83990  0.60480  0.07040  Biso   1.000  O
  O14      1.0000 0.77740  0.57070  0.01940  Biso   1.000  O
  O15      1.0000 0.75700  0.33990  0.96670  Biso   1.000  O
  O16      1.0000 0.80830  0.27140  0.00340  Biso   1.000  O
  O17      1.0000 0.12908  0.22390  0.38190  Biso   1.000  O
  O18      1.0000 0.19716  0.20860  0.35290  Biso   1.000  O
  O19      1.0000 0.18946  0.30810  0.04460  Biso   1.000  O
  O20      1.0000 0.23191  0.24330  0.11130  Biso   1.000  O
  O21      1.0000 0.69120  0.44310  0.97490  Biso   1.000  O
  O22      1.0000 0.64890  0.40770  0.89190  Biso   1.000  O
  O23      1.0000 0.71660  0.68440  0.98150  Biso   1.000  O
  O24      1.0000 0.67325  0.74340  0.91240  Biso   1.000  O
  C31      1.0000 0.81670  0.56010  0.04470  Biso   1.000  C
  C32      1.0000 0.83400  0.49370  0.04680  Biso   1.000  C
  C33      1.0000 0.87680  0.48050  0.07660  Biso   1.000  C
  H10      1.0000 0.89490  0.51360  0.09430  Biso   1.000  H
  C34      1.0000 0.89280  0.41740  0.08030  Biso   1.000  C
  C35      1.0000 0.86510  0.36820  0.05400  Biso   1.000  C
  H11      1.0000 0.87540  0.32630  0.05660  Biso   1.000  H
  C36      1.0000 0.82260  0.38110  0.02390  Biso   1.000  C
  C37      1.0000 0.80690  0.44330  0.01910  Biso   1.000  C
  H12      1.0000 0.77870  0.45180  0.99770  Biso   1.000  H
  C38      1.0000 0.79410  0.32630  0.99550  Biso   1.000  C
  C39      1.0000 0.93680  0.40350  0.11130  Biso   1.000  C
  C40      1.0000 0.97320  0.38660  0.13410  Biso   1.000  C
  C41      1.0000 0.01490  0.36440  0.15780  Biso   1.000  C
  C42      1.0000 0.05120  0.34370  0.17710  Biso   1.000  C
  C43      1.0000 0.09290  0.31600  0.19200  Biso   1.000  C
  C44      1.0000 0.10550  0.28830  0.25700  Biso   1.000  C
  H13      1.0000 0.08570  0.29060  0.29190  Biso   1.000  H
  C45      1.0000 0.14590  0.25820  0.27010  Biso   1.000  C
  C46      1.0000 0.17630  0.25570  0.21980  Biso   1.000  C
  H14      1.0000 0.20390  0.23590  0.22940  Biso   1.000  H
  C47      1.0000 0.16610  0.28260  0.15420  Biso   1.000  C
  C48      1.0000 0.12500  0.31230  0.14130  Biso   1.000  C
  H15      1.0000 0.11810  0.33040  0.09800  Biso   1.000  H
  C49      1.0000 0.15820  0.22820  0.33870  Biso   1.000  C
  C50      1.0000 0.19840  0.27850  0.09930  Biso   1.000  C
  C51      1.0000 0.66390  0.45380  0.92630  Biso   1.000  C
  C52      1.0000 0.64870  0.51910  0.90760  Biso   1.000  C
  C53      1.0000 0.67290  0.57230  0.93230  Biso   1.000  C
  H16      1.0000 0.69880  0.56700  0.96110  Biso   1.000  H
  C54      1.0000 0.65820  0.63270  0.91380  Biso   1.000  C
  C55      1.0000 0.61930  0.64150  0.87250  Biso   1.000  C
  H17      1.0000 0.60960  0.68240  0.86040  Biso   1.000  H
  C56      1.0000 0.59460  0.58870  0.84890  Biso   1.000  C
  C57      1.0000 0.61050  0.52640  0.86580  Biso   1.000  C
  H18      1.0000 0.59490  0.49080  0.84840  Biso   1.000  H
  C58      1.0000 0.68470  0.69160  0.93800  Biso   1.000  C
  C59      1.0000 0.55410  0.59560  0.80510  Biso   1.000  C
  C60      1.0000 0.52020  0.59760  0.77090  Biso   1.000  C
  Yb5      1.0000 0.72307  0.17580  0.44288  Biso   1.000  Yb
  Yb6      1.0000 0.81782  0.82912  0.53695  Biso   1.000  Yb
  O25      1.0000 0.66010  0.10480  0.42960  Biso   1.000  O
  O26      1.0000 0.72260  0.07070  0.48060  Biso   1.000  O
  O27      1.0000 0.74300  0.83990  0.53330  Biso   1.000  O
  O28      1.0000 0.69170  0.77140  0.49660  Biso   1.000  O
  O29      1.0000 0.37092  0.72390  0.11810  Biso   1.000  O
  O30      1.0000 0.30284  0.70860  0.14710  Biso   1.000  O
  O31      1.0000 0.31054  0.80810  0.45540  Biso   1.000  O
  O32      1.0000 0.26809  0.74330  0.38870  Biso   1.000  O
  O33      1.0000 0.80880  0.94310  0.52510  Biso   1.000  O
  O34      1.0000 0.85110  0.90770  0.60810  Biso   1.000  O
  O35      1.0000 0.78340  0.18440  0.51850  Biso   1.000  O
  O36      1.0000 0.82675  0.24340  0.58760  Biso   1.000  O
  C61      1.0000 0.68330  0.06010  0.45530  Biso   1.000  C
  C62      1.0000 0.66600  0.99370  0.45320  Biso   1.000  C
  C63      1.0000 0.62320  0.98050  0.42340  Biso   1.000  C
  H19      1.0000 0.60510  0.01360  0.40570  Biso   1.000  H
  C64      1.0000 0.60720  0.91740  0.41970  Biso   1.000  C
  C65      1.0000 0.63490  0.86820  0.44600  Biso   1.000  C
  H20      1.0000 0.62460  0.82630  0.44340  Biso   1.000  H
  C66      1.0000 0.67740  0.88110  0.47610  Biso   1.000  C
  C67      1.0000 0.69310  0.94330  0.48090  Biso   1.000  C
  H21      1.0000 0.72130  0.95180  0.50230  Biso   1.000  H
  C68      1.0000 0.70590  0.82630  0.50450  Biso   1.000  C
  C69      1.0000 0.56320  0.90350  0.38870  Biso   1.000  C
  C70      1.0000 0.52680  0.88660  0.36590  Biso   1.000  C
  C71      1.0000 0.48510  0.86440  0.34220  Biso   1.000  C
  C72      1.0000 0.44880  0.84370  0.32290  Biso   1.000  C
  C73      1.0000 0.40710  0.81600  0.30800  Biso   1.000  C
  C74      1.0000 0.39450  0.78830  0.24300  Biso   1.000  C
  H22      1.0000 0.41430  0.79060  0.20810  Biso   1.000  H
  C75      1.0000 0.35410  0.75820  0.22990  Biso   1.000  C
  C76      1.0000 0.32370  0.75570  0.28020  Biso   1.000  C
  H23      1.0000 0.29610  0.73590  0.27060  Biso   1.000  H
  C77      1.0000 0.33390  0.78260  0.34580  Biso   1.000  C
  C78      1.0000 0.37500  0.81230  0.35870  Biso   1.000  C
  H24      1.0000 0.38190  0.83040  0.40200  Biso   1.000  H
  C79      1.0000 0.34180  0.72820  0.16130  Biso   1.000  C
  C80      1.0000 0.30160  0.77850  0.40070  Biso   1.000  C
  C81      1.0000 0.83610  0.95380  0.57370  Biso   1.000  C
  C82      1.0000 0.85130  0.01910  0.59240  Biso   1.000  C
  C83      1.0000 0.82710  0.07230  0.56770  Biso   1.000  C
  H25      1.0000 0.80120  0.06700  0.53890  Biso   1.000  H
  C84      1.0000 0.84180  0.13270  0.58620  Biso   1.000  C
  C85      1.0000 0.88070  0.14150  0.62750  Biso   1.000  C
  H26      1.0000 0.89040  0.18240  0.63960  Biso   1.000  H
  C86      1.0000 0.90540  0.08870  0.65110  Biso   1.000  C
  C87      1.0000 0.88950  0.02640  0.63420  Biso   1.000  C
  H27      1.0000 0.90510  0.99080  0.65160  Biso   1.000  H
  C88      1.0000 0.81530  0.19160  0.56200  Biso   1.000  C
  C89      1.0000 0.94590  0.09560  0.69490  Biso   1.000  C
  C90      1.0000 0.97980  0.09760  0.72910  Biso   1.000  C
  Yb7      1.0000 0.22307  0.67580  0.44288  Biso   1.000  Yb
  Yb8      1.0000 0.31782  0.32912  0.53695  Biso   1.000  Yb
  O37      1.0000 0.16010  0.60480  0.42960  Biso   1.000  O
  O38      1.0000 0.22260  0.57070  0.48060  Biso   1.000  O
  O39      1.0000 0.24300  0.33990  0.53330  Biso   1.000  O
  O40      1.0000 0.19170  0.27140  0.49660  Biso   1.000  O
  O41      1.0000 0.87092  0.22390  0.11810  Biso   1.000  O
  O42      1.0000 0.80284  0.20860  0.14710  Biso   1.000  O
  O43      1.0000 0.81054  0.30810  0.45540  Biso   1.000  O
  O44      1.0000 0.76809  0.24330  0.38870  Biso   1.000  O
  O45      1.0000 0.30880  0.44310  0.52510  Biso   1.000  O
  O46      1.0000 0.35110  0.40770  0.60810  Biso   1.000  O
  O47      1.0000 0.28340  0.68440  0.51850  Biso   1.000  O
  O48      1.0000 0.32675  0.74340  0.58760  Biso   1.000  O
  C91      1.0000 0.18330  0.56010  0.45530  Biso   1.000  C
  C92      1.0000 0.16600  0.49370  0.45320  Biso   1.000  C
  C93      1.0000 0.12320  0.48050  0.42340  Biso   1.000  C
  H28      1.0000 0.10510  0.51360  0.40570  Biso   1.000  H
  C94      1.0000 0.10720  0.41740  0.41970  Biso   1.000  C
  C95      1.0000 0.13490  0.36820  0.44600  Biso   1.000  C
  H29      1.0000 0.12460  0.32630  0.44340  Biso   1.000  H
  C96      1.0000 0.17740  0.38110  0.47610  Biso   1.000  C
  C97      1.0000 0.19310  0.44330  0.48090  Biso   1.000  C
  H30      1.0000 0.22130  0.45180  0.50230  Biso   1.000  H
  C98      1.0000 0.20590  0.32630  0.50450  Biso   1.000  C
  C99      1.0000 0.06320  0.40350  0.38870  Biso   1.000  C
  C100     1.0000 0.02680  0.38660  0.36590  Biso   1.000  C
  C101     1.0000 0.98510  0.36440  0.34220  Biso   1.000  C
  C102     1.0000 0.94880  0.34370  0.32290  Biso   1.000  C
  C103     1.0000 0.90710  0.31600  0.30800  Biso   1.000  C
  C104     1.0000 0.89450  0.28830  0.24300  Biso   1.000  C
  H31      1.0000 0.91430  0.29060  0.20810  Biso   1.000  H
  C105     1.0000 0.85410  0.25820  0.22990  Biso   1.000  C
  C106     1.0000 0.82370  0.25570  0.28020  Biso   1.000  C
  H32      1.0000 0.79610  0.23590  0.27060  Biso   1.000  H
  C107     1.0000 0.83390  0.28260  0.34580  Biso   1.000  C
  C108     1.0000 0.87500  0.31230  0.35870  Biso   1.000  C
  H33      1.0000 0.88190  0.33040  0.40200  Biso   1.000  H
  C109     1.0000 0.84180  0.22820  0.16130  Biso   1.000  C
  C110     1.0000 0.80160  0.27850  0.40070  Biso   1.000  C
  C111     1.0000 0.33610  0.45380  0.57370  Biso   1.000  C
  C112     1.0000 0.35130  0.51910  0.59240  Biso   1.000  C
  C113     1.0000 0.32710  0.57230  0.56770  Biso   1.000  C
  H34      1.0000 0.30120  0.56700  0.53890  Biso   1.000  H
  C114     1.0000 0.34180  0.63270  0.58620  Biso   1.000  C
  C115     1.0000 0.38070  0.64150  0.62750  Biso   1.000  C
  H35      1.0000 0.39040  0.68240  0.63960  Biso   1.000  H
  C116     1.0000 0.40540  0.58870  0.65110  Biso   1.000  C
  C117     1.0000 0.38950  0.52640  0.63420  Biso   1.000  C
  H36      1.0000 0.40510  0.49080  0.65160  Biso   1.000  H
  C118     1.0000 0.31530  0.69160  0.56200  Biso   1.000  C
  C119     1.0000 0.44590  0.59560  0.69490  Biso   1.000  C
  C120     1.0000 0.47980  0.59760  0.72910  Biso   1.000  C
  Yb9      1.0000 0.72307  0.82420  0.94288  Biso   1.000  Yb
  Yb10     1.0000 0.81782  0.17088  0.03695  Biso   1.000  Yb
  O49      1.0000 0.66010  0.89520  0.92960  Biso   1.000  O
  O50      1.0000 0.72260  0.92930  0.98060  Biso   1.000  O
  O51      1.0000 0.74300  0.16010  0.03330  Biso   1.000  O
  O52      1.0000 0.69170  0.22860  0.99660  Biso   1.000  O
  O53      1.0000 0.37092  0.27610  0.61810  Biso   1.000  O
  O54      1.0000 0.30284  0.29140  0.64710  Biso   1.000  O
  O55      1.0000 0.31054  0.19190  0.95540  Biso   1.000  O
  O56      1.0000 0.26809  0.25670  0.88870  Biso   1.000  O
  O57      1.0000 0.80880  0.05690  0.02510  Biso   1.000  O
  O58      1.0000 0.85110  0.09230  0.10810  Biso   1.000  O
  O59      1.0000 0.78340  0.81560  0.01850  Biso   1.000  O
  O60      1.0000 0.82675  0.75660  0.08760  Biso   1.000  O
  C121     1.0000 0.68330  0.93990  0.95530  Biso   1.000  C
  C122     1.0000 0.66600  0.00630  0.95320  Biso   1.000  C
  C123     1.0000 0.62320  0.01950  0.92340  Biso   1.000  C
  H37      1.0000 0.60510  0.98640  0.90570  Biso   1.000  H
  C124     1.0000 0.60720  0.08260  0.91970  Biso   1.000  C
  C125     1.0000 0.63490  0.13180  0.94600  Biso   1.000  C
  H38      1.0000 0.62460  0.17370  0.94340  Biso   1.000  H
  C126     1.0000 0.67740  0.11890  0.97610  Biso   1.000  C
  C127     1.0000 0.69310  0.05670  0.98090  Biso   1.000  C
  H39      1.0000 0.72130  0.04820  0.00230  Biso   1.000  H
  C128     1.0000 0.70590  0.17370  0.00450  Biso   1.000  C
  C129     1.0000 0.56320  0.09650  0.88870  Biso   1.000  C
  C130     1.0000 0.52680  0.11340  0.86590  Biso   1.000  C
  C131     1.0000 0.48510  0.13560  0.84220  Biso   1.000  C
  C132     1.0000 0.44880  0.15630  0.82290  Biso   1.000  C
  C133     1.0000 0.40710  0.18400  0.80800  Biso   1.000  C
  C134     1.0000 0.39450  0.21170  0.74300  Biso   1.000  C
  H40      1.0000 0.41430  0.20940  0.70810  Biso   1.000  H
  C135     1.0000 0.35410  0.24180  0.72990  Biso   1.000  C
  C136     1.0000 0.32370  0.24430  0.78020  Biso   1.000  C
  H41      1.0000 0.29610  0.26410  0.77060  Biso   1.000  H
  C137     1.0000 0.33390  0.21740  0.84580  Biso   1.000  C
  C138     1.0000 0.37500  0.18770  0.85870  Biso   1.000  C
  H42      1.0000 0.38190  0.16960  0.90200  Biso   1.000  H
  C139     1.0000 0.34180  0.27180  0.66130  Biso   1.000  C
  C140     1.0000 0.30160  0.22150  0.90070  Biso   1.000  C
  C141     1.0000 0.83610  0.04620  0.07370  Biso   1.000  C
  C142     1.0000 0.85130  0.98090  0.09240  Biso   1.000  C
  C143     1.0000 0.82710  0.92770  0.06770  Biso   1.000  C
  H43      1.0000 0.80120  0.93300  0.03890  Biso   1.000  H
  C144     1.0000 0.84180  0.86730  0.08620  Biso   1.000  C
  C145     1.0000 0.88070  0.85850  0.12750  Biso   1.000  C
  H44      1.0000 0.89040  0.81760  0.13960  Biso   1.000  H
  C146     1.0000 0.90540  0.91130  0.15110  Biso   1.000  C
  C147     1.0000 0.88950  0.97360  0.13420  Biso   1.000  C
  H45      1.0000 0.90510  0.00920  0.15160  Biso   1.000  H
  C148     1.0000 0.81530  0.80840  0.06200  Biso   1.000  C
  C149     1.0000 0.94590  0.90440  0.19490  Biso   1.000  C
  C150     1.0000 0.97980  0.90240  0.22910  Biso   1.000  C
  Yb11     1.0000 0.22307  0.32420  0.94288  Biso   1.000  Yb
  Yb12     1.0000 0.31782  0.67088  0.03695  Biso   1.000  Yb
  O61      1.0000 0.16010  0.39520  0.92960  Biso   1.000  O
  O62      1.0000 0.22260  0.42930  0.98060  Biso   1.000  O
  O63      1.0000 0.24300  0.66010  0.03330  Biso   1.000  O
  O64      1.0000 0.19170  0.72860  0.99660  Biso   1.000  O
  O65      1.0000 0.87092  0.77610  0.61810  Biso   1.000  O
  O66      1.0000 0.80284  0.79140  0.64710  Biso   1.000  O
  O67      1.0000 0.81054  0.69190  0.95540  Biso   1.000  O
  O68      1.0000 0.76809  0.75670  0.88870  Biso   1.000  O
  O69      1.0000 0.30880  0.55690  0.02510  Biso   1.000  O
  O70      1.0000 0.35110  0.59230  0.10810  Biso   1.000  O
  O71      1.0000 0.28340  0.31560  0.01850  Biso   1.000  O
  O72      1.0000 0.32675  0.25660  0.08760  Biso   1.000  O
  C151     1.0000 0.18330  0.43990  0.95530  Biso   1.000  C
  C152     1.0000 0.16600  0.50630  0.95320  Biso   1.000  C
  C153     1.0000 0.12320  0.51950  0.92340  Biso   1.000  C
  H46      1.0000 0.10510  0.48640  0.90570  Biso   1.000  H
  C154     1.0000 0.10720  0.58260  0.91970  Biso   1.000  C
  C155     1.0000 0.13490  0.63180  0.94600  Biso   1.000  C
  H47      1.0000 0.12460  0.67370  0.94340  Biso   1.000  H
  C156     1.0000 0.17740  0.61890  0.97610  Biso   1.000  C
  C157     1.0000 0.19310  0.55670  0.98090  Biso   1.000  C
  H48      1.0000 0.22130  0.54820  0.00230  Biso   1.000  H
  C158     1.0000 0.20590  0.67370  0.00450  Biso   1.000  C
  C159     1.0000 0.06320  0.59650  0.88870  Biso   1.000  C
  C160     1.0000 0.02680  0.61340  0.86590  Biso   1.000  C
  C161     1.0000 0.98510  0.63560  0.84220  Biso   1.000  C
  C162     1.0000 0.94880  0.65630  0.82290  Biso   1.000  C
  C163     1.0000 0.90710  0.68400  0.80800  Biso   1.000  C
  C164     1.0000 0.89450  0.71170  0.74300  Biso   1.000  C
  H49      1.0000 0.91430  0.70940  0.70810  Biso   1.000  H
  C165     1.0000 0.85410  0.74180  0.72990  Biso   1.000  C
  C166     1.0000 0.82370  0.74430  0.78020  Biso   1.000  C
  H50      1.0000 0.79610  0.76410  0.77060  Biso   1.000  H
  C167     1.0000 0.83390  0.71740  0.84580  Biso   1.000  C
  C168     1.0000 0.87500  0.68770  0.85870  Biso   1.000  C
  H51      1.0000 0.88190  0.66960  0.90200  Biso   1.000  H
  C169     1.0000 0.84180  0.77180  0.66130  Biso   1.000  C
  C170     1.0000 0.80160  0.72150  0.90070  Biso   1.000  C
  C171     1.0000 0.33610  0.54620  0.07370  Biso   1.000  C
  C172     1.0000 0.35130  0.48090  0.09240  Biso   1.000  C
  C173     1.0000 0.32710  0.42770  0.06770  Biso   1.000  C
  H52      1.0000 0.30120  0.43300  0.03890  Biso   1.000  H
  C174     1.0000 0.34180  0.36730  0.08620  Biso   1.000  C
  C175     1.0000 0.38070  0.35850  0.12750  Biso   1.000  C
  H53      1.0000 0.39040  0.31760  0.13960  Biso   1.000  H
  C176     1.0000 0.40540  0.41130  0.15110  Biso   1.000  C
  C177     1.0000 0.38950  0.47360  0.13420  Biso   1.000  C
  H54      1.0000 0.40510  0.50920  0.15160  Biso   1.000  H
  C178     1.0000 0.31530  0.30840  0.06200  Biso   1.000  C
  C179     1.0000 0.44590  0.40440  0.19490  Biso   1.000  C
  C180     1.0000 0.47980  0.40240  0.22910  Biso   1.000  C
  Yb13     1.0000 0.27693  0.82420  0.55712  Biso   1.000  Yb
  Yb14     1.0000 0.18218  0.17088  0.46305  Biso   1.000  Yb
  O73      1.0000 0.33990  0.89520  0.57040  Biso   1.000  O
  O74      1.0000 0.27740  0.92930  0.51940  Biso   1.000  O
  O75      1.0000 0.25700  0.16010  0.46670  Biso   1.000  O
  O76      1.0000 0.30830  0.22860  0.50340  Biso   1.000  O
  O77      1.0000 0.62908  0.27610  0.88190  Biso   1.000  O
  O78      1.0000 0.69716  0.29140  0.85290  Biso   1.000  O
  O79      1.0000 0.68946  0.19190  0.54460  Biso   1.000  O
  O80      1.0000 0.73191  0.25670  0.61130  Biso   1.000  O
  O81      1.0000 0.19120  0.05690  0.47490  Biso   1.000  O
  O82      1.0000 0.14890  0.09230  0.39190  Biso   1.000  O
  O83      1.0000 0.21660  0.81560  0.48150  Biso   1.000  O
  O84      1.0000 0.17325  0.75660  0.41240  Biso   1.000  O
  C181     1.0000 0.31670  0.93990  0.54470  Biso   1.000  C
  C182     1.0000 0.33400  0.00630  0.54680  Biso   1.000  C
  C183     1.0000 0.37680  0.01950  0.57660  Biso   1.000  C
  H55      1.0000 0.39490  0.98640  0.59430  Biso   1.000  H
  C184     1.0000 0.39280  0.08260  0.58030  Biso   1.000  C
  C185     1.0000 0.36510  0.13180  0.55400  Biso   1.000  C
  H56      1.0000 0.37540  0.17370  0.55660  Biso   1.000  H
  C186     1.0000 0.32260  0.11890  0.52390  Biso   1.000  C
  C187     1.0000 0.30690  0.05670  0.51910  Biso   1.000  C
  H57      1.0000 0.27870  0.04820  0.49770  Biso   1.000  H
  C188     1.0000 0.29410  0.17370  0.49550  Biso   1.000  C
  C189     1.0000 0.43680  0.09650  0.61130  Biso   1.000  C
  C190     1.0000 0.47320  0.11340  0.63410  Biso   1.000  C
  C191     1.0000 0.51490  0.13560  0.65780  Biso   1.000  C
  C192     1.0000 0.55120  0.15630  0.67710  Biso   1.000  C
  C193     1.0000 0.59290  0.18400  0.69200  Biso   1.000  C
  C194     1.0000 0.60550  0.21170  0.75700  Biso   1.000  C
  H58      1.0000 0.58570  0.20940  0.79190  Biso   1.000  H
  C195     1.0000 0.64590  0.24180  0.77010  Biso   1.000  C
  C196     1.0000 0.67630  0.24430  0.71980  Biso   1.000  C
  H59      1.0000 0.70390  0.26410  0.72940  Biso   1.000  H
  C197     1.0000 0.66610  0.21740  0.65420  Biso   1.000  C
  C198     1.0000 0.62500  0.18770  0.64130  Biso   1.000  C
  H60      1.0000 0.61810  0.16960  0.59800  Biso   1.000  H
  C199     1.0000 0.65820  0.27180  0.83870  Biso   1.000  C
  C200     1.0000 0.69840  0.22150  0.59930  Biso   1.000  C
  C201     1.0000 0.16390  0.04620  0.42630  Biso   1.000  C
  C202     1.0000 0.14870  0.98090  0.40760  Biso   1.000  C
  C203     1.0000 0.17290  0.92770  0.43230  Biso   1.000  C
  H61      1.0000 0.19880  0.93300  0.46110  Biso   1.000  H
  C204     1.0000 0.15820  0.86730  0.41380  Biso   1.000  C
  C205     1.0000 0.11930  0.85850  0.37250  Biso   1.000  C
  H62      1.0000 0.10960  0.81760  0.36040  Biso   1.000  H
  C206     1.0000 0.09460  0.91130  0.34890  Biso   1.000  C
  C207     1.0000 0.11050  0.97360  0.36580  Biso   1.000  C
  H63      1.0000 0.09490  0.00920  0.34840  Biso   1.000  H
  C208     1.0000 0.18470  0.80840  0.43800  Biso   1.000  C
  C209     1.0000 0.05410  0.90440  0.30510  Biso   1.000  C
  C210     1.0000 0.02020  0.90240  0.27090  Biso   1.000  C
  Yb15     1.0000 0.77693  0.32420  0.55712  Biso   1.000  Yb
  Yb16     1.0000 0.68218  0.67088  0.46305  Biso   1.000  Yb
  O85      1.0000 0.83990  0.39520  0.57040  Biso   1.000  O
  O86      1.0000 0.77740  0.42930  0.51940  Biso   1.000  O
  O87      1.0000 0.75700  0.66010  0.46670  Biso   1.000  O
  O88      1.0000 0.80830  0.72860  0.50340  Biso   1.000  O
  O89      1.0000 0.12908  0.77610  0.88190  Biso   1.000  O
  O90      1.0000 0.19716  0.79140  0.85290  Biso   1.000  O
  O91      1.0000 0.18946  0.69190  0.54460  Biso   1.000  O
  O92      1.0000 0.23191  0.75670  0.61130  Biso   1.000  O
  O93      1.0000 0.69120  0.55690  0.47490  Biso   1.000  O
  O94      1.0000 0.64890  0.59230  0.39190  Biso   1.000  O
  O95      1.0000 0.71660  0.31560  0.48150  Biso   1.000  O
  O96      1.0000 0.67325  0.25660  0.41240  Biso   1.000  O
  C211     1.0000 0.81670  0.43990  0.54470  Biso   1.000  C
  C212     1.0000 0.83400  0.50630  0.54680  Biso   1.000  C
  C213     1.0000 0.87680  0.51950  0.57660  Biso   1.000  C
  H64      1.0000 0.89490  0.48640  0.59430  Biso   1.000  H
  C214     1.0000 0.89280  0.58260  0.58030  Biso   1.000  C
  C215     1.0000 0.86510  0.63180  0.55400  Biso   1.000  C
  H65      1.0000 0.87540  0.67370  0.55660  Biso   1.000  H
  C216     1.0000 0.82260  0.61890  0.52390  Biso   1.000  C
  C217     1.0000 0.80690  0.55670  0.51910  Biso   1.000  C
  H66      1.0000 0.77870  0.54820  0.49770  Biso   1.000  H
  C218     1.0000 0.79410  0.67370  0.49550  Biso   1.000  C
  C219     1.0000 0.93680  0.59650  0.61130  Biso   1.000  C
  C220     1.0000 0.97320  0.61340  0.63410  Biso   1.000  C
  C221     1.0000 0.01490  0.63560  0.65780  Biso   1.000  C
  C222     1.0000 0.05120  0.65630  0.67710  Biso   1.000  C
  C223     1.0000 0.09290  0.68400  0.69200  Biso   1.000  C
  C224     1.0000 0.10550  0.71170  0.75700  Biso   1.000  C
  H67      1.0000 0.08570  0.70940  0.79190  Biso   1.000  H
  C225     1.0000 0.14590  0.74180  0.77010  Biso   1.000  C
  C226     1.0000 0.17630  0.74430  0.71980  Biso   1.000  C
  H68      1.0000 0.20390  0.76410  0.72940  Biso   1.000  H
  C227     1.0000 0.16610  0.71740  0.65420  Biso   1.000  C
  C228     1.0000 0.12500  0.68770  0.64130  Biso   1.000  C
  H69      1.0000 0.11810  0.66960  0.59800  Biso   1.000  H
  C229     1.0000 0.15820  0.77180  0.83870  Biso   1.000  C
  C230     1.0000 0.19840  0.72150  0.59930  Biso   1.000  C
  C231     1.0000 0.66390  0.54620  0.42630  Biso   1.000  C
  C232     1.0000 0.64870  0.48090  0.40760  Biso   1.000  C
  C233     1.0000 0.67290  0.42770  0.43230  Biso   1.000  C
  H70      1.0000 0.69880  0.43300  0.46110  Biso   1.000  H
  C234     1.0000 0.65820  0.36730  0.41380  Biso   1.000  C
  C235     1.0000 0.61930  0.35850  0.37250  Biso   1.000  C
  H71      1.0000 0.60960  0.31760  0.36040  Biso   1.000  H
  C236     1.0000 0.59460  0.41130  0.34890  Biso   1.000  C
  C237     1.0000 0.61050  0.47360  0.36580  Biso   1.000  C
  H72      1.0000 0.59490  0.50920  0.34840  Biso   1.000  H
  C238     1.0000 0.68470  0.30840  0.43800  Biso   1.000  C
  C239     1.0000 0.55410  0.40440  0.30510  Biso   1.000  C
  C240     1.0000 0.52020  0.40240  0.27090  Biso   1.000  C
