data_image0
_cell_length_a       29.9537
_cell_length_b       21.1398
_cell_length_c       19.4385
_cell_angle_alpha    90
_cell_angle_beta     93.98
_cell_angle_gamma    90

_symmetry_space_group_name_H-M    "P 1"
_symmetry_int_tables_number       1

loop_
  _symmetry_equiv_pos_as_xyz
  'x, y, z'

loop_
  _atom_site_label
  _atom_site_occupancy
  _atom_site_fract_x
  _atom_site_fract_y
  _atom_site_fract_z
  _atom_site_thermal_displace_type
  _atom_site_B_iso_or_equiv
  _atom_site_type_symbol
  Dy1      1.0000 0.27653  0.17457  0.05885  Biso   1.000  Dy
  Dy2      1.0000 0.18123  0.83030  0.96348  Biso   1.000  Dy
  O1       1.0000 0.34030  0.10140  0.07300  Biso   1.000  O
  O2       1.0000 0.28000  0.06900  0.01550  Biso   1.000  O
  O3       1.0000 0.25730  0.84010  0.96890  Biso   1.000  O
  O4       1.0000 0.30920  0.77180  0.00160  Biso   1.000  O
  O5       1.0000 0.62780  0.72290  0.38130  Biso   1.000  O
  O6       1.0000 0.69592  0.70850  0.35150  Biso   1.000  O
  O7       1.0000 0.68886  0.80880  0.04470  Biso   1.000  O
  O8       1.0000 0.73127  0.74550  0.11320  Biso   1.000  O
  O9       1.0000 0.14620  0.90970  0.89300  Biso   1.000  O
  O10      1.0000 0.19100  0.94490  0.97370  Biso   1.000  O
  O11      1.0000 0.21560  0.18410  0.98140  Biso   1.000  O
  O12      1.0000 0.17115  0.24390  0.91220  Biso   1.000  O
  C1       1.0000 0.31720  0.05750  0.04380  Biso   1.000  C
  C2       1.0000 0.33420  0.99090  0.04640  Biso   1.000  C
  C3       1.0000 0.37670  0.97790  0.07810  Biso   1.000  C
  H1       1.0000 0.39410  0.01080  0.09700  Biso   1.000  H
  C4       1.0000 0.39310  0.91620  0.08170  Biso   1.000  C
  C5       1.0000 0.36480  0.86700  0.05520  Biso   1.000  C
  H2       1.0000 0.37470  0.82540  0.05870  Biso   1.000  H
  C6       1.0000 0.32390  0.87920  0.02510  Biso   1.000  C
  C7       1.0000 0.30750  0.94110  0.01850  Biso   1.000  C
  H3       1.0000 0.27950  0.94910  0.99620  Biso   1.000  H
  C8       1.0000 0.29450  0.82570  0.99560  Biso   1.000  C
  C9       1.0000 0.43600  0.90240  0.11200  Biso   1.000  C
  C10      1.0000 0.47250  0.88550  0.13340  Biso   1.000  C
  C11      1.0000 0.51430  0.86360  0.15740  Biso   1.000  C
  C12      1.0000 0.55020  0.84150  0.17530  Biso   1.000  C
  C13      1.0000 0.59210  0.81530  0.19330  Biso   1.000  C
  C14      1.0000 0.60380  0.78770  0.25650  Biso   1.000  C
  H4       1.0000 0.58390  0.78970  0.29120  Biso   1.000  H
  C15      1.0000 0.64450  0.75710  0.26930  Biso   1.000  C
  C16      1.0000 0.67510  0.75530  0.21790  Biso   1.000  C
  H5       1.0000 0.70240  0.73490  0.22670  Biso   1.000  H
  C17      1.0000 0.66540  0.78380  0.15340  Biso   1.000  C
  C18      1.0000 0.62370  0.81250  0.14070  Biso   1.000  C
  H6       1.0000 0.61610  0.83010  0.09760  Biso   1.000  H
  C19      1.0000 0.65690  0.72750  0.33870  Biso   1.000  C
  C20      1.0000 0.69830  0.77940  0.10070  Biso   1.000  C
  C21      1.0000 0.16200  0.95530  0.92700  Biso   1.000  C
  C22      1.0000 0.14770  0.01960  0.90720  Biso   1.000  C
  C23      1.0000 0.17230  0.07320  0.93270  Biso   1.000  C
  H7       1.0000 0.19790  0.06770  0.96210  Biso   1.000  H
  C24      1.0000 0.15800  0.13480  0.91320  Biso   1.000  C
  C25      1.0000 0.11770  0.14290  0.87330  Biso   1.000  C
  H8       1.0000 0.10690  0.18340  0.86330  Biso   1.000  H
  C26      1.0000 0.09320  0.08940  0.84810  Biso   1.000  C
  C27      1.0000 0.10870  0.02870  0.86640  Biso   1.000  C
  H9       1.0000 0.09230  0.99360  0.85060  Biso   1.000  H
  C28      1.0000 0.05450  0.09650  0.80360  Biso   1.000  C
  C29      1.0000 0.01900  0.09810  0.77180  Biso   1.000  C
  C30      1.0000 0.18350  0.19030  0.93780  Biso   1.000  C
  Dy3      1.0000 0.77653  0.67457  0.05885  Biso   1.000  Dy
  Dy4      1.0000 0.68123  0.33030  0.96348  Biso   1.000  Dy
  O13      1.0000 0.84030  0.60140  0.07300  Biso   1.000  O
  O14      1.0000 0.78000  0.56900  0.01550  Biso   1.000  O
  O15      1.0000 0.75730  0.34010  0.96890  Biso   1.000  O
  O16      1.0000 0.80920  0.27180  0.00160  Biso   1.000  O
  O17      1.0000 0.12780  0.22290  0.38130  Biso   1.000  O
  O18      1.0000 0.19592  0.20850  0.35150  Biso   1.000  O
  O19      1.0000 0.18886  0.30880  0.04470  Biso   1.000  O
  O20      1.0000 0.23127  0.24550  0.11320  Biso   1.000  O
  O21      1.0000 0.64620  0.40970  0.89300  Biso   1.000  O
  O22      1.0000 0.69100  0.44490  0.97370  Biso   1.000  O
  O23      1.0000 0.71560  0.68410  0.98140  Biso   1.000  O
  O24      1.0000 0.67115  0.74390  0.91220  Biso   1.000  O
  C31      1.0000 0.81720  0.55750  0.04380  Biso   1.000  C
  C32      1.0000 0.83420  0.49090  0.04640  Biso   1.000  C
  C33      1.0000 0.87670  0.47790  0.07810  Biso   1.000  C
  H10      1.0000 0.89410  0.51080  0.09700  Biso   1.000  H
  C34      1.0000 0.89310  0.41620  0.08170  Biso   1.000  C
  C35      1.0000 0.86480  0.36700  0.05520  Biso   1.000  C
  H11      1.0000 0.87470  0.32540  0.05870  Biso   1.000  H
  C36      1.0000 0.82390  0.37920  0.02510  Biso   1.000  C
  C37      1.0000 0.80750  0.44110  0.01850  Biso   1.000  C
  H12      1.0000 0.77950  0.44910  0.99620  Biso   1.000  H
  C38      1.0000 0.79450  0.32570  0.99560  Biso   1.000  C
  C39      1.0000 0.93600  0.40240  0.11200  Biso   1.000  C
  C40      1.0000 0.97250  0.38550  0.13340  Biso   1.000  C
  C41      1.0000 0.01430  0.36360  0.15740  Biso   1.000  C
  C42      1.0000 0.05020  0.34150  0.17530  Biso   1.000  C
  C43      1.0000 0.09210  0.31530  0.19330  Biso   1.000  C
  C44      1.0000 0.10380  0.28770  0.25650  Biso   1.000  C
  H13      1.0000 0.08390  0.28970  0.29120  Biso   1.000  H
  C45      1.0000 0.14450  0.25710  0.26930  Biso   1.000  C
  C46      1.0000 0.17510  0.25530  0.21790  Biso   1.000  C
  H14      1.0000 0.20240  0.23490  0.22670  Biso   1.000  H
  C47      1.0000 0.16540  0.28380  0.15340  Biso   1.000  C
  C48      1.0000 0.12370  0.31250  0.14070  Biso   1.000  C
  H15      1.0000 0.11610  0.33010  0.09760  Biso   1.000  H
  C49      1.0000 0.15690  0.22750  0.33870  Biso   1.000  C
  C50      1.0000 0.19830  0.27940  0.10070  Biso   1.000  C
  C51      1.0000 0.66200  0.45530  0.92700  Biso   1.000  C
  C52      1.0000 0.64770  0.51960  0.90720  Biso   1.000  C
  C53      1.0000 0.67230  0.57320  0.93270  Biso   1.000  C
  H16      1.0000 0.69790  0.56770  0.96210  Biso   1.000  H
  C54      1.0000 0.65800  0.63480  0.91320  Biso   1.000  C
  C55      1.0000 0.61770  0.64290  0.87330  Biso   1.000  C
  H17      1.0000 0.60690  0.68340  0.86330  Biso   1.000  H
  C56      1.0000 0.59320  0.58940  0.84810  Biso   1.000  C
  C57      1.0000 0.60870  0.52870  0.86640  Biso   1.000  C
  H18      1.0000 0.59230  0.49360  0.85060  Biso   1.000  H
  C58      1.0000 0.55450  0.59650  0.80360  Biso   1.000  C
  C59      1.0000 0.51900  0.59810  0.77180  Biso   1.000  C
  C60      1.0000 0.68350  0.69030  0.93780  Biso   1.000  C
  Dy5      1.0000 0.72347  0.17457  0.44115  Biso   1.000  Dy
  Dy6      1.0000 0.81877  0.83030  0.53652  Biso   1.000  Dy
  O25      1.0000 0.65970  0.10140  0.42700  Biso   1.000  O
  O26      1.0000 0.72000  0.06900  0.48450  Biso   1.000  O
  O27      1.0000 0.74270  0.84010  0.53110  Biso   1.000  O
  O28      1.0000 0.69080  0.77180  0.49840  Biso   1.000  O
  O29      1.0000 0.37220  0.72290  0.11870  Biso   1.000  O
  O30      1.0000 0.30408  0.70850  0.14850  Biso   1.000  O
  O31      1.0000 0.31114  0.80880  0.45530  Biso   1.000  O
  O32      1.0000 0.26873  0.74550  0.38680  Biso   1.000  O
  O33      1.0000 0.85380  0.90970  0.60700  Biso   1.000  O
  O34      1.0000 0.80900  0.94490  0.52630  Biso   1.000  O
  O35      1.0000 0.78440  0.18410  0.51860  Biso   1.000  O
  O36      1.0000 0.82885  0.24390  0.58780  Biso   1.000  O
  C61      1.0000 0.68280  0.05750  0.45620  Biso   1.000  C
  C62      1.0000 0.66580  0.99090  0.45360  Biso   1.000  C
  C63      1.0000 0.62330  0.97790  0.42190  Biso   1.000  C
  H19      1.0000 0.60590  0.01080  0.40300  Biso   1.000  H
  C64      1.0000 0.60690  0.91620  0.41830  Biso   1.000  C
  C65      1.0000 0.63520  0.86700  0.44480  Biso   1.000  C
  H20      1.0000 0.62530  0.82540  0.44130  Biso   1.000  H
  C66      1.0000 0.67610  0.87920  0.47490  Biso   1.000  C
  C67      1.0000 0.69250  0.94110  0.48150  Biso   1.000  C
  H21      1.0000 0.72050  0.94910  0.50380  Biso   1.000  H
  C68      1.0000 0.70550  0.82570  0.50440  Biso   1.000  C
  C69      1.0000 0.56400  0.90240  0.38800  Biso   1.000  C
  C70      1.0000 0.52750  0.88550  0.36660  Biso   1.000  C
  C71      1.0000 0.48570  0.86360  0.34260  Biso   1.000  C
  C72      1.0000 0.44980  0.84150  0.32470  Biso   1.000  C
  C73      1.0000 0.40790  0.81530  0.30670  Biso   1.000  C
  C74      1.0000 0.39620  0.78770  0.24350  Biso   1.000  C
  H22      1.0000 0.41610  0.78970  0.20880  Biso   1.000  H
  C75      1.0000 0.35550  0.75710  0.23070  Biso   1.000  C
  C76      1.0000 0.32490  0.75530  0.28210  Biso   1.000  C
  H23      1.0000 0.29760  0.73490  0.27330  Biso   1.000  H
  C77      1.0000 0.33460  0.78380  0.34660  Biso   1.000  C
  C78      1.0000 0.37630  0.81250  0.35930  Biso   1.000  C
  H24      1.0000 0.38390  0.83010  0.40240  Biso   1.000  H
  C79      1.0000 0.34310  0.72750  0.16130  Biso   1.000  C
  C80      1.0000 0.30170  0.77940  0.39930  Biso   1.000  C
  C81      1.0000 0.83800  0.95530  0.57300  Biso   1.000  C
  C82      1.0000 0.85230  0.01960  0.59280  Biso   1.000  C
  C83      1.0000 0.82770  0.07320  0.56730  Biso   1.000  C
  H25      1.0000 0.80210  0.06770  0.53790  Biso   1.000  H
  C84      1.0000 0.84200  0.13480  0.58680  Biso   1.000  C
  C85      1.0000 0.88230  0.14290  0.62670  Biso   1.000  C
  H26      1.0000 0.89310  0.18340  0.63670  Biso   1.000  H
  C86      1.0000 0.90680  0.08940  0.65190  Biso   1.000  C
  C87      1.0000 0.89130  0.02870  0.63360  Biso   1.000  C
  H27      1.0000 0.90770  0.99360  0.64940  Biso   1.000  H
  C88      1.0000 0.94550  0.09650  0.69640  Biso   1.000  C
  C89      1.0000 0.98100  0.09810  0.72820  Biso   1.000  C
  C90      1.0000 0.81650  0.19030  0.56220  Biso   1.000  C
  Dy7      1.0000 0.22347  0.67457  0.44115  Biso   1.000  Dy
  Dy8      1.0000 0.31877  0.33030  0.53652  Biso   1.000  Dy
  O37      1.0000 0.15970  0.60140  0.42700  Biso   1.000  O
  O38      1.0000 0.22000  0.56900  0.48450  Biso   1.000  O
  O39      1.0000 0.24270  0.34010  0.53110  Biso   1.000  O
  O40      1.0000 0.19080  0.27180  0.49840  Biso   1.000  O
  O41      1.0000 0.87220  0.22290  0.11870  Biso   1.000  O
  O42      1.0000 0.80408  0.20850  0.14850  Biso   1.000  O
  O43      1.0000 0.81114  0.30880  0.45530  Biso   1.000  O
  O44      1.0000 0.76873  0.24550  0.38680  Biso   1.000  O
  O45      1.0000 0.35380  0.40970  0.60700  Biso   1.000  O
  O46      1.0000 0.30900  0.44490  0.52630  Biso   1.000  O
  O47      1.0000 0.28440  0.68410  0.51860  Biso   1.000  O
  O48      1.0000 0.32885  0.74390  0.58780  Biso   1.000  O
  C91      1.0000 0.18280  0.55750  0.45620  Biso   1.000  C
  C92      1.0000 0.16580  0.49090  0.45360  Biso   1.000  C
  C93      1.0000 0.12330  0.47790  0.42190  Biso   1.000  C
  H28      1.0000 0.10590  0.51080  0.40300  Biso   1.000  H
  C94      1.0000 0.10690  0.41620  0.41830  Biso   1.000  C
  C95      1.0000 0.13520  0.36700  0.44480  Biso   1.000  C
  H29      1.0000 0.12530  0.32540  0.44130  Biso   1.000  H
  C96      1.0000 0.17610  0.37920  0.47490  Biso   1.000  C
  C97      1.0000 0.19250  0.44110  0.48150  Biso   1.000  C
  H30      1.0000 0.22050  0.44910  0.50380  Biso   1.000  H
  C98      1.0000 0.20550  0.32570  0.50440  Biso   1.000  C
  C99      1.0000 0.06400  0.40240  0.38800  Biso   1.000  C
  C100     1.0000 0.02750  0.38550  0.36660  Biso   1.000  C
  C101     1.0000 0.98570  0.36360  0.34260  Biso   1.000  C
  C102     1.0000 0.94980  0.34150  0.32470  Biso   1.000  C
  C103     1.0000 0.90790  0.31530  0.30670  Biso   1.000  C
  C104     1.0000 0.89620  0.28770  0.24350  Biso   1.000  C
  H31      1.0000 0.91610  0.28970  0.20880  Biso   1.000  H
  C105     1.0000 0.85550  0.25710  0.23070  Biso   1.000  C
  C106     1.0000 0.82490  0.25530  0.28210  Biso   1.000  C
  H32      1.0000 0.79760  0.23490  0.27330  Biso   1.000  H
  C107     1.0000 0.83460  0.28380  0.34660  Biso   1.000  C
  C108     1.0000 0.87630  0.31250  0.35930  Biso   1.000  C
  H33      1.0000 0.88390  0.33010  0.40240  Biso   1.000  H
  C109     1.0000 0.84310  0.22750  0.16130  Biso   1.000  C
  C110     1.0000 0.80170  0.27940  0.39930  Biso   1.000  C
  C111     1.0000 0.33800  0.45530  0.57300  Biso   1.000  C
  C112     1.0000 0.35230  0.51960  0.59280  Biso   1.000  C
  C113     1.0000 0.32770  0.57320  0.56730  Biso   1.000  C
  H34      1.0000 0.30210  0.56770  0.53790  Biso   1.000  H
  C114     1.0000 0.34200  0.63480  0.58680  Biso   1.000  C
  C115     1.0000 0.38230  0.64290  0.62670  Biso   1.000  C
  H35      1.0000 0.39310  0.68340  0.63670  Biso   1.000  H
  C116     1.0000 0.40680  0.58940  0.65190  Biso   1.000  C
  C117     1.0000 0.39130  0.52870  0.63360  Biso   1.000  C
  H36      1.0000 0.40770  0.49360  0.64940  Biso   1.000  H
  C118     1.0000 0.44550  0.59650  0.69640  Biso   1.000  C
  C119     1.0000 0.48100  0.59810  0.72820  Biso   1.000  C
  C120     1.0000 0.31650  0.69030  0.56220  Biso   1.000  C
  Dy9      1.0000 0.72347  0.82543  0.94115  Biso   1.000  Dy
  Dy10     1.0000 0.81877  0.16970  0.03652  Biso   1.000  Dy
  O49      1.0000 0.65970  0.89860  0.92700  Biso   1.000  O
  O50      1.0000 0.72000  0.93100  0.98450  Biso   1.000  O
  O51      1.0000 0.74270  0.15990  0.03110  Biso   1.000  O
  O52      1.0000 0.69080  0.22820  0.99840  Biso   1.000  O
  O53      1.0000 0.37220  0.27710  0.61870  Biso   1.000  O
  O54      1.0000 0.30408  0.29150  0.64850  Biso   1.000  O
  O55      1.0000 0.31114  0.19120  0.95530  Biso   1.000  O
  O56      1.0000 0.26873  0.25450  0.88680  Biso   1.000  O
  O57      1.0000 0.85380  0.09030  0.10700  Biso   1.000  O
  O58      1.0000 0.80900  0.05510  0.02630  Biso   1.000  O
  O59      1.0000 0.78440  0.81590  0.01860  Biso   1.000  O
  O60      1.0000 0.82885  0.75610  0.08780  Biso   1.000  O
  C121     1.0000 0.68280  0.94250  0.95620  Biso   1.000  C
  C122     1.0000 0.66580  0.00910  0.95360  Biso   1.000  C
  C123     1.0000 0.62330  0.02210  0.92190  Biso   1.000  C
  H37      1.0000 0.60590  0.98920  0.90300  Biso   1.000  H
  C124     1.0000 0.60690  0.08380  0.91830  Biso   1.000  C
  C125     1.0000 0.63520  0.13300  0.94480  Biso   1.000  C
  H38      1.0000 0.62530  0.17460  0.94130  Biso   1.000  H
  C126     1.0000 0.67610  0.12080  0.97490  Biso   1.000  C
  C127     1.0000 0.69250  0.05890  0.98150  Biso   1.000  C
  H39      1.0000 0.72050  0.05090  0.00380  Biso   1.000  H
  C128     1.0000 0.70550  0.17430  0.00440  Biso   1.000  C
  C129     1.0000 0.56400  0.09760  0.88800  Biso   1.000  C
  C130     1.0000 0.52750  0.11450  0.86660  Biso   1.000  C
  C131     1.0000 0.48570  0.13640  0.84260  Biso   1.000  C
  C132     1.0000 0.44980  0.15850  0.82470  Biso   1.000  C
  C133     1.0000 0.40790  0.18470  0.80670  Biso   1.000  C
  C134     1.0000 0.39620  0.21230  0.74350  Biso   1.000  C
  H40      1.0000 0.41610  0.21030  0.70880  Biso   1.000  H
  C135     1.0000 0.35550  0.24290  0.73070  Biso   1.000  C
  C136     1.0000 0.32490  0.24470  0.78210  Biso   1.000  C
  H41      1.0000 0.29760  0.26510  0.77330  Biso   1.000  H
  C137     1.0000 0.33460  0.21620  0.84660  Biso   1.000  C
  C138     1.0000 0.37630  0.18750  0.85930  Biso   1.000  C
  H42      1.0000 0.38390  0.16990  0.90240  Biso   1.000  H
  C139     1.0000 0.34310  0.27250  0.66130  Biso   1.000  C
  C140     1.0000 0.30170  0.22060  0.89930  Biso   1.000  C
  C141     1.0000 0.83800  0.04470  0.07300  Biso   1.000  C
  C142     1.0000 0.85230  0.98040  0.09280  Biso   1.000  C
  C143     1.0000 0.82770  0.92680  0.06730  Biso   1.000  C
  H43      1.0000 0.80210  0.93230  0.03790  Biso   1.000  H
  C144     1.0000 0.84200  0.86520  0.08680  Biso   1.000  C
  C145     1.0000 0.88230  0.85710  0.12670  Biso   1.000  C
  H44      1.0000 0.89310  0.81660  0.13670  Biso   1.000  H
  C146     1.0000 0.90680  0.91060  0.15190  Biso   1.000  C
  C147     1.0000 0.89130  0.97130  0.13360  Biso   1.000  C
  H45      1.0000 0.90770  0.00640  0.14940  Biso   1.000  H
  C148     1.0000 0.94550  0.90350  0.19640  Biso   1.000  C
  C149     1.0000 0.98100  0.90190  0.22820  Biso   1.000  C
  C150     1.0000 0.81650  0.80970  0.06220  Biso   1.000  C
  Dy11     1.0000 0.22347  0.32543  0.94115  Biso   1.000  Dy
  Dy12     1.0000 0.31877  0.66970  0.03652  Biso   1.000  Dy
  O61      1.0000 0.15970  0.39860  0.92700  Biso   1.000  O
  O62      1.0000 0.22000  0.43100  0.98450  Biso   1.000  O
  O63      1.0000 0.24270  0.65990  0.03110  Biso   1.000  O
  O64      1.0000 0.19080  0.72820  0.99840  Biso   1.000  O
  O65      1.0000 0.87220  0.77710  0.61870  Biso   1.000  O
  O66      1.0000 0.80408  0.79150  0.64850  Biso   1.000  O
  O67      1.0000 0.81114  0.69120  0.95530  Biso   1.000  O
  O68      1.0000 0.76873  0.75450  0.88680  Biso   1.000  O
  O69      1.0000 0.35380  0.59030  0.10700  Biso   1.000  O
  O70      1.0000 0.30900  0.55510  0.02630  Biso   1.000  O
  O71      1.0000 0.28440  0.31590  0.01860  Biso   1.000  O
  O72      1.0000 0.32885  0.25610  0.08780  Biso   1.000  O
  C151     1.0000 0.18280  0.44250  0.95620  Biso   1.000  C
  C152     1.0000 0.16580  0.50910  0.95360  Biso   1.000  C
  C153     1.0000 0.12330  0.52210  0.92190  Biso   1.000  C
  H46      1.0000 0.10590  0.48920  0.90300  Biso   1.000  H
  C154     1.0000 0.10690  0.58380  0.91830  Biso   1.000  C
  C155     1.0000 0.13520  0.63300  0.94480  Biso   1.000  C
  H47      1.0000 0.12530  0.67460  0.94130  Biso   1.000  H
  C156     1.0000 0.17610  0.62080  0.97490  Biso   1.000  C
  C157     1.0000 0.19250  0.55890  0.98150  Biso   1.000  C
  H48      1.0000 0.22050  0.55090  0.00380  Biso   1.000  H
  C158     1.0000 0.20550  0.67430  0.00440  Biso   1.000  C
  C159     1.0000 0.06400  0.59760  0.88800  Biso   1.000  C
  C160     1.0000 0.02750  0.61450  0.86660  Biso   1.000  C
  C161     1.0000 0.98570  0.63640  0.84260  Biso   1.000  C
  C162     1.0000 0.94980  0.65850  0.82470  Biso   1.000  C
  C163     1.0000 0.90790  0.68470  0.80670  Biso   1.000  C
  C164     1.0000 0.89620  0.71230  0.74350  Biso   1.000  C
  H49      1.0000 0.91610  0.71030  0.70880  Biso   1.000  H
  C165     1.0000 0.85550  0.74290  0.73070  Biso   1.000  C
  C166     1.0000 0.82490  0.74470  0.78210  Biso   1.000  C
  H50      1.0000 0.79760  0.76510  0.77330  Biso   1.000  H
  C167     1.0000 0.83460  0.71620  0.84660  Biso   1.000  C
  C168     1.0000 0.87630  0.68750  0.85930  Biso   1.000  C
  H51      1.0000 0.88390  0.66990  0.90240  Biso   1.000  H
  C169     1.0000 0.84310  0.77250  0.66130  Biso   1.000  C
  C170     1.0000 0.80170  0.72060  0.89930  Biso   1.000  C
  C171     1.0000 0.33800  0.54470  0.07300  Biso   1.000  C
  C172     1.0000 0.35230  0.48040  0.09280  Biso   1.000  C
  C173     1.0000 0.32770  0.42680  0.06730  Biso   1.000  C
  H52      1.0000 0.30210  0.43230  0.03790  Biso   1.000  H
  C174     1.0000 0.34200  0.36520  0.08680  Biso   1.000  C
  C175     1.0000 0.38230  0.35710  0.12670  Biso   1.000  C
  H53      1.0000 0.39310  0.31660  0.13670  Biso   1.000  H
  C176     1.0000 0.40680  0.41060  0.15190  Biso   1.000  C
  C177     1.0000 0.39130  0.47130  0.13360  Biso   1.000  C
  H54      1.0000 0.40770  0.50640  0.14940  Biso   1.000  H
  C178     1.0000 0.44550  0.40350  0.19640  Biso   1.000  C
  C179     1.0000 0.48100  0.40190  0.22820  Biso   1.000  C
  C180     1.0000 0.31650  0.30970  0.06220  Biso   1.000  C
  Dy13     1.0000 0.27653  0.82543  0.55885  Biso   1.000  Dy
  Dy14     1.0000 0.18123  0.16970  0.46348  Biso   1.000  Dy
  O73      1.0000 0.34030  0.89860  0.57300  Biso   1.000  O
  O74      1.0000 0.28000  0.93100  0.51550  Biso   1.000  O
  O75      1.0000 0.25730  0.15990  0.46890  Biso   1.000  O
  O76      1.0000 0.30920  0.22820  0.50160  Biso   1.000  O
  O77      1.0000 0.62780  0.27710  0.88130  Biso   1.000  O
  O78      1.0000 0.69592  0.29150  0.85150  Biso   1.000  O
  O79      1.0000 0.68886  0.19120  0.54470  Biso   1.000  O
  O80      1.0000 0.73127  0.25450  0.61320  Biso   1.000  O
  O81      1.0000 0.14620  0.09030  0.39300  Biso   1.000  O
  O82      1.0000 0.19100  0.05510  0.47370  Biso   1.000  O
  O83      1.0000 0.21560  0.81590  0.48140  Biso   1.000  O
  O84      1.0000 0.17115  0.75610  0.41220  Biso   1.000  O
  C181     1.0000 0.31720  0.94250  0.54380  Biso   1.000  C
  C182     1.0000 0.33420  0.00910  0.54640  Biso   1.000  C
  C183     1.0000 0.37670  0.02210  0.57810  Biso   1.000  C
  H55      1.0000 0.39410  0.98920  0.59700  Biso   1.000  H
  C184     1.0000 0.39310  0.08380  0.58170  Biso   1.000  C
  C185     1.0000 0.36480  0.13300  0.55520  Biso   1.000  C
  H56      1.0000 0.37470  0.17460  0.55870  Biso   1.000  H
  C186     1.0000 0.32390  0.12080  0.52510  Biso   1.000  C
  C187     1.0000 0.30750  0.05890  0.51850  Biso   1.000  C
  H57      1.0000 0.27950  0.05090  0.49620  Biso   1.000  H
  C188     1.0000 0.29450  0.17430  0.49560  Biso   1.000  C
  C189     1.0000 0.43600  0.09760  0.61200  Biso   1.000  C
  C190     1.0000 0.47250  0.11450  0.63340  Biso   1.000  C
  C191     1.0000 0.51430  0.13640  0.65740  Biso   1.000  C
  C192     1.0000 0.55020  0.15850  0.67530  Biso   1.000  C
  C193     1.0000 0.59210  0.18470  0.69330  Biso   1.000  C
  C194     1.0000 0.60380  0.21230  0.75650  Biso   1.000  C
  H58      1.0000 0.58390  0.21030  0.79120  Biso   1.000  H
  C195     1.0000 0.64450  0.24290  0.76930  Biso   1.000  C
  C196     1.0000 0.67510  0.24470  0.71790  Biso   1.000  C
  H59      1.0000 0.70240  0.26510  0.72670  Biso   1.000  H
  C197     1.0000 0.66540  0.21620  0.65340  Biso   1.000  C
  C198     1.0000 0.62370  0.18750  0.64070  Biso   1.000  C
  H60      1.0000 0.61610  0.16990  0.59760  Biso   1.000  H
  C199     1.0000 0.65690  0.27250  0.83870  Biso   1.000  C
  C200     1.0000 0.69830  0.22060  0.60070  Biso   1.000  C
  C201     1.0000 0.16200  0.04470  0.42700  Biso   1.000  C
  C202     1.0000 0.14770  0.98040  0.40720  Biso   1.000  C
  C203     1.0000 0.17230  0.92680  0.43270  Biso   1.000  C
  H61      1.0000 0.19790  0.93230  0.46210  Biso   1.000  H
  C204     1.0000 0.15800  0.86520  0.41320  Biso   1.000  C
  C205     1.0000 0.11770  0.85710  0.37330  Biso   1.000  C
  H62      1.0000 0.10690  0.81660  0.36330  Biso   1.000  H
  C206     1.0000 0.09320  0.91060  0.34810  Biso   1.000  C
  C207     1.0000 0.10870  0.97130  0.36640  Biso   1.000  C
  H63      1.0000 0.09230  0.00640  0.35060  Biso   1.000  H
  C208     1.0000 0.05450  0.90350  0.30360  Biso   1.000  C
  C209     1.0000 0.01900  0.90190  0.27180  Biso   1.000  C
  C210     1.0000 0.18350  0.80970  0.43780  Biso   1.000  C
  Dy15     1.0000 0.77653  0.32543  0.55885  Biso   1.000  Dy
  Dy16     1.0000 0.68123  0.66970  0.46348  Biso   1.000  Dy
  O85      1.0000 0.84030  0.39860  0.57300  Biso   1.000  O
  O86      1.0000 0.78000  0.43100  0.51550  Biso   1.000  O
  O87      1.0000 0.75730  0.65990  0.46890  Biso   1.000  O
  O88      1.0000 0.80920  0.72820  0.50160  Biso   1.000  O
  O89      1.0000 0.12780  0.77710  0.88130  Biso   1.000  O
  O90      1.0000 0.19592  0.79150  0.85150  Biso   1.000  O
  O91      1.0000 0.18886  0.69120  0.54470  Biso   1.000  O
  O92      1.0000 0.23127  0.75450  0.61320  Biso   1.000  O
  O93      1.0000 0.64620  0.59030  0.39300  Biso   1.000  O
  O94      1.0000 0.69100  0.55510  0.47370  Biso   1.000  O
  O95      1.0000 0.71560  0.31590  0.48140  Biso   1.000  O
  O96      1.0000 0.67115  0.25610  0.41220  Biso   1.000  O
  C211     1.0000 0.81720  0.44250  0.54380  Biso   1.000  C
  C212     1.0000 0.83420  0.50910  0.54640  Biso   1.000  C
  C213     1.0000 0.87670  0.52210  0.57810  Biso   1.000  C
  H64      1.0000 0.89410  0.48920  0.59700  Biso   1.000  H
  C214     1.0000 0.89310  0.58380  0.58170  Biso   1.000  C
  C215     1.0000 0.86480  0.63300  0.55520  Biso   1.000  C
  H65      1.0000 0.87470  0.67460  0.55870  Biso   1.000  H
  C216     1.0000 0.82390  0.62080  0.52510  Biso   1.000  C
  C217     1.0000 0.80750  0.55890  0.51850  Biso   1.000  C
  H66      1.0000 0.77950  0.55090  0.49620  Biso   1.000  H
  C218     1.0000 0.79450  0.67430  0.49560  Biso   1.000  C
  C219     1.0000 0.93600  0.59760  0.61200  Biso   1.000  C
  C220     1.0000 0.97250  0.61450  0.63340  Biso   1.000  C
  C221     1.0000 0.01430  0.63640  0.65740  Biso   1.000  C
  C222     1.0000 0.05020  0.65850  0.67530  Biso   1.000  C
  C223     1.0000 0.09210  0.68470  0.69330  Biso   1.000  C
  C224     1.0000 0.10380  0.71230  0.75650  Biso   1.000  C
  H67      1.0000 0.08390  0.71030  0.79120  Biso   1.000  H
  C225     1.0000 0.14450  0.74290  0.76930  Biso   1.000  C
  C226     1.0000 0.17510  0.74470  0.71790  Biso   1.000  C
  H68      1.0000 0.20240  0.76510  0.72670  Biso   1.000  H
  C227     1.0000 0.16540  0.71620  0.65340  Biso   1.000  C
  C228     1.0000 0.12370  0.68750  0.64070  Biso   1.000  C
  H69      1.0000 0.11610  0.66990  0.59760  Biso   1.000  H
  C229     1.0000 0.15690  0.77250  0.83870  Biso   1.000  C
  C230     1.0000 0.19830  0.72060  0.60070  Biso   1.000  C
  C231     1.0000 0.66200  0.54470  0.42700  Biso   1.000  C
  C232     1.0000 0.64770  0.48040  0.40720  Biso   1.000  C
  C233     1.0000 0.67230  0.42680  0.43270  Biso   1.000  C
  H70      1.0000 0.69790  0.43230  0.46210  Biso   1.000  H
  C234     1.0000 0.65800  0.36520  0.41320  Biso   1.000  C
  C235     1.0000 0.61770  0.35710  0.37330  Biso   1.000  C
  H71      1.0000 0.60690  0.31660  0.36330  Biso   1.000  H
  C236     1.0000 0.59320  0.41060  0.34810  Biso   1.000  C
  C237     1.0000 0.60870  0.47130  0.36640  Biso   1.000  C
  H72      1.0000 0.59230  0.50640  0.35060  Biso   1.000  H
  C238     1.0000 0.55450  0.40350  0.30360  Biso   1.000  C
  C239     1.0000 0.51900  0.40190  0.27180  Biso   1.000  C
  C240     1.0000 0.68350  0.30970  0.43780  Biso   1.000  C
