data_image0
_cell_length_a       30.0058
_cell_length_b       21.244
_cell_length_c       19.5943
_cell_angle_alpha    90
_cell_angle_beta     93.87
_cell_angle_gamma    90

_symmetry_space_group_name_H-M    "P 1"
_symmetry_int_tables_number       1

loop_
  _symmetry_equiv_pos_as_xyz
  'x, y, z'

loop_
  _atom_site_label
  _atom_site_occupancy
  _atom_site_fract_x
  _atom_site_fract_y
  _atom_site_fract_z
  _atom_site_thermal_displace_type
  _atom_site_B_iso_or_equiv
  _atom_site_type_symbol
  Eu1      1.0000 0.27613  0.32595  0.55802  Biso   1.000  Eu
  Eu2      1.0000 0.18083  0.66840  0.46243  Biso   1.000  Eu
  O1       1.0000 0.34049  0.40041  0.57124  Biso   1.000  O
  O2       1.0000 0.27989  0.43302  0.51310  Biso   1.000  O
  O3       1.0000 0.25759  0.66123  0.46820  Biso   1.000  O
  O4       1.0000 0.31048  0.72921  0.50137  Biso   1.000  O
  O5       1.0000 0.68809  0.69071  0.54580  Biso   1.000  O
  O6       1.0000 0.73066  0.75402  0.61376  Biso   1.000  O
  O7       1.0000 0.62718  0.77708  0.87995  Biso   1.000  O
  O8       1.0000 0.69523  0.79229  0.85019  Biso   1.000  O
  O9       1.0000 0.19191  0.55250  0.47050  Biso   1.000  O
  O10      1.0000 0.14595  0.58710  0.39120  Biso   1.000  O
  O11      1.0000 0.21528  0.31292  0.47877  Biso   1.000  O
  O12      1.0000 0.17000  0.25485  0.41133  Biso   1.000  O
  C1       1.0000 0.31781  0.44379  0.54290  Biso   1.000  C
  C2       1.0000 0.33480  0.50957  0.54630  Biso   1.000  C
  C3       1.0000 0.37658  0.52240  0.57740  Biso   1.000  C
  H1       1.0000 0.39410  0.48970  0.59580  Biso   1.000  H
  C4       1.0000 0.39266  0.58452  0.58140  Biso   1.000  C
  C5       1.0000 0.36550  0.63320  0.55510  Biso   1.000  C
  H2       1.0000 0.37570  0.67450  0.55840  Biso   1.000  H
  C6       1.0000 0.32326  0.62076  0.52380  Biso   1.000  C
  C7       1.0000 0.30815  0.55934  0.51940  Biso   1.000  C
  H3       1.0000 0.28010  0.55080  0.49850  Biso   1.000  H
  C8       1.0000 0.29536  0.67400  0.49530  Biso   1.000  C
  C9       1.0000 0.43582  0.59870  0.61280  Biso   1.000  C
  C10      1.0000 0.47188  0.61540  0.63620  Biso   1.000  C
  C11      1.0000 0.51346  0.63580  0.65900  Biso   1.000  C
  C12      1.0000 0.54996  0.65630  0.67800  Biso   1.000  C
  C13      1.0000 0.59235  0.68440  0.69350  Biso   1.000  C
  C14      1.0000 0.62326  0.68660  0.64170  Biso   1.000  C
  H4       1.0000 0.61620  0.66800  0.59940  Biso   1.000  H
  C15      1.0000 0.66425  0.71690  0.65480  Biso   1.000  C
  C16      1.0000 0.67461  0.74380  0.71820  Biso   1.000  C
  H5       1.0000 0.70230  0.76270  0.72710  Biso   1.000  H
  C17      1.0000 0.64395  0.74300  0.76950  Biso   1.000  C
  C18      1.0000 0.60305  0.71300  0.75640  Biso   1.000  C
  H6       1.0000 0.58260  0.71200  0.79010  Biso   1.000  H
  C19      1.0000 0.69692  0.72052  0.60100  Biso   1.000  C
  C20      1.0000 0.65595  0.77270  0.83680  Biso   1.000  C
  C21      1.0000 0.16253  0.54250  0.42460  Biso   1.000  C
  C22      1.0000 0.14819  0.47720  0.40620  Biso   1.000  C
  C23      1.0000 0.17220  0.42470  0.43020  Biso   1.000  C
  H7       1.0000 0.19850  0.42970  0.45760  Biso   1.000  H
  C24      1.0000 0.15674  0.36443  0.41310  Biso   1.000  C
  C25      1.0000 0.11744  0.35644  0.37230  Biso   1.000  C
  H8       1.0000 0.10720  0.31620  0.36100  Biso   1.000  H
  C26      1.0000 0.09345  0.40920  0.34860  Biso   1.000  C
  C27      1.0000 0.10920  0.47010  0.36480  Biso   1.000  C
  H9       1.0000 0.09360  0.50530  0.34790  Biso   1.000  H
  C28      1.0000 0.18223  0.30660  0.43660  Biso   1.000  C
  C29      1.0000 0.05330  0.40270  0.30420  Biso   1.000  C
  C30      1.0000 0.01967  0.40040  0.27040  Biso   1.000  C
  Eu3      1.0000 0.77613  0.82595  0.55802  Biso   1.000  Eu
  Eu4      1.0000 0.68083  0.16840  0.46243  Biso   1.000  Eu
  O13      1.0000 0.84049  0.90041  0.57124  Biso   1.000  O
  O14      1.0000 0.77989  0.93302  0.51310  Biso   1.000  O
  O15      1.0000 0.75759  0.16123  0.46820  Biso   1.000  O
  O16      1.0000 0.81048  0.22921  0.50137  Biso   1.000  O
  O17      1.0000 0.18809  0.19071  0.54580  Biso   1.000  O
  O18      1.0000 0.23066  0.25402  0.61376  Biso   1.000  O
  O19      1.0000 0.12718  0.27708  0.87995  Biso   1.000  O
  O20      1.0000 0.19523  0.29229  0.85019  Biso   1.000  O
  O21      1.0000 0.69191  0.05250  0.47050  Biso   1.000  O
  O22      1.0000 0.64595  0.08710  0.39120  Biso   1.000  O
  O23      1.0000 0.71528  0.81292  0.47877  Biso   1.000  O
  O24      1.0000 0.67000  0.75485  0.41133  Biso   1.000  O
  C31      1.0000 0.81781  0.94379  0.54290  Biso   1.000  C
  C32      1.0000 0.83480  0.00957  0.54630  Biso   1.000  C
  C33      1.0000 0.87658  0.02240  0.57740  Biso   1.000  C
  H10      1.0000 0.89410  0.98970  0.59580  Biso   1.000  H
  C34      1.0000 0.89266  0.08452  0.58140  Biso   1.000  C
  C35      1.0000 0.86550  0.13320  0.55510  Biso   1.000  C
  H11      1.0000 0.87570  0.17450  0.55840  Biso   1.000  H
  C36      1.0000 0.82326  0.12076  0.52380  Biso   1.000  C
  C37      1.0000 0.80815  0.05934  0.51940  Biso   1.000  C
  H12      1.0000 0.78010  0.05080  0.49850  Biso   1.000  H
  C38      1.0000 0.79536  0.17400  0.49530  Biso   1.000  C
  C39      1.0000 0.93582  0.09870  0.61280  Biso   1.000  C
  C40      1.0000 0.97188  0.11540  0.63620  Biso   1.000  C
  C41      1.0000 0.01346  0.13580  0.65900  Biso   1.000  C
  C42      1.0000 0.04996  0.15630  0.67800  Biso   1.000  C
  C43      1.0000 0.09235  0.18440  0.69350  Biso   1.000  C
  C44      1.0000 0.12326  0.18660  0.64170  Biso   1.000  C
  H13      1.0000 0.11620  0.16800  0.59940  Biso   1.000  H
  C45      1.0000 0.16425  0.21690  0.65480  Biso   1.000  C
  C46      1.0000 0.17461  0.24380  0.71820  Biso   1.000  C
  H14      1.0000 0.20230  0.26270  0.72710  Biso   1.000  H
  C47      1.0000 0.14395  0.24300  0.76950  Biso   1.000  C
  C48      1.0000 0.10305  0.21300  0.75640  Biso   1.000  C
  H15      1.0000 0.08260  0.21200  0.79010  Biso   1.000  H
  C49      1.0000 0.19692  0.22052  0.60100  Biso   1.000  C
  C50      1.0000 0.15595  0.27270  0.83680  Biso   1.000  C
  C51      1.0000 0.66253  0.04250  0.42460  Biso   1.000  C
  C52      1.0000 0.64819  0.97720  0.40620  Biso   1.000  C
  C53      1.0000 0.67220  0.92470  0.43020  Biso   1.000  C
  H16      1.0000 0.69850  0.92970  0.45760  Biso   1.000  H
  C54      1.0000 0.65674  0.86443  0.41310  Biso   1.000  C
  C55      1.0000 0.61744  0.85644  0.37230  Biso   1.000  C
  H17      1.0000 0.60720  0.81620  0.36100  Biso   1.000  H
  C56      1.0000 0.59345  0.90920  0.34860  Biso   1.000  C
  C57      1.0000 0.60920  0.97010  0.36480  Biso   1.000  C
  H18      1.0000 0.59360  0.00530  0.34790  Biso   1.000  H
  C58      1.0000 0.68223  0.80660  0.43660  Biso   1.000  C
  C59      1.0000 0.55330  0.90270  0.30420  Biso   1.000  C
  C60      1.0000 0.51967  0.90040  0.27040  Biso   1.000  C
  Eu5      1.0000 0.72387  0.32595  0.94198  Biso   1.000  Eu
  Eu6      1.0000 0.81917  0.66840  0.03757  Biso   1.000  Eu
  O25      1.0000 0.65951  0.40041  0.92876  Biso   1.000  O
  O26      1.0000 0.72011  0.43302  0.98690  Biso   1.000  O
  O27      1.0000 0.74241  0.66123  0.03180  Biso   1.000  O
  O28      1.0000 0.68952  0.72921  0.99863  Biso   1.000  O
  O29      1.0000 0.31191  0.69071  0.95420  Biso   1.000  O
  O30      1.0000 0.26934  0.75402  0.88624  Biso   1.000  O
  O31      1.0000 0.37282  0.77708  0.62005  Biso   1.000  O
  O32      1.0000 0.30477  0.79229  0.64981  Biso   1.000  O
  O33      1.0000 0.80809  0.55250  0.02950  Biso   1.000  O
  O34      1.0000 0.85405  0.58710  0.10880  Biso   1.000  O
  O35      1.0000 0.78472  0.31292  0.02123  Biso   1.000  O
  O36      1.0000 0.83000  0.25485  0.08867  Biso   1.000  O
  C61      1.0000 0.68219  0.44379  0.95710  Biso   1.000  C
  C62      1.0000 0.66520  0.50957  0.95370  Biso   1.000  C
  C63      1.0000 0.62342  0.52240  0.92260  Biso   1.000  C
  H19      1.0000 0.60590  0.48970  0.90420  Biso   1.000  H
  C64      1.0000 0.60734  0.58452  0.91860  Biso   1.000  C
  C65      1.0000 0.63450  0.63320  0.94490  Biso   1.000  C
  H20      1.0000 0.62430  0.67450  0.94160  Biso   1.000  H
  C66      1.0000 0.67674  0.62076  0.97620  Biso   1.000  C
  C67      1.0000 0.69185  0.55934  0.98060  Biso   1.000  C
  H21      1.0000 0.71990  0.55080  0.00150  Biso   1.000  H
  C68      1.0000 0.70464  0.67400  0.00470  Biso   1.000  C
  C69      1.0000 0.56418  0.59870  0.88720  Biso   1.000  C
  C70      1.0000 0.52812  0.61540  0.86380  Biso   1.000  C
  C71      1.0000 0.48654  0.63580  0.84100  Biso   1.000  C
  C72      1.0000 0.45004  0.65630  0.82200  Biso   1.000  C
  C73      1.0000 0.40765  0.68440  0.80650  Biso   1.000  C
  C74      1.0000 0.37674  0.68660  0.85830  Biso   1.000  C
  H22      1.0000 0.38380  0.66800  0.90060  Biso   1.000  H
  C75      1.0000 0.33575  0.71690  0.84520  Biso   1.000  C
  C76      1.0000 0.32539  0.74380  0.78180  Biso   1.000  C
  H23      1.0000 0.29770  0.76270  0.77290  Biso   1.000  H
  C77      1.0000 0.35605  0.74300  0.73050  Biso   1.000  C
  C78      1.0000 0.39695  0.71300  0.74360  Biso   1.000  C
  H24      1.0000 0.41740  0.71200  0.70990  Biso   1.000  H
  C79      1.0000 0.30308  0.72052  0.89900  Biso   1.000  C
  C80      1.0000 0.34405  0.77270  0.66320  Biso   1.000  C
  C81      1.0000 0.83747  0.54250  0.07540  Biso   1.000  C
  C82      1.0000 0.85181  0.47720  0.09380  Biso   1.000  C
  C83      1.0000 0.82780  0.42470  0.06980  Biso   1.000  C
  H25      1.0000 0.80150  0.42970  0.04240  Biso   1.000  H
  C84      1.0000 0.84326  0.36443  0.08690  Biso   1.000  C
  C85      1.0000 0.88256  0.35644  0.12770  Biso   1.000  C
  H26      1.0000 0.89280  0.31620  0.13900  Biso   1.000  H
  C86      1.0000 0.90655  0.40920  0.15140  Biso   1.000  C
  C87      1.0000 0.89080  0.47010  0.13520  Biso   1.000  C
  H27      1.0000 0.90640  0.50530  0.15210  Biso   1.000  H
  C88      1.0000 0.81777  0.30660  0.06340  Biso   1.000  C
  C89      1.0000 0.94670  0.40270  0.19580  Biso   1.000  C
  C90      1.0000 0.98033  0.40040  0.22960  Biso   1.000  C
  Eu7      1.0000 0.22387  0.82595  0.94198  Biso   1.000  Eu
  Eu8      1.0000 0.31917  0.16840  0.03757  Biso   1.000  Eu
  O37      1.0000 0.15951  0.90041  0.92876  Biso   1.000  O
  O38      1.0000 0.22011  0.93302  0.98690  Biso   1.000  O
  O39      1.0000 0.24241  0.16123  0.03180  Biso   1.000  O
  O40      1.0000 0.18952  0.22921  0.99863  Biso   1.000  O
  O41      1.0000 0.81191  0.19071  0.95420  Biso   1.000  O
  O42      1.0000 0.76934  0.25402  0.88624  Biso   1.000  O
  O43      1.0000 0.87282  0.27708  0.62005  Biso   1.000  O
  O44      1.0000 0.80477  0.29229  0.64981  Biso   1.000  O
  O45      1.0000 0.30809  0.05250  0.02950  Biso   1.000  O
  O46      1.0000 0.35405  0.08710  0.10880  Biso   1.000  O
  O47      1.0000 0.28472  0.81292  0.02123  Biso   1.000  O
  O48      1.0000 0.33000  0.75485  0.08867  Biso   1.000  O
  C91      1.0000 0.18219  0.94379  0.95710  Biso   1.000  C
  C92      1.0000 0.16520  0.00957  0.95370  Biso   1.000  C
  C93      1.0000 0.12342  0.02240  0.92260  Biso   1.000  C
  H28      1.0000 0.10590  0.98970  0.90420  Biso   1.000  H
  C94      1.0000 0.10734  0.08452  0.91860  Biso   1.000  C
  C95      1.0000 0.13450  0.13320  0.94490  Biso   1.000  C
  H29      1.0000 0.12430  0.17450  0.94160  Biso   1.000  H
  C96      1.0000 0.17674  0.12076  0.97620  Biso   1.000  C
  C97      1.0000 0.19185  0.05934  0.98060  Biso   1.000  C
  H30      1.0000 0.21990  0.05080  0.00150  Biso   1.000  H
  C98      1.0000 0.20464  0.17400  0.00470  Biso   1.000  C
  C99      1.0000 0.06418  0.09870  0.88720  Biso   1.000  C
  C100     1.0000 0.02812  0.11540  0.86380  Biso   1.000  C
  C101     1.0000 0.98654  0.13580  0.84100  Biso   1.000  C
  C102     1.0000 0.95004  0.15630  0.82200  Biso   1.000  C
  C103     1.0000 0.90765  0.18440  0.80650  Biso   1.000  C
  C104     1.0000 0.87674  0.18660  0.85830  Biso   1.000  C
  H31      1.0000 0.88380  0.16800  0.90060  Biso   1.000  H
  C105     1.0000 0.83575  0.21690  0.84520  Biso   1.000  C
  C106     1.0000 0.82539  0.24380  0.78180  Biso   1.000  C
  H32      1.0000 0.79770  0.26270  0.77290  Biso   1.000  H
  C107     1.0000 0.85605  0.24300  0.73050  Biso   1.000  C
  C108     1.0000 0.89695  0.21300  0.74360  Biso   1.000  C
  H33      1.0000 0.91740  0.21200  0.70990  Biso   1.000  H
  C109     1.0000 0.80308  0.22052  0.89900  Biso   1.000  C
  C110     1.0000 0.84405  0.27270  0.66320  Biso   1.000  C
  C111     1.0000 0.33747  0.04250  0.07540  Biso   1.000  C
  C112     1.0000 0.35181  0.97720  0.09380  Biso   1.000  C
  C113     1.0000 0.32780  0.92470  0.06980  Biso   1.000  C
  H34      1.0000 0.30150  0.92970  0.04240  Biso   1.000  H
  C114     1.0000 0.34326  0.86443  0.08690  Biso   1.000  C
  C115     1.0000 0.38256  0.85644  0.12770  Biso   1.000  C
  H35      1.0000 0.39280  0.81620  0.13900  Biso   1.000  H
  C116     1.0000 0.40655  0.90920  0.15140  Biso   1.000  C
  C117     1.0000 0.39080  0.97010  0.13520  Biso   1.000  C
  H36      1.0000 0.40640  0.00530  0.15210  Biso   1.000  H
  C118     1.0000 0.31777  0.80660  0.06340  Biso   1.000  C
  C119     1.0000 0.44670  0.90270  0.19580  Biso   1.000  C
  C120     1.0000 0.48033  0.90040  0.22960  Biso   1.000  C
  Eu9      1.0000 0.72387  0.67405  0.44198  Biso   1.000  Eu
  Eu10     1.0000 0.81917  0.33160  0.53757  Biso   1.000  Eu
  O49      1.0000 0.65951  0.59959  0.42876  Biso   1.000  O
  O50      1.0000 0.72011  0.56698  0.48690  Biso   1.000  O
  O51      1.0000 0.74241  0.33877  0.53180  Biso   1.000  O
  O52      1.0000 0.68952  0.27079  0.49863  Biso   1.000  O
  O53      1.0000 0.31191  0.30929  0.45420  Biso   1.000  O
  O54      1.0000 0.26934  0.24598  0.38624  Biso   1.000  O
  O55      1.0000 0.37282  0.22292  0.12005  Biso   1.000  O
  O56      1.0000 0.30477  0.20771  0.14981  Biso   1.000  O
  O57      1.0000 0.80809  0.44750  0.52950  Biso   1.000  O
  O58      1.0000 0.85405  0.41290  0.60880  Biso   1.000  O
  O59      1.0000 0.78472  0.68708  0.52123  Biso   1.000  O
  O60      1.0000 0.83000  0.74515  0.58867  Biso   1.000  O
  C121     1.0000 0.68219  0.55621  0.45710  Biso   1.000  C
  C122     1.0000 0.66520  0.49043  0.45370  Biso   1.000  C
  C123     1.0000 0.62342  0.47760  0.42260  Biso   1.000  C
  H37      1.0000 0.60590  0.51030  0.40420  Biso   1.000  H
  C124     1.0000 0.60734  0.41548  0.41860  Biso   1.000  C
  C125     1.0000 0.63450  0.36680  0.44490  Biso   1.000  C
  H38      1.0000 0.62430  0.32550  0.44160  Biso   1.000  H
  C126     1.0000 0.67674  0.37924  0.47620  Biso   1.000  C
  C127     1.0000 0.69185  0.44066  0.48060  Biso   1.000  C
  H39      1.0000 0.71990  0.44920  0.50150  Biso   1.000  H
  C128     1.0000 0.70464  0.32600  0.50470  Biso   1.000  C
  C129     1.0000 0.56418  0.40130  0.38720  Biso   1.000  C
  C130     1.0000 0.52812  0.38460  0.36380  Biso   1.000  C
  C131     1.0000 0.48654  0.36420  0.34100  Biso   1.000  C
  C132     1.0000 0.45004  0.34370  0.32200  Biso   1.000  C
  C133     1.0000 0.40765  0.31560  0.30650  Biso   1.000  C
  C134     1.0000 0.37674  0.31340  0.35830  Biso   1.000  C
  H40      1.0000 0.38380  0.33200  0.40060  Biso   1.000  H
  C135     1.0000 0.33575  0.28310  0.34520  Biso   1.000  C
  C136     1.0000 0.32539  0.25620  0.28180  Biso   1.000  C
  H41      1.0000 0.29770  0.23730  0.27290  Biso   1.000  H
  C137     1.0000 0.35605  0.25700  0.23050  Biso   1.000  C
  C138     1.0000 0.39695  0.28700  0.24360  Biso   1.000  C
  H42      1.0000 0.41740  0.28800  0.20990  Biso   1.000  H
  C139     1.0000 0.30308  0.27948  0.39900  Biso   1.000  C
  C140     1.0000 0.34405  0.22730  0.16320  Biso   1.000  C
  C141     1.0000 0.83747  0.45750  0.57540  Biso   1.000  C
  C142     1.0000 0.85181  0.52280  0.59380  Biso   1.000  C
  C143     1.0000 0.82780  0.57530  0.56980  Biso   1.000  C
  H43      1.0000 0.80150  0.57030  0.54240  Biso   1.000  H
  C144     1.0000 0.84326  0.63557  0.58690  Biso   1.000  C
  C145     1.0000 0.88256  0.64356  0.62770  Biso   1.000  C
  H44      1.0000 0.89280  0.68380  0.63900  Biso   1.000  H
  C146     1.0000 0.90655  0.59080  0.65140  Biso   1.000  C
  C147     1.0000 0.89080  0.52990  0.63520  Biso   1.000  C
  H45      1.0000 0.90640  0.49470  0.65210  Biso   1.000  H
  C148     1.0000 0.81777  0.69340  0.56340  Biso   1.000  C
  C149     1.0000 0.94670  0.59730  0.69580  Biso   1.000  C
  C150     1.0000 0.98033  0.59960  0.72960  Biso   1.000  C
  Eu11     1.0000 0.22387  0.17405  0.44198  Biso   1.000  Eu
  Eu12     1.0000 0.31917  0.83160  0.53757  Biso   1.000  Eu
  O61      1.0000 0.15951  0.09959  0.42876  Biso   1.000  O
  O62      1.0000 0.22011  0.06698  0.48690  Biso   1.000  O
  O63      1.0000 0.24241  0.83877  0.53180  Biso   1.000  O
  O64      1.0000 0.18952  0.77079  0.49863  Biso   1.000  O
  O65      1.0000 0.81191  0.80929  0.45420  Biso   1.000  O
  O66      1.0000 0.76934  0.74598  0.38624  Biso   1.000  O
  O67      1.0000 0.87282  0.72292  0.12005  Biso   1.000  O
  O68      1.0000 0.80477  0.70771  0.14981  Biso   1.000  O
  O69      1.0000 0.30809  0.94750  0.52950  Biso   1.000  O
  O70      1.0000 0.35405  0.91290  0.60880  Biso   1.000  O
  O71      1.0000 0.28472  0.18708  0.52123  Biso   1.000  O
  O72      1.0000 0.33000  0.24515  0.58867  Biso   1.000  O
  C151     1.0000 0.18219  0.05621  0.45710  Biso   1.000  C
  C152     1.0000 0.16520  0.99043  0.45370  Biso   1.000  C
  C153     1.0000 0.12342  0.97760  0.42260  Biso   1.000  C
  H46      1.0000 0.10590  0.01030  0.40420  Biso   1.000  H
  C154     1.0000 0.10734  0.91548  0.41860  Biso   1.000  C
  C155     1.0000 0.13450  0.86680  0.44490  Biso   1.000  C
  H47      1.0000 0.12430  0.82550  0.44160  Biso   1.000  H
  C156     1.0000 0.17674  0.87924  0.47620  Biso   1.000  C
  C157     1.0000 0.19185  0.94066  0.48060  Biso   1.000  C
  H48      1.0000 0.21990  0.94920  0.50150  Biso   1.000  H
  C158     1.0000 0.20464  0.82600  0.50470  Biso   1.000  C
  C159     1.0000 0.06418  0.90130  0.38720  Biso   1.000  C
  C160     1.0000 0.02812  0.88460  0.36380  Biso   1.000  C
  C161     1.0000 0.98654  0.86420  0.34100  Biso   1.000  C
  C162     1.0000 0.95004  0.84370  0.32200  Biso   1.000  C
  C163     1.0000 0.90765  0.81560  0.30650  Biso   1.000  C
  C164     1.0000 0.87674  0.81340  0.35830  Biso   1.000  C
  H49      1.0000 0.88380  0.83200  0.40060  Biso   1.000  H
  C165     1.0000 0.83575  0.78310  0.34520  Biso   1.000  C
  C166     1.0000 0.82539  0.75620  0.28180  Biso   1.000  C
  H50      1.0000 0.79770  0.73730  0.27290  Biso   1.000  H
  C167     1.0000 0.85605  0.75700  0.23050  Biso   1.000  C
  C168     1.0000 0.89695  0.78700  0.24360  Biso   1.000  C
  H51      1.0000 0.91740  0.78800  0.20990  Biso   1.000  H
  C169     1.0000 0.80308  0.77948  0.39900  Biso   1.000  C
  C170     1.0000 0.84405  0.72730  0.16320  Biso   1.000  C
  C171     1.0000 0.33747  0.95750  0.57540  Biso   1.000  C
  C172     1.0000 0.35181  0.02280  0.59380  Biso   1.000  C
  C173     1.0000 0.32780  0.07530  0.56980  Biso   1.000  C
  H52      1.0000 0.30150  0.07030  0.54240  Biso   1.000  H
  C174     1.0000 0.34326  0.13557  0.58690  Biso   1.000  C
  C175     1.0000 0.38256  0.14356  0.62770  Biso   1.000  C
  H53      1.0000 0.39280  0.18380  0.63900  Biso   1.000  H
  C176     1.0000 0.40655  0.09080  0.65140  Biso   1.000  C
  C177     1.0000 0.39080  0.02990  0.63520  Biso   1.000  C
  H54      1.0000 0.40640  0.99470  0.65210  Biso   1.000  H
  C178     1.0000 0.31777  0.19340  0.56340  Biso   1.000  C
  C179     1.0000 0.44670  0.09730  0.69580  Biso   1.000  C
  C180     1.0000 0.48033  0.09960  0.72960  Biso   1.000  C
  Eu13     1.0000 0.27613  0.67405  0.05802  Biso   1.000  Eu
  Eu14     1.0000 0.18083  0.33160  0.96243  Biso   1.000  Eu
  O73      1.0000 0.34049  0.59959  0.07124  Biso   1.000  O
  O74      1.0000 0.27989  0.56698  0.01310  Biso   1.000  O
  O75      1.0000 0.25759  0.33877  0.96820  Biso   1.000  O
  O76      1.0000 0.31048  0.27079  0.00137  Biso   1.000  O
  O77      1.0000 0.68809  0.30929  0.04580  Biso   1.000  O
  O78      1.0000 0.73066  0.24598  0.11376  Biso   1.000  O
  O79      1.0000 0.62718  0.22292  0.37995  Biso   1.000  O
  O80      1.0000 0.69523  0.20771  0.35019  Biso   1.000  O
  O81      1.0000 0.19191  0.44750  0.97050  Biso   1.000  O
  O82      1.0000 0.14595  0.41290  0.89120  Biso   1.000  O
  O83      1.0000 0.21528  0.68708  0.97877  Biso   1.000  O
  O84      1.0000 0.17000  0.74515  0.91133  Biso   1.000  O
  C181     1.0000 0.31781  0.55621  0.04290  Biso   1.000  C
  C182     1.0000 0.33480  0.49043  0.04630  Biso   1.000  C
  C183     1.0000 0.37658  0.47760  0.07740  Biso   1.000  C
  H55      1.0000 0.39410  0.51030  0.09580  Biso   1.000  H
  C184     1.0000 0.39266  0.41548  0.08140  Biso   1.000  C
  C185     1.0000 0.36550  0.36680  0.05510  Biso   1.000  C
  H56      1.0000 0.37570  0.32550  0.05840  Biso   1.000  H
  C186     1.0000 0.32326  0.37924  0.02380  Biso   1.000  C
  C187     1.0000 0.30815  0.44066  0.01940  Biso   1.000  C
  H57      1.0000 0.28010  0.44920  0.99850  Biso   1.000  H
  C188     1.0000 0.29536  0.32600  0.99530  Biso   1.000  C
  C189     1.0000 0.43582  0.40130  0.11280  Biso   1.000  C
  C190     1.0000 0.47188  0.38460  0.13620  Biso   1.000  C
  C191     1.0000 0.51346  0.36420  0.15900  Biso   1.000  C
  C192     1.0000 0.54996  0.34370  0.17800  Biso   1.000  C
  C193     1.0000 0.59235  0.31560  0.19350  Biso   1.000  C
  C194     1.0000 0.62326  0.31340  0.14170  Biso   1.000  C
  H58      1.0000 0.61620  0.33200  0.09940  Biso   1.000  H
  C195     1.0000 0.66425  0.28310  0.15480  Biso   1.000  C
  C196     1.0000 0.67461  0.25620  0.21820  Biso   1.000  C
  H59      1.0000 0.70230  0.23730  0.22710  Biso   1.000  H
  C197     1.0000 0.64395  0.25700  0.26950  Biso   1.000  C
  C198     1.0000 0.60305  0.28700  0.25640  Biso   1.000  C
  H60      1.0000 0.58260  0.28800  0.29010  Biso   1.000  H
  C199     1.0000 0.69692  0.27948  0.10100  Biso   1.000  C
  C200     1.0000 0.65595  0.22730  0.33680  Biso   1.000  C
  C201     1.0000 0.16253  0.45750  0.92460  Biso   1.000  C
  C202     1.0000 0.14819  0.52280  0.90620  Biso   1.000  C
  C203     1.0000 0.17220  0.57530  0.93020  Biso   1.000  C
  H61      1.0000 0.19850  0.57030  0.95760  Biso   1.000  H
  C204     1.0000 0.15674  0.63557  0.91310  Biso   1.000  C
  C205     1.0000 0.11744  0.64356  0.87230  Biso   1.000  C
  H62      1.0000 0.10720  0.68380  0.86100  Biso   1.000  H
  C206     1.0000 0.09345  0.59080  0.84860  Biso   1.000  C
  C207     1.0000 0.10920  0.52990  0.86480  Biso   1.000  C
  H63      1.0000 0.09360  0.49470  0.84790  Biso   1.000  H
  C208     1.0000 0.18223  0.69340  0.93660  Biso   1.000  C
  C209     1.0000 0.05330  0.59730  0.80420  Biso   1.000  C
  C210     1.0000 0.01967  0.59960  0.77040  Biso   1.000  C
  Eu15     1.0000 0.77613  0.17405  0.05802  Biso   1.000  Eu
  Eu16     1.0000 0.68083  0.83160  0.96243  Biso   1.000  Eu
  O85      1.0000 0.84049  0.09959  0.07124  Biso   1.000  O
  O86      1.0000 0.77989  0.06698  0.01310  Biso   1.000  O
  O87      1.0000 0.75759  0.83877  0.96820  Biso   1.000  O
  O88      1.0000 0.81048  0.77079  0.00137  Biso   1.000  O
  O89      1.0000 0.18809  0.80929  0.04580  Biso   1.000  O
  O90      1.0000 0.23066  0.74598  0.11376  Biso   1.000  O
  O91      1.0000 0.12718  0.72292  0.37995  Biso   1.000  O
  O92      1.0000 0.19523  0.70771  0.35019  Biso   1.000  O
  O93      1.0000 0.69191  0.94750  0.97050  Biso   1.000  O
  O94      1.0000 0.64595  0.91290  0.89120  Biso   1.000  O
  O95      1.0000 0.71528  0.18708  0.97877  Biso   1.000  O
  O96      1.0000 0.67000  0.24515  0.91133  Biso   1.000  O
  C211     1.0000 0.81781  0.05621  0.04290  Biso   1.000  C
  C212     1.0000 0.83480  0.99043  0.04630  Biso   1.000  C
  C213     1.0000 0.87658  0.97760  0.07740  Biso   1.000  C
  H64      1.0000 0.89410  0.01030  0.09580  Biso   1.000  H
  C214     1.0000 0.89266  0.91548  0.08140  Biso   1.000  C
  C215     1.0000 0.86550  0.86680  0.05510  Biso   1.000  C
  H65      1.0000 0.87570  0.82550  0.05840  Biso   1.000  H
  C216     1.0000 0.82326  0.87924  0.02380  Biso   1.000  C
  C217     1.0000 0.80815  0.94066  0.01940  Biso   1.000  C
  H66      1.0000 0.78010  0.94920  0.99850  Biso   1.000  H
  C218     1.0000 0.79536  0.82600  0.99530  Biso   1.000  C
  C219     1.0000 0.93582  0.90130  0.11280  Biso   1.000  C
  C220     1.0000 0.97188  0.88460  0.13620  Biso   1.000  C
  C221     1.0000 0.01346  0.86420  0.15900  Biso   1.000  C
  C222     1.0000 0.04996  0.84370  0.17800  Biso   1.000  C
  C223     1.0000 0.09235  0.81560  0.19350  Biso   1.000  C
  C224     1.0000 0.12326  0.81340  0.14170  Biso   1.000  C
  H67      1.0000 0.11620  0.83200  0.09940  Biso   1.000  H
  C225     1.0000 0.16425  0.78310  0.15480  Biso   1.000  C
  C226     1.0000 0.17461  0.75620  0.21820  Biso   1.000  C
  H68      1.0000 0.20230  0.73730  0.22710  Biso   1.000  H
  C227     1.0000 0.14395  0.75700  0.26950  Biso   1.000  C
  C228     1.0000 0.10305  0.78700  0.25640  Biso   1.000  C
  H69      1.0000 0.08260  0.78800  0.29010  Biso   1.000  H
  C229     1.0000 0.19692  0.77948  0.10100  Biso   1.000  C
  C230     1.0000 0.15595  0.72730  0.33680  Biso   1.000  C
  C231     1.0000 0.66253  0.95750  0.92460  Biso   1.000  C
  C232     1.0000 0.64819  0.02280  0.90620  Biso   1.000  C
  C233     1.0000 0.67220  0.07530  0.93020  Biso   1.000  C
  H70      1.0000 0.69850  0.07030  0.95760  Biso   1.000  H
  C234     1.0000 0.65674  0.13557  0.91310  Biso   1.000  C
  C235     1.0000 0.61744  0.14356  0.87230  Biso   1.000  C
  H71      1.0000 0.60720  0.18380  0.86100  Biso   1.000  H
  C236     1.0000 0.59345  0.09080  0.84860  Biso   1.000  C
  C237     1.0000 0.60920  0.02990  0.86480  Biso   1.000  C
  H72      1.0000 0.59360  0.99470  0.84790  Biso   1.000  H
  C238     1.0000 0.68223  0.19340  0.93660  Biso   1.000  C
  C239     1.0000 0.55330  0.09730  0.80420  Biso   1.000  C
  C240     1.0000 0.51967  0.09960  0.77040  Biso   1.000  C
