data_image0
_cell_length_a       29.9258
_cell_length_b       21.0418
_cell_length_c       19.4326
_cell_angle_alpha    90
_cell_angle_beta     94
_cell_angle_gamma    90

_symmetry_space_group_name_H-M    "P 1"
_symmetry_int_tables_number       1

loop_
  _symmetry_equiv_pos_as_xyz
  'x, y, z'

loop_
  _atom_site_label
  _atom_site_occupancy
  _atom_site_fract_x
  _atom_site_fract_y
  _atom_site_fract_z
  _atom_site_thermal_displace_type
  _atom_site_B_iso_or_equiv
  _atom_site_type_symbol
  Er1      1.0000 0.27659  0.17500  0.05766  Biso   1.000  Er
  Er2      1.0000 0.18199  0.82999  0.96255  Biso   1.000  Er
  O1       1.0000 0.27910  0.06970  0.01680  Biso   1.000  O
  O2       1.0000 0.33970  0.10260  0.07080  Biso   1.000  O
  O3       1.0000 0.25820  0.84000  0.96620  Biso   1.000  O
  O4       1.0000 0.30910  0.77170  0.00230  Biso   1.000  O
  O5       1.0000 0.62853  0.72300  0.38160  Biso   1.000  O
  O6       1.0000 0.69703  0.70960  0.35180  Biso   1.000  O
  O7       1.0000 0.68897  0.80750  0.04490  Biso   1.000  O
  O8       1.0000 0.73144  0.74320  0.11160  Biso   1.000  O
  O9       1.0000 0.14720  0.90890  0.89150  Biso   1.000  O
  O10      1.0000 0.19080  0.94390  0.97380  Biso   1.000  O
  O11      1.0000 0.21660  0.18450  0.98070  Biso   1.000  O
  O12      1.0000 0.17170  0.24420  0.91220  Biso   1.000  O
  C1       1.0000 0.31720  0.05850  0.04310  Biso   1.000  C
  C2       1.0000 0.33370  0.99150  0.04660  Biso   1.000  C
  C3       1.0000 0.37660  0.97810  0.07740  Biso   1.000  C
  H1       1.0000 0.39440  0.01110  0.09580  Biso   1.000  H
  C4       1.0000 0.39260  0.91690  0.08080  Biso   1.000  C
  C5       1.0000 0.36480  0.86710  0.05300  Biso   1.000  C
  H2       1.0000 0.37530  0.82550  0.05470  Biso   1.000  H
  C6       1.0000 0.32310  0.87970  0.02390  Biso   1.000  C
  C7       1.0000 0.30780  0.94160  0.01830  Biso   1.000  C
  H3       1.0000 0.28000  0.95000  0.99560  Biso   1.000  H
  C8       1.0000 0.29460  0.82600  0.99500  Biso   1.000  C
  C9       1.0000 0.43600  0.90170  0.11130  Biso   1.000  C
  C10      1.0000 0.47290  0.88580  0.13310  Biso   1.000  C
  C11      1.0000 0.51410  0.86520  0.15860  Biso   1.000  C
  C12      1.0000 0.55010  0.84410  0.17680  Biso   1.000  C
  C13      1.0000 0.59350  0.81460  0.19230  Biso   1.000  C
  C14      1.0000 0.60450  0.78840  0.25740  Biso   1.000  C
  H4       1.0000 0.58470  0.79130  0.29210  Biso   1.000  H
  C15      1.0000 0.64560  0.75800  0.26930  Biso   1.000  C
  C16      1.0000 0.67490  0.75510  0.21820  Biso   1.000  C
  H5       1.0000 0.70160  0.73290  0.22680  Biso   1.000  H
  C17      1.0000 0.66640  0.78430  0.15300  Biso   1.000  C
  C18      1.0000 0.62320  0.81290  0.14180  Biso   1.000  C
  H6       1.0000 0.61500  0.83080  0.09900  Biso   1.000  H
  C19      1.0000 0.65790  0.72850  0.33840  Biso   1.000  C
  C20      1.0000 0.69840  0.77880  0.10020  Biso   1.000  C
  C21      1.0000 0.16310  0.95440  0.92530  Biso   1.000  C
  C22      1.0000 0.14740  0.01940  0.90720  Biso   1.000  C
  C23      1.0000 0.17250  0.07290  0.93130  Biso   1.000  C
  H7       1.0000 0.19890  0.06740  0.95890  Biso   1.000  H
  C24      1.0000 0.15750  0.13410  0.91330  Biso   1.000  C
  C25      1.0000 0.11870  0.14310  0.87260  Biso   1.000  C
  H8       1.0000 0.10900  0.18390  0.86090  Biso   1.000  H
  C26      1.0000 0.09380  0.08990  0.84860  Biso   1.000  C
  C27      1.0000 0.10980  0.02650  0.86620  Biso   1.000  C
  H9       1.0000 0.09410  0.99100  0.84920  Biso   1.000  H
  C28      1.0000 0.18400  0.19160  0.93740  Biso   1.000  C
  C29      1.0000 0.05380  0.09580  0.80320  Biso   1.000  C
  C30      1.0000 0.01980  0.09800  0.77210  Biso   1.000  C
  Er3      1.0000 0.77659  0.67500  0.05766  Biso   1.000  Er
  Er4      1.0000 0.68199  0.32999  0.96255  Biso   1.000  Er
  O13      1.0000 0.77910  0.56970  0.01680  Biso   1.000  O
  O14      1.0000 0.83970  0.60260  0.07080  Biso   1.000  O
  O15      1.0000 0.75820  0.34000  0.96620  Biso   1.000  O
  O16      1.0000 0.80910  0.27170  0.00230  Biso   1.000  O
  O17      1.0000 0.12853  0.22300  0.38160  Biso   1.000  O
  O18      1.0000 0.19703  0.20960  0.35180  Biso   1.000  O
  O19      1.0000 0.18897  0.30750  0.04490  Biso   1.000  O
  O20      1.0000 0.23144  0.24320  0.11160  Biso   1.000  O
  O21      1.0000 0.64720  0.40890  0.89150  Biso   1.000  O
  O22      1.0000 0.69080  0.44390  0.97380  Biso   1.000  O
  O23      1.0000 0.71660  0.68450  0.98070  Biso   1.000  O
  O24      1.0000 0.67170  0.74420  0.91220  Biso   1.000  O
  C31      1.0000 0.81720  0.55850  0.04310  Biso   1.000  C
  C32      1.0000 0.83370  0.49150  0.04660  Biso   1.000  C
  C33      1.0000 0.87660  0.47810  0.07740  Biso   1.000  C
  H10      1.0000 0.89440  0.51110  0.09580  Biso   1.000  H
  C34      1.0000 0.89260  0.41690  0.08080  Biso   1.000  C
  C35      1.0000 0.86480  0.36710  0.05300  Biso   1.000  C
  H11      1.0000 0.87530  0.32550  0.05470  Biso   1.000  H
  C36      1.0000 0.82310  0.37970  0.02390  Biso   1.000  C
  C37      1.0000 0.80780  0.44160  0.01830  Biso   1.000  C
  H12      1.0000 0.78000  0.45000  0.99560  Biso   1.000  H
  C38      1.0000 0.79460  0.32600  0.99500  Biso   1.000  C
  C39      1.0000 0.93600  0.40170  0.11130  Biso   1.000  C
  C40      1.0000 0.97290  0.38580  0.13310  Biso   1.000  C
  C41      1.0000 0.01410  0.36520  0.15860  Biso   1.000  C
  C42      1.0000 0.05010  0.34410  0.17680  Biso   1.000  C
  C43      1.0000 0.09350  0.31460  0.19230  Biso   1.000  C
  C44      1.0000 0.10450  0.28840  0.25740  Biso   1.000  C
  H13      1.0000 0.08470  0.29130  0.29210  Biso   1.000  H
  C45      1.0000 0.14560  0.25800  0.26930  Biso   1.000  C
  C46      1.0000 0.17490  0.25510  0.21820  Biso   1.000  C
  H14      1.0000 0.20160  0.23290  0.22680  Biso   1.000  H
  C47      1.0000 0.16640  0.28430  0.15300  Biso   1.000  C
  C48      1.0000 0.12320  0.31290  0.14180  Biso   1.000  C
  H15      1.0000 0.11500  0.33080  0.09900  Biso   1.000  H
  C49      1.0000 0.15790  0.22850  0.33840  Biso   1.000  C
  C50      1.0000 0.19840  0.27880  0.10020  Biso   1.000  C
  C51      1.0000 0.66310  0.45440  0.92530  Biso   1.000  C
  C52      1.0000 0.64740  0.51940  0.90720  Biso   1.000  C
  C53      1.0000 0.67250  0.57290  0.93130  Biso   1.000  C
  H16      1.0000 0.69890  0.56740  0.95890  Biso   1.000  H
  C54      1.0000 0.65750  0.63410  0.91330  Biso   1.000  C
  C55      1.0000 0.61870  0.64310  0.87260  Biso   1.000  C
  H17      1.0000 0.60900  0.68390  0.86090  Biso   1.000  H
  C56      1.0000 0.59380  0.58990  0.84860  Biso   1.000  C
  C57      1.0000 0.60980  0.52650  0.86620  Biso   1.000  C
  H18      1.0000 0.59410  0.49100  0.84920  Biso   1.000  H
  C58      1.0000 0.68400  0.69160  0.93740  Biso   1.000  C
  C59      1.0000 0.55380  0.59580  0.80320  Biso   1.000  C
  C60      1.0000 0.51980  0.59800  0.77210  Biso   1.000  C
  Er5      1.0000 0.72341  0.17500  0.44234  Biso   1.000  Er
  Er6      1.0000 0.81801  0.82999  0.53745  Biso   1.000  Er
  O25      1.0000 0.72090  0.06970  0.48320  Biso   1.000  O
  O26      1.0000 0.66030  0.10260  0.42920  Biso   1.000  O
  O27      1.0000 0.74180  0.84000  0.53380  Biso   1.000  O
  O28      1.0000 0.69090  0.77170  0.49770  Biso   1.000  O
  O29      1.0000 0.37147  0.72300  0.11840  Biso   1.000  O
  O30      1.0000 0.30297  0.70960  0.14820  Biso   1.000  O
  O31      1.0000 0.31103  0.80750  0.45510  Biso   1.000  O
  O32      1.0000 0.26856  0.74320  0.38840  Biso   1.000  O
  O33      1.0000 0.85280  0.90890  0.60850  Biso   1.000  O
  O34      1.0000 0.80920  0.94390  0.52620  Biso   1.000  O
  O35      1.0000 0.78340  0.18450  0.51930  Biso   1.000  O
  O36      1.0000 0.82830  0.24420  0.58780  Biso   1.000  O
  C61      1.0000 0.68280  0.05850  0.45690  Biso   1.000  C
  C62      1.0000 0.66630  0.99150  0.45340  Biso   1.000  C
  C63      1.0000 0.62340  0.97810  0.42260  Biso   1.000  C
  H19      1.0000 0.60560  0.01110  0.40420  Biso   1.000  H
  C64      1.0000 0.60740  0.91690  0.41920  Biso   1.000  C
  C65      1.0000 0.63520  0.86710  0.44700  Biso   1.000  C
  H20      1.0000 0.62470  0.82550  0.44530  Biso   1.000  H
  C66      1.0000 0.67690  0.87970  0.47610  Biso   1.000  C
  C67      1.0000 0.69220  0.94160  0.48170  Biso   1.000  C
  H21      1.0000 0.72000  0.95000  0.50440  Biso   1.000  H
  C68      1.0000 0.70540  0.82600  0.50500  Biso   1.000  C
  C69      1.0000 0.56400  0.90170  0.38870  Biso   1.000  C
  C70      1.0000 0.52710  0.88580  0.36690  Biso   1.000  C
  C71      1.0000 0.48590  0.86520  0.34140  Biso   1.000  C
  C72      1.0000 0.44990  0.84410  0.32320  Biso   1.000  C
  C73      1.0000 0.40650  0.81460  0.30770  Biso   1.000  C
  C74      1.0000 0.39550  0.78840  0.24260  Biso   1.000  C
  H22      1.0000 0.41530  0.79130  0.20790  Biso   1.000  H
  C75      1.0000 0.35440  0.75800  0.23070  Biso   1.000  C
  C76      1.0000 0.32510  0.75510  0.28180  Biso   1.000  C
  H23      1.0000 0.29840  0.73290  0.27320  Biso   1.000  H
  C77      1.0000 0.33360  0.78430  0.34700  Biso   1.000  C
  C78      1.0000 0.37680  0.81290  0.35820  Biso   1.000  C
  H24      1.0000 0.38500  0.83080  0.40100  Biso   1.000  H
  C79      1.0000 0.34210  0.72850  0.16160  Biso   1.000  C
  C80      1.0000 0.30160  0.77880  0.39980  Biso   1.000  C
  C81      1.0000 0.83690  0.95440  0.57470  Biso   1.000  C
  C82      1.0000 0.85260  0.01940  0.59280  Biso   1.000  C
  C83      1.0000 0.82750  0.07290  0.56870  Biso   1.000  C
  H25      1.0000 0.80110  0.06740  0.54110  Biso   1.000  H
  C84      1.0000 0.84250  0.13410  0.58670  Biso   1.000  C
  C85      1.0000 0.88130  0.14310  0.62740  Biso   1.000  C
  H26      1.0000 0.89100  0.18390  0.63910  Biso   1.000  H
  C86      1.0000 0.90620  0.08990  0.65140  Biso   1.000  C
  C87      1.0000 0.89020  0.02650  0.63380  Biso   1.000  C
  H27      1.0000 0.90590  0.99100  0.65080  Biso   1.000  H
  C88      1.0000 0.81600  0.19160  0.56260  Biso   1.000  C
  C89      1.0000 0.94620  0.09580  0.69680  Biso   1.000  C
  C90      1.0000 0.98020  0.09800  0.72790  Biso   1.000  C
  Er7      1.0000 0.22341  0.67500  0.44234  Biso   1.000  Er
  Er8      1.0000 0.31801  0.32999  0.53745  Biso   1.000  Er
  O37      1.0000 0.22090  0.56970  0.48320  Biso   1.000  O
  O38      1.0000 0.16030  0.60260  0.42920  Biso   1.000  O
  O39      1.0000 0.24180  0.34000  0.53380  Biso   1.000  O
  O40      1.0000 0.19090  0.27170  0.49770  Biso   1.000  O
  O41      1.0000 0.87147  0.22300  0.11840  Biso   1.000  O
  O42      1.0000 0.80297  0.20960  0.14820  Biso   1.000  O
  O43      1.0000 0.81103  0.30750  0.45510  Biso   1.000  O
  O44      1.0000 0.76856  0.24320  0.38840  Biso   1.000  O
  O45      1.0000 0.35280  0.40890  0.60850  Biso   1.000  O
  O46      1.0000 0.30920  0.44390  0.52620  Biso   1.000  O
  O47      1.0000 0.28340  0.68450  0.51930  Biso   1.000  O
  O48      1.0000 0.32830  0.74420  0.58780  Biso   1.000  O
  C91      1.0000 0.18280  0.55850  0.45690  Biso   1.000  C
  C92      1.0000 0.16630  0.49150  0.45340  Biso   1.000  C
  C93      1.0000 0.12340  0.47810  0.42260  Biso   1.000  C
  H28      1.0000 0.10560  0.51110  0.40420  Biso   1.000  H
  C94      1.0000 0.10740  0.41690  0.41920  Biso   1.000  C
  C95      1.0000 0.13520  0.36710  0.44700  Biso   1.000  C
  H29      1.0000 0.12470  0.32550  0.44530  Biso   1.000  H
  C96      1.0000 0.17690  0.37970  0.47610  Biso   1.000  C
  C97      1.0000 0.19220  0.44160  0.48170  Biso   1.000  C
  H30      1.0000 0.22000  0.45000  0.50440  Biso   1.000  H
  C98      1.0000 0.20540  0.32600  0.50500  Biso   1.000  C
  C99      1.0000 0.06400  0.40170  0.38870  Biso   1.000  C
  C100     1.0000 0.02710  0.38580  0.36690  Biso   1.000  C
  C101     1.0000 0.98590  0.36520  0.34140  Biso   1.000  C
  C102     1.0000 0.94990  0.34410  0.32320  Biso   1.000  C
  C103     1.0000 0.90650  0.31460  0.30770  Biso   1.000  C
  C104     1.0000 0.89550  0.28840  0.24260  Biso   1.000  C
  H31      1.0000 0.91530  0.29130  0.20790  Biso   1.000  H
  C105     1.0000 0.85440  0.25800  0.23070  Biso   1.000  C
  C106     1.0000 0.82510  0.25510  0.28180  Biso   1.000  C
  H32      1.0000 0.79840  0.23290  0.27320  Biso   1.000  H
  C107     1.0000 0.83360  0.28430  0.34700  Biso   1.000  C
  C108     1.0000 0.87680  0.31290  0.35820  Biso   1.000  C
  H33      1.0000 0.88500  0.33080  0.40100  Biso   1.000  H
  C109     1.0000 0.84210  0.22850  0.16160  Biso   1.000  C
  C110     1.0000 0.80160  0.27880  0.39980  Biso   1.000  C
  C111     1.0000 0.33690  0.45440  0.57470  Biso   1.000  C
  C112     1.0000 0.35260  0.51940  0.59280  Biso   1.000  C
  C113     1.0000 0.32750  0.57290  0.56870  Biso   1.000  C
  H34      1.0000 0.30110  0.56740  0.54110  Biso   1.000  H
  C114     1.0000 0.34250  0.63410  0.58670  Biso   1.000  C
  C115     1.0000 0.38130  0.64310  0.62740  Biso   1.000  C
  H35      1.0000 0.39100  0.68390  0.63910  Biso   1.000  H
  C116     1.0000 0.40620  0.58990  0.65140  Biso   1.000  C
  C117     1.0000 0.39020  0.52650  0.63380  Biso   1.000  C
  H36      1.0000 0.40590  0.49100  0.65080  Biso   1.000  H
  C118     1.0000 0.31600  0.69160  0.56260  Biso   1.000  C
  C119     1.0000 0.44620  0.59580  0.69680  Biso   1.000  C
  C120     1.0000 0.48020  0.59800  0.72790  Biso   1.000  C
  Er9      1.0000 0.72341  0.82500  0.94234  Biso   1.000  Er
  Er10     1.0000 0.81801  0.17001  0.03745  Biso   1.000  Er
  O49      1.0000 0.72090  0.93030  0.98320  Biso   1.000  O
  O50      1.0000 0.66030  0.89740  0.92920  Biso   1.000  O
  O51      1.0000 0.74180  0.16000  0.03380  Biso   1.000  O
  O52      1.0000 0.69090  0.22830  0.99770  Biso   1.000  O
  O53      1.0000 0.37147  0.27700  0.61840  Biso   1.000  O
  O54      1.0000 0.30297  0.29040  0.64820  Biso   1.000  O
  O55      1.0000 0.31103  0.19250  0.95510  Biso   1.000  O
  O56      1.0000 0.26856  0.25680  0.88840  Biso   1.000  O
  O57      1.0000 0.85280  0.09110  0.10850  Biso   1.000  O
  O58      1.0000 0.80920  0.05610  0.02620  Biso   1.000  O
  O59      1.0000 0.78340  0.81550  0.01930  Biso   1.000  O
  O60      1.0000 0.82830  0.75580  0.08780  Biso   1.000  O
  C121     1.0000 0.68280  0.94150  0.95690  Biso   1.000  C
  C122     1.0000 0.66630  0.00850  0.95340  Biso   1.000  C
  C123     1.0000 0.62340  0.02190  0.92260  Biso   1.000  C
  H37      1.0000 0.60560  0.98890  0.90420  Biso   1.000  H
  C124     1.0000 0.60740  0.08310  0.91920  Biso   1.000  C
  C125     1.0000 0.63520  0.13290  0.94700  Biso   1.000  C
  H38      1.0000 0.62470  0.17450  0.94530  Biso   1.000  H
  C126     1.0000 0.67690  0.12030  0.97610  Biso   1.000  C
  C127     1.0000 0.69220  0.05840  0.98170  Biso   1.000  C
  H39      1.0000 0.72000  0.05000  0.00440  Biso   1.000  H
  C128     1.0000 0.70540  0.17400  0.00500  Biso   1.000  C
  C129     1.0000 0.56400  0.09830  0.88870  Biso   1.000  C
  C130     1.0000 0.52710  0.11420  0.86690  Biso   1.000  C
  C131     1.0000 0.48590  0.13480  0.84140  Biso   1.000  C
  C132     1.0000 0.44990  0.15590  0.82320  Biso   1.000  C
  C133     1.0000 0.40650  0.18540  0.80770  Biso   1.000  C
  C134     1.0000 0.39550  0.21160  0.74260  Biso   1.000  C
  H40      1.0000 0.41530  0.20870  0.70790  Biso   1.000  H
  C135     1.0000 0.35440  0.24200  0.73070  Biso   1.000  C
  C136     1.0000 0.32510  0.24490  0.78180  Biso   1.000  C
  H41      1.0000 0.29840  0.26710  0.77320  Biso   1.000  H
  C137     1.0000 0.33360  0.21570  0.84700  Biso   1.000  C
  C138     1.0000 0.37680  0.18710  0.85820  Biso   1.000  C
  H42      1.0000 0.38500  0.16920  0.90100  Biso   1.000  H
  C139     1.0000 0.34210  0.27150  0.66160  Biso   1.000  C
  C140     1.0000 0.30160  0.22120  0.89980  Biso   1.000  C
  C141     1.0000 0.83690  0.04560  0.07470  Biso   1.000  C
  C142     1.0000 0.85260  0.98060  0.09280  Biso   1.000  C
  C143     1.0000 0.82750  0.92710  0.06870  Biso   1.000  C
  H43      1.0000 0.80110  0.93260  0.04110  Biso   1.000  H
  C144     1.0000 0.84250  0.86590  0.08670  Biso   1.000  C
  C145     1.0000 0.88130  0.85690  0.12740  Biso   1.000  C
  H44      1.0000 0.89100  0.81610  0.13910  Biso   1.000  H
  C146     1.0000 0.90620  0.91010  0.15140  Biso   1.000  C
  C147     1.0000 0.89020  0.97350  0.13380  Biso   1.000  C
  H45      1.0000 0.90590  0.00900  0.15080  Biso   1.000  H
  C148     1.0000 0.81600  0.80840  0.06260  Biso   1.000  C
  C149     1.0000 0.94620  0.90420  0.19680  Biso   1.000  C
  C150     1.0000 0.98020  0.90200  0.22790  Biso   1.000  C
  Er11     1.0000 0.22341  0.32500  0.94234  Biso   1.000  Er
  Er12     1.0000 0.31801  0.67001  0.03745  Biso   1.000  Er
  O61      1.0000 0.22090  0.43030  0.98320  Biso   1.000  O
  O62      1.0000 0.16030  0.39740  0.92920  Biso   1.000  O
  O63      1.0000 0.24180  0.66000  0.03380  Biso   1.000  O
  O64      1.0000 0.19090  0.72830  0.99770  Biso   1.000  O
  O65      1.0000 0.87147  0.77700  0.61840  Biso   1.000  O
  O66      1.0000 0.80297  0.79040  0.64820  Biso   1.000  O
  O67      1.0000 0.81103  0.69250  0.95510  Biso   1.000  O
  O68      1.0000 0.76856  0.75680  0.88840  Biso   1.000  O
  O69      1.0000 0.35280  0.59110  0.10850  Biso   1.000  O
  O70      1.0000 0.30920  0.55610  0.02620  Biso   1.000  O
  O71      1.0000 0.28340  0.31550  0.01930  Biso   1.000  O
  O72      1.0000 0.32830  0.25580  0.08780  Biso   1.000  O
  C151     1.0000 0.18280  0.44150  0.95690  Biso   1.000  C
  C152     1.0000 0.16630  0.50850  0.95340  Biso   1.000  C
  C153     1.0000 0.12340  0.52190  0.92260  Biso   1.000  C
  H46      1.0000 0.10560  0.48890  0.90420  Biso   1.000  H
  C154     1.0000 0.10740  0.58310  0.91920  Biso   1.000  C
  C155     1.0000 0.13520  0.63290  0.94700  Biso   1.000  C
  H47      1.0000 0.12470  0.67450  0.94530  Biso   1.000  H
  C156     1.0000 0.17690  0.62030  0.97610  Biso   1.000  C
  C157     1.0000 0.19220  0.55840  0.98170  Biso   1.000  C
  H48      1.0000 0.22000  0.55000  0.00440  Biso   1.000  H
  C158     1.0000 0.20540  0.67400  0.00500  Biso   1.000  C
  C159     1.0000 0.06400  0.59830  0.88870  Biso   1.000  C
  C160     1.0000 0.02710  0.61420  0.86690  Biso   1.000  C
  C161     1.0000 0.98590  0.63480  0.84140  Biso   1.000  C
  C162     1.0000 0.94990  0.65590  0.82320  Biso   1.000  C
  C163     1.0000 0.90650  0.68540  0.80770  Biso   1.000  C
  C164     1.0000 0.89550  0.71160  0.74260  Biso   1.000  C
  H49      1.0000 0.91530  0.70870  0.70790  Biso   1.000  H
  C165     1.0000 0.85440  0.74200  0.73070  Biso   1.000  C
  C166     1.0000 0.82510  0.74490  0.78180  Biso   1.000  C
  H50      1.0000 0.79840  0.76710  0.77320  Biso   1.000  H
  C167     1.0000 0.83360  0.71570  0.84700  Biso   1.000  C
  C168     1.0000 0.87680  0.68710  0.85820  Biso   1.000  C
  H51      1.0000 0.88500  0.66920  0.90100  Biso   1.000  H
  C169     1.0000 0.84210  0.77150  0.66160  Biso   1.000  C
  C170     1.0000 0.80160  0.72120  0.89980  Biso   1.000  C
  C171     1.0000 0.33690  0.54560  0.07470  Biso   1.000  C
  C172     1.0000 0.35260  0.48060  0.09280  Biso   1.000  C
  C173     1.0000 0.32750  0.42710  0.06870  Biso   1.000  C
  H52      1.0000 0.30110  0.43260  0.04110  Biso   1.000  H
  C174     1.0000 0.34250  0.36590  0.08670  Biso   1.000  C
  C175     1.0000 0.38130  0.35690  0.12740  Biso   1.000  C
  H53      1.0000 0.39100  0.31610  0.13910  Biso   1.000  H
  C176     1.0000 0.40620  0.41010  0.15140  Biso   1.000  C
  C177     1.0000 0.39020  0.47350  0.13380  Biso   1.000  C
  H54      1.0000 0.40590  0.50900  0.15080  Biso   1.000  H
  C178     1.0000 0.31600  0.30840  0.06260  Biso   1.000  C
  C179     1.0000 0.44620  0.40420  0.19680  Biso   1.000  C
  C180     1.0000 0.48020  0.40200  0.22790  Biso   1.000  C
  Er13     1.0000 0.27659  0.82500  0.55766  Biso   1.000  Er
  Er14     1.0000 0.18199  0.17001  0.46255  Biso   1.000  Er
  O73      1.0000 0.27910  0.93030  0.51680  Biso   1.000  O
  O74      1.0000 0.33970  0.89740  0.57080  Biso   1.000  O
  O75      1.0000 0.25820  0.16000  0.46620  Biso   1.000  O
  O76      1.0000 0.30910  0.22830  0.50230  Biso   1.000  O
  O77      1.0000 0.62853  0.27700  0.88160  Biso   1.000  O
  O78      1.0000 0.69703  0.29040  0.85180  Biso   1.000  O
  O79      1.0000 0.68897  0.19250  0.54490  Biso   1.000  O
  O80      1.0000 0.73144  0.25680  0.61160  Biso   1.000  O
  O81      1.0000 0.14720  0.09110  0.39150  Biso   1.000  O
  O82      1.0000 0.19080  0.05610  0.47380  Biso   1.000  O
  O83      1.0000 0.21660  0.81550  0.48070  Biso   1.000  O
  O84      1.0000 0.17170  0.75580  0.41220  Biso   1.000  O
  C181     1.0000 0.31720  0.94150  0.54310  Biso   1.000  C
  C182     1.0000 0.33370  0.00850  0.54660  Biso   1.000  C
  C183     1.0000 0.37660  0.02190  0.57740  Biso   1.000  C
  H55      1.0000 0.39440  0.98890  0.59580  Biso   1.000  H
  C184     1.0000 0.39260  0.08310  0.58080  Biso   1.000  C
  C185     1.0000 0.36480  0.13290  0.55300  Biso   1.000  C
  H56      1.0000 0.37530  0.17450  0.55470  Biso   1.000  H
  C186     1.0000 0.32310  0.12030  0.52390  Biso   1.000  C
  C187     1.0000 0.30780  0.05840  0.51830  Biso   1.000  C
  H57      1.0000 0.28000  0.05000  0.49560  Biso   1.000  H
  C188     1.0000 0.29460  0.17400  0.49500  Biso   1.000  C
  C189     1.0000 0.43600  0.09830  0.61130  Biso   1.000  C
  C190     1.0000 0.47290  0.11420  0.63310  Biso   1.000  C
  C191     1.0000 0.51410  0.13480  0.65860  Biso   1.000  C
  C192     1.0000 0.55010  0.15590  0.67680  Biso   1.000  C
  C193     1.0000 0.59350  0.18540  0.69230  Biso   1.000  C
  C194     1.0000 0.60450  0.21160  0.75740  Biso   1.000  C
  H58      1.0000 0.58470  0.20870  0.79210  Biso   1.000  H
  C195     1.0000 0.64560  0.24200  0.76930  Biso   1.000  C
  C196     1.0000 0.67490  0.24490  0.71820  Biso   1.000  C
  H59      1.0000 0.70160  0.26710  0.72680  Biso   1.000  H
  C197     1.0000 0.66640  0.21570  0.65300  Biso   1.000  C
  C198     1.0000 0.62320  0.18710  0.64180  Biso   1.000  C
  H60      1.0000 0.61500  0.16920  0.59900  Biso   1.000  H
  C199     1.0000 0.65790  0.27150  0.83840  Biso   1.000  C
  C200     1.0000 0.69840  0.22120  0.60020  Biso   1.000  C
  C201     1.0000 0.16310  0.04560  0.42530  Biso   1.000  C
  C202     1.0000 0.14740  0.98060  0.40720  Biso   1.000  C
  C203     1.0000 0.17250  0.92710  0.43130  Biso   1.000  C
  H61      1.0000 0.19890  0.93260  0.45890  Biso   1.000  H
  C204     1.0000 0.15750  0.86590  0.41330  Biso   1.000  C
  C205     1.0000 0.11870  0.85690  0.37260  Biso   1.000  C
  H62      1.0000 0.10900  0.81610  0.36090  Biso   1.000  H
  C206     1.0000 0.09380  0.91010  0.34860  Biso   1.000  C
  C207     1.0000 0.10980  0.97350  0.36620  Biso   1.000  C
  H63      1.0000 0.09410  0.00900  0.34920  Biso   1.000  H
  C208     1.0000 0.18400  0.80840  0.43740  Biso   1.000  C
  C209     1.0000 0.05380  0.90420  0.30320  Biso   1.000  C
  C210     1.0000 0.01980  0.90200  0.27210  Biso   1.000  C
  Er15     1.0000 0.77659  0.32500  0.55766  Biso   1.000  Er
  Er16     1.0000 0.68199  0.67001  0.46255  Biso   1.000  Er
  O85      1.0000 0.77910  0.43030  0.51680  Biso   1.000  O
  O86      1.0000 0.83970  0.39740  0.57080  Biso   1.000  O
  O87      1.0000 0.75820  0.66000  0.46620  Biso   1.000  O
  O88      1.0000 0.80910  0.72830  0.50230  Biso   1.000  O
  O89      1.0000 0.12853  0.77700  0.88160  Biso   1.000  O
  O90      1.0000 0.19703  0.79040  0.85180  Biso   1.000  O
  O91      1.0000 0.18897  0.69250  0.54490  Biso   1.000  O
  O92      1.0000 0.23144  0.75680  0.61160  Biso   1.000  O
  O93      1.0000 0.64720  0.59110  0.39150  Biso   1.000  O
  O94      1.0000 0.69080  0.55610  0.47380  Biso   1.000  O
  O95      1.0000 0.71660  0.31550  0.48070  Biso   1.000  O
  O96      1.0000 0.67170  0.25580  0.41220  Biso   1.000  O
  C211     1.0000 0.81720  0.44150  0.54310  Biso   1.000  C
  C212     1.0000 0.83370  0.50850  0.54660  Biso   1.000  C
  C213     1.0000 0.87660  0.52190  0.57740  Biso   1.000  C
  H64      1.0000 0.89440  0.48890  0.59580  Biso   1.000  H
  C214     1.0000 0.89260  0.58310  0.58080  Biso   1.000  C
  C215     1.0000 0.86480  0.63290  0.55300  Biso   1.000  C
  H65      1.0000 0.87530  0.67450  0.55470  Biso   1.000  H
  C216     1.0000 0.82310  0.62030  0.52390  Biso   1.000  C
  C217     1.0000 0.80780  0.55840  0.51830  Biso   1.000  C
  H66      1.0000 0.78000  0.55000  0.49560  Biso   1.000  H
  C218     1.0000 0.79460  0.67400  0.49500  Biso   1.000  C
  C219     1.0000 0.93600  0.59830  0.61130  Biso   1.000  C
  C220     1.0000 0.97290  0.61420  0.63310  Biso   1.000  C
  C221     1.0000 0.01410  0.63480  0.65860  Biso   1.000  C
  C222     1.0000 0.05010  0.65590  0.67680  Biso   1.000  C
  C223     1.0000 0.09350  0.68540  0.69230  Biso   1.000  C
  C224     1.0000 0.10450  0.71160  0.75740  Biso   1.000  C
  H67      1.0000 0.08470  0.70870  0.79210  Biso   1.000  H
  C225     1.0000 0.14560  0.74200  0.76930  Biso   1.000  C
  C226     1.0000 0.17490  0.74490  0.71820  Biso   1.000  C
  H68      1.0000 0.20160  0.76710  0.72680  Biso   1.000  H
  C227     1.0000 0.16640  0.71570  0.65300  Biso   1.000  C
  C228     1.0000 0.12320  0.68710  0.64180  Biso   1.000  C
  H69      1.0000 0.11500  0.66920  0.59900  Biso   1.000  H
  C229     1.0000 0.15790  0.77150  0.83840  Biso   1.000  C
  C230     1.0000 0.19840  0.72120  0.60020  Biso   1.000  C
  C231     1.0000 0.66310  0.54560  0.42530  Biso   1.000  C
  C232     1.0000 0.64740  0.48060  0.40720  Biso   1.000  C
  C233     1.0000 0.67250  0.42710  0.43130  Biso   1.000  C
  H70      1.0000 0.69890  0.43260  0.45890  Biso   1.000  H
  C234     1.0000 0.65750  0.36590  0.41330  Biso   1.000  C
  C235     1.0000 0.61870  0.35690  0.37260  Biso   1.000  C
  H71      1.0000 0.60900  0.31610  0.36090  Biso   1.000  H
  C236     1.0000 0.59380  0.41010  0.34860  Biso   1.000  C
  C237     1.0000 0.60980  0.47350  0.36620  Biso   1.000  C
  H72      1.0000 0.59410  0.50900  0.34920  Biso   1.000  H
  C238     1.0000 0.68400  0.30840  0.43740  Biso   1.000  C
  C239     1.0000 0.55380  0.40420  0.30320  Biso   1.000  C
  C240     1.0000 0.51980  0.40200  0.27210  Biso   1.000  C
