data_image0
_cell_length_a       7.663
_cell_length_b       10.104
_cell_length_c       17.426
_cell_angle_alpha    90
_cell_angle_beta     90
_cell_angle_gamma    90

_symmetry_space_group_name_H-M    "P 1"
_symmetry_int_tables_number       1

loop_
  _symmetry_equiv_pos_as_xyz
  'x, y, z'

loop_
  _atom_site_label
  _atom_site_occupancy
  _atom_site_fract_x
  _atom_site_fract_y
  _atom_site_fract_z
  _atom_site_thermal_displace_type
  _atom_site_B_iso_or_equiv
  _atom_site_type_symbol
  N1       1.0000 0.15000  0.40290  0.79243  Biso   1.000  N
  N2       1.0000 0.32580  0.40170  0.80764  Biso   1.000  N
  N3       1.0000 0.21230  0.58360  0.85905  Biso   1.000  N
  C1       1.0000 0.08940  0.51170  0.82387  Biso   1.000  C
  H1       1.0000 0.97250  0.53640  0.82190  Biso   1.000  H
  C2       1.0000 0.35760  0.51110  0.84677  Biso   1.000  C
  H2       1.0000 0.46790  0.53550  0.86400  Biso   1.000  H
  N4       1.0000 0.35000  0.59710  0.29243  Biso   1.000  N
  N5       1.0000 0.17420  0.59830  0.30764  Biso   1.000  N
  N6       1.0000 0.28770  0.41640  0.35905  Biso   1.000  N
  C3       1.0000 0.41060  0.48830  0.32387  Biso   1.000  C
  H3       1.0000 0.52750  0.46360  0.32190  Biso   1.000  H
  C4       1.0000 0.14240  0.48890  0.34677  Biso   1.000  C
  H4       1.0000 0.03210  0.46450  0.36400  Biso   1.000  H
  N7       1.0000 0.85000  0.90290  0.20757  Biso   1.000  N
  N8       1.0000 0.67420  0.90170  0.19236  Biso   1.000  N
  N9       1.0000 0.78770  0.08360  0.14095  Biso   1.000  N
  C5       1.0000 0.91060  0.01170  0.17613  Biso   1.000  C
  H5       1.0000 0.02750  0.03640  0.17810  Biso   1.000  H
  C6       1.0000 0.64240  0.01110  0.15323  Biso   1.000  C
  H6       1.0000 0.53210  0.03550  0.13600  Biso   1.000  H
  N10      1.0000 0.65000  0.09710  0.70757  Biso   1.000  N
  N11      1.0000 0.82580  0.09830  0.69236  Biso   1.000  N
  N12      1.0000 0.71230  0.91640  0.64095  Biso   1.000  N
  C7       1.0000 0.58940  0.98830  0.67613  Biso   1.000  C
  H7       1.0000 0.47250  0.96360  0.67810  Biso   1.000  H
  C8       1.0000 0.85760  0.98890  0.65323  Biso   1.000  C
  H8       1.0000 0.96790  0.96450  0.63600  Biso   1.000  H
  N13      1.0000 0.85000  0.59710  0.20757  Biso   1.000  N
  N14      1.0000 0.67420  0.59830  0.19236  Biso   1.000  N
  N15      1.0000 0.78770  0.41640  0.14095  Biso   1.000  N
  C9       1.0000 0.91060  0.48830  0.17613  Biso   1.000  C
  H9       1.0000 0.02750  0.46360  0.17810  Biso   1.000  H
  C10      1.0000 0.64240  0.48890  0.15323  Biso   1.000  C
  H10      1.0000 0.53210  0.46450  0.13600  Biso   1.000  H
  N16      1.0000 0.65000  0.40290  0.70757  Biso   1.000  N
  N17      1.0000 0.82580  0.40170  0.69236  Biso   1.000  N
  N18      1.0000 0.71230  0.58360  0.64095  Biso   1.000  N
  C11      1.0000 0.58940  0.51170  0.67613  Biso   1.000  C
  H11      1.0000 0.47250  0.53640  0.67810  Biso   1.000  H
  C12      1.0000 0.85760  0.51110  0.65323  Biso   1.000  C
  H12      1.0000 0.96790  0.53550  0.63600  Biso   1.000  H
  N19      1.0000 0.15000  0.09710  0.79243  Biso   1.000  N
  N20      1.0000 0.32580  0.09830  0.80764  Biso   1.000  N
  N21      1.0000 0.21230  0.91640  0.85905  Biso   1.000  N
  C13      1.0000 0.08940  0.98830  0.82387  Biso   1.000  C
  H13      1.0000 0.97250  0.96360  0.82190  Biso   1.000  H
  C14      1.0000 0.35760  0.98890  0.84677  Biso   1.000  C
  H14      1.0000 0.46790  0.96450  0.86400  Biso   1.000  H
  N22      1.0000 0.35000  0.90290  0.29243  Biso   1.000  N
  N23      1.0000 0.17420  0.90170  0.30764  Biso   1.000  N
  N24      1.0000 0.28770  0.08360  0.35905  Biso   1.000  N
  C15      1.0000 0.41060  0.01170  0.32387  Biso   1.000  C
  H15      1.0000 0.52750  0.03640  0.32190  Biso   1.000  H
  C16      1.0000 0.14240  0.01110  0.34677  Biso   1.000  C
  H16      1.0000 0.03210  0.03550  0.36400  Biso   1.000  H
  Zn1      1.0000 0.15692  0.75000  0.91555  Biso   1.000  Zn
  Zn2      1.0000 0.00750  0.75000  0.26119  Biso   1.000  Zn
  N25      1.0000 0.33900  0.75000  0.14161  Biso   1.000  N
  N26      1.0000 0.16210  0.75000  0.15229  Biso   1.000  N
  N27      1.0000 0.21300  0.75000  0.02704  Biso   1.000  N
  C17      1.0000 0.36330  0.75000  0.06680  Biso   1.000  C
  H17      1.0000 0.47290  0.75000  0.04390  Biso   1.000  H
  C18      1.0000 0.09310  0.75000  0.08320  Biso   1.000  C
  H18      1.0000 0.97340  0.75000  0.07420  Biso   1.000  H
  Zn3      1.0000 0.34308  0.25000  0.41555  Biso   1.000  Zn
  Zn4      1.0000 0.49250  0.25000  0.76119  Biso   1.000  Zn
  N28      1.0000 0.16100  0.25000  0.64161  Biso   1.000  N
  N29      1.0000 0.33790  0.25000  0.65229  Biso   1.000  N
  N30      1.0000 0.28700  0.25000  0.52704  Biso   1.000  N
  C19      1.0000 0.13670  0.25000  0.56680  Biso   1.000  C
  H19      1.0000 0.02710  0.25000  0.54390  Biso   1.000  H
  C20      1.0000 0.40690  0.25000  0.58320  Biso   1.000  C
  H20      1.0000 0.52660  0.25000  0.57420  Biso   1.000  H
  Zn5      1.0000 0.84308  0.25000  0.08445  Biso   1.000  Zn
  Zn6      1.0000 0.99250  0.25000  0.73881  Biso   1.000  Zn
  N31      1.0000 0.66100  0.25000  0.85839  Biso   1.000  N
  N32      1.0000 0.83790  0.25000  0.84771  Biso   1.000  N
  N33      1.0000 0.78700  0.25000  0.97296  Biso   1.000  N
  C21      1.0000 0.63670  0.25000  0.93320  Biso   1.000  C
  H21      1.0000 0.52710  0.25000  0.95610  Biso   1.000  H
  C22      1.0000 0.90690  0.25000  0.91680  Biso   1.000  C
  H22      1.0000 0.02660  0.25000  0.92580  Biso   1.000  H
  Zn7      1.0000 0.65692  0.75000  0.58445  Biso   1.000  Zn
  Zn8      1.0000 0.50750  0.75000  0.23881  Biso   1.000  Zn
  N34      1.0000 0.83900  0.75000  0.35839  Biso   1.000  N
  N35      1.0000 0.66210  0.75000  0.34771  Biso   1.000  N
  N36      1.0000 0.71300  0.75000  0.47296  Biso   1.000  N
  C23      1.0000 0.86330  0.75000  0.43320  Biso   1.000  C
  H23      1.0000 0.97290  0.75000  0.45610  Biso   1.000  H
  C24      1.0000 0.59310  0.75000  0.41680  Biso   1.000  C
  H24      1.0000 0.47340  0.75000  0.42580  Biso   1.000  H
