data_image0
_cell_length_a       16.7513
_cell_length_b       18.1923
_cell_length_c       12.0258
_cell_angle_alpha    90
_cell_angle_beta     123.87
_cell_angle_gamma    90

_symmetry_space_group_name_H-M    "P 1"
_symmetry_int_tables_number       1

loop_
  _symmetry_equiv_pos_as_xyz
  'x, y, z'

loop_
  _atom_site_label
  _atom_site_occupancy
  _atom_site_fract_x
  _atom_site_fract_y
  _atom_site_fract_z
  _atom_site_thermal_displace_type
  _atom_site_B_iso_or_equiv
  _atom_site_type_symbol
  O1       1.0000 0.09866  0.22254  0.39026  Biso   1.000  O
  O2       1.0000 0.08245  0.29668  0.17330  Biso   1.000  O
  O3       1.0000 0.08488  0.61931  0.88010  Biso   1.000  O
  O4       1.0000 0.22311  0.65451  0.06649  Biso   1.000  O
  O5       1.0000 0.23549  0.31127  0.34432  Biso   1.000  O
  N1       1.0000 0.07141  0.16102  0.42130  Biso   1.000  N
  C1       1.0000 0.06610  0.03208  0.42370  Biso   1.000  C
  C2       1.0000 0.09410  0.09610  0.39440  Biso   1.000  C
  C3       1.0000 0.15690  0.60840  0.99620  Biso   1.000  C
  C4       1.0000 0.01520  0.03412  0.48340  Biso   1.000  C
  C5       1.0000 0.16360  0.53428  0.05570  Biso   1.000  C
  C6       1.0000 0.16190  0.32974  0.23300  Biso   1.000  C
  C7       1.0000 0.16670  0.39864  0.16740  Biso   1.000  C
  C8       1.0000 0.99450  0.10312  0.51070  Biso   1.000  C
  C9       1.0000 0.23650  0.45059  0.24200  Biso   1.000  C
  C10      1.0000 0.02330  0.16578  0.48010  Biso   1.000  C
  C11      1.0000 0.23450  0.51783  0.18730  Biso   1.000  C
  C12      1.0000 0.09530  0.48121  0.98010  Biso   1.000  C
  C13      1.0000 0.09640  0.41426  0.03560  Biso   1.000  C
  H1       1.0000 0.08500  0.98670  0.40500  Biso   1.000  H
  H2       1.0000 0.12900  0.09840  0.35500  Biso   1.000  H
  H3       1.0000 0.96300  0.10800  0.55900  Biso   1.000  H
  H4       1.0000 0.05000  0.38100  0.99100  Biso   1.000  H
  H5       1.0000 0.27900  0.55500  0.24300  Biso   1.000  H
  H6       1.0000 0.28500  0.44100  0.34000  Biso   1.000  H
  H7       1.0000 0.04200  0.49600  0.88600  Biso   1.000  H
  H8       1.0000 0.00900  0.21800  0.49400  Biso   1.000  H
  O6       1.0000 0.59866  0.72254  0.39026  Biso   1.000  O
  O7       1.0000 0.58245  0.79668  0.17330  Biso   1.000  O
  O8       1.0000 0.58488  0.11931  0.88010  Biso   1.000  O
  O9       1.0000 0.72311  0.15451  0.06649  Biso   1.000  O
  O10      1.0000 0.73549  0.81127  0.34432  Biso   1.000  O
  N2       1.0000 0.57141  0.66102  0.42130  Biso   1.000  N
  C14      1.0000 0.56610  0.53208  0.42370  Biso   1.000  C
  C15      1.0000 0.59410  0.59610  0.39440  Biso   1.000  C
  C16      1.0000 0.65690  0.10840  0.99620  Biso   1.000  C
  C17      1.0000 0.51520  0.53412  0.48340  Biso   1.000  C
  C18      1.0000 0.66360  0.03428  0.05570  Biso   1.000  C
  C19      1.0000 0.66190  0.82974  0.23300  Biso   1.000  C
  C20      1.0000 0.66670  0.89864  0.16740  Biso   1.000  C
  C21      1.0000 0.49450  0.60312  0.51070  Biso   1.000  C
  C22      1.0000 0.73650  0.95059  0.24200  Biso   1.000  C
  C23      1.0000 0.52330  0.66578  0.48010  Biso   1.000  C
  C24      1.0000 0.73450  0.01783  0.18730  Biso   1.000  C
  C25      1.0000 0.59530  0.98121  0.98010  Biso   1.000  C
  C26      1.0000 0.59640  0.91426  0.03560  Biso   1.000  C
  H9       1.0000 0.58500  0.48670  0.40500  Biso   1.000  H
  H10      1.0000 0.62900  0.59840  0.35500  Biso   1.000  H
  H11      1.0000 0.46300  0.60800  0.55900  Biso   1.000  H
  H12      1.0000 0.55000  0.88100  0.99100  Biso   1.000  H
  H13      1.0000 0.77900  0.05500  0.24300  Biso   1.000  H
  H14      1.0000 0.78500  0.94100  0.34000  Biso   1.000  H
  H15      1.0000 0.54200  0.99600  0.88600  Biso   1.000  H
  H16      1.0000 0.50900  0.71800  0.49400  Biso   1.000  H
  O11      1.0000 0.90134  0.22254  0.10974  Biso   1.000  O
  O12      1.0000 0.91755  0.29668  0.32670  Biso   1.000  O
  O13      1.0000 0.91512  0.61931  0.61990  Biso   1.000  O
  O14      1.0000 0.77689  0.65451  0.43351  Biso   1.000  O
  O15      1.0000 0.76451  0.31127  0.15568  Biso   1.000  O
  N3       1.0000 0.92859  0.16102  0.07870  Biso   1.000  N
  C27      1.0000 0.93390  0.03208  0.07630  Biso   1.000  C
  C28      1.0000 0.90590  0.09610  0.10560  Biso   1.000  C
  C29      1.0000 0.84310  0.60840  0.50380  Biso   1.000  C
  C30      1.0000 0.98480  0.03412  0.01660  Biso   1.000  C
  C31      1.0000 0.83640  0.53428  0.44430  Biso   1.000  C
  C32      1.0000 0.83810  0.32974  0.26700  Biso   1.000  C
  C33      1.0000 0.83330  0.39864  0.33260  Biso   1.000  C
  C34      1.0000 0.00550  0.10312  0.98930  Biso   1.000  C
  C35      1.0000 0.76350  0.45059  0.25800  Biso   1.000  C
  C36      1.0000 0.97670  0.16578  0.01990  Biso   1.000  C
  C37      1.0000 0.76550  0.51783  0.31270  Biso   1.000  C
  C38      1.0000 0.90470  0.48121  0.51990  Biso   1.000  C
  C39      1.0000 0.90360  0.41426  0.46440  Biso   1.000  C
  H17      1.0000 0.91500  0.98670  0.09500  Biso   1.000  H
  H18      1.0000 0.87100  0.09840  0.14500  Biso   1.000  H
  H19      1.0000 0.03700  0.10800  0.94100  Biso   1.000  H
  H20      1.0000 0.95000  0.38100  0.50900  Biso   1.000  H
  H21      1.0000 0.72100  0.55500  0.25700  Biso   1.000  H
  H22      1.0000 0.71500  0.44100  0.16000  Biso   1.000  H
  H23      1.0000 0.95800  0.49600  0.61400  Biso   1.000  H
  H24      1.0000 0.99100  0.21800  0.00600  Biso   1.000  H
  O16      1.0000 0.40134  0.72254  0.10974  Biso   1.000  O
  O17      1.0000 0.41755  0.79668  0.32670  Biso   1.000  O
  O18      1.0000 0.41512  0.11931  0.61990  Biso   1.000  O
  O19      1.0000 0.27689  0.15451  0.43351  Biso   1.000  O
  O20      1.0000 0.26451  0.81127  0.15568  Biso   1.000  O
  N4       1.0000 0.42859  0.66102  0.07870  Biso   1.000  N
  C40      1.0000 0.43390  0.53208  0.07630  Biso   1.000  C
  C41      1.0000 0.40590  0.59610  0.10560  Biso   1.000  C
  C42      1.0000 0.34310  0.10840  0.50380  Biso   1.000  C
  C43      1.0000 0.48480  0.53412  0.01660  Biso   1.000  C
  C44      1.0000 0.33640  0.03428  0.44430  Biso   1.000  C
  C45      1.0000 0.33810  0.82974  0.26700  Biso   1.000  C
  C46      1.0000 0.33330  0.89864  0.33260  Biso   1.000  C
  C47      1.0000 0.50550  0.60312  0.98930  Biso   1.000  C
  C48      1.0000 0.26350  0.95059  0.25800  Biso   1.000  C
  C49      1.0000 0.47670  0.66578  0.01990  Biso   1.000  C
  C50      1.0000 0.26550  0.01783  0.31270  Biso   1.000  C
  C51      1.0000 0.40470  0.98121  0.51990  Biso   1.000  C
  C52      1.0000 0.40360  0.91426  0.46440  Biso   1.000  C
  H25      1.0000 0.41500  0.48670  0.09500  Biso   1.000  H
  H26      1.0000 0.37100  0.59840  0.14500  Biso   1.000  H
  H27      1.0000 0.53700  0.60800  0.94100  Biso   1.000  H
  H28      1.0000 0.45000  0.88100  0.50900  Biso   1.000  H
  H29      1.0000 0.22100  0.05500  0.25700  Biso   1.000  H
  H30      1.0000 0.21500  0.94100  0.16000  Biso   1.000  H
  H31      1.0000 0.45800  0.99600  0.61400  Biso   1.000  H
  H32      1.0000 0.49100  0.71800  0.00600  Biso   1.000  H
  O21      1.0000 0.90134  0.77746  0.60974  Biso   1.000  O
  O22      1.0000 0.91755  0.70332  0.82670  Biso   1.000  O
  O23      1.0000 0.91512  0.38069  0.11990  Biso   1.000  O
  O24      1.0000 0.77689  0.34549  0.93351  Biso   1.000  O
  O25      1.0000 0.76451  0.68873  0.65568  Biso   1.000  O
  N5       1.0000 0.92859  0.83898  0.57870  Biso   1.000  N
  C53      1.0000 0.93390  0.96792  0.57630  Biso   1.000  C
  C54      1.0000 0.90590  0.90390  0.60560  Biso   1.000  C
  C55      1.0000 0.84310  0.39160  0.00380  Biso   1.000  C
  C56      1.0000 0.98480  0.96588  0.51660  Biso   1.000  C
  C57      1.0000 0.83640  0.46572  0.94430  Biso   1.000  C
  C58      1.0000 0.83810  0.67026  0.76700  Biso   1.000  C
  C59      1.0000 0.83330  0.60136  0.83260  Biso   1.000  C
  C60      1.0000 0.00550  0.89688  0.48930  Biso   1.000  C
  C61      1.0000 0.76350  0.54941  0.75800  Biso   1.000  C
  C62      1.0000 0.97670  0.83422  0.51990  Biso   1.000  C
  C63      1.0000 0.76550  0.48217  0.81270  Biso   1.000  C
  C64      1.0000 0.90470  0.51879  0.01990  Biso   1.000  C
  C65      1.0000 0.90360  0.58574  0.96440  Biso   1.000  C
  H33      1.0000 0.91500  0.01330  0.59500  Biso   1.000  H
  H34      1.0000 0.87100  0.90160  0.64500  Biso   1.000  H
  H35      1.0000 0.03700  0.89200  0.44100  Biso   1.000  H
  H36      1.0000 0.95000  0.61900  0.00900  Biso   1.000  H
  H37      1.0000 0.72100  0.44500  0.75700  Biso   1.000  H
  H38      1.0000 0.71500  0.55900  0.66000  Biso   1.000  H
  H39      1.0000 0.95800  0.50400  0.11400  Biso   1.000  H
  H40      1.0000 0.99100  0.78200  0.50600  Biso   1.000  H
  O26      1.0000 0.40134  0.27746  0.60974  Biso   1.000  O
  O27      1.0000 0.41755  0.20332  0.82670  Biso   1.000  O
  O28      1.0000 0.41512  0.88069  0.11990  Biso   1.000  O
  O29      1.0000 0.27689  0.84549  0.93351  Biso   1.000  O
  O30      1.0000 0.26451  0.18873  0.65568  Biso   1.000  O
  N6       1.0000 0.42859  0.33898  0.57870  Biso   1.000  N
  C66      1.0000 0.43390  0.46792  0.57630  Biso   1.000  C
  C67      1.0000 0.40590  0.40390  0.60560  Biso   1.000  C
  C68      1.0000 0.34310  0.89160  0.00380  Biso   1.000  C
  C69      1.0000 0.48480  0.46588  0.51660  Biso   1.000  C
  C70      1.0000 0.33640  0.96572  0.94430  Biso   1.000  C
  C71      1.0000 0.33810  0.17026  0.76700  Biso   1.000  C
  C72      1.0000 0.33330  0.10136  0.83260  Biso   1.000  C
  C73      1.0000 0.50550  0.39688  0.48930  Biso   1.000  C
  C74      1.0000 0.26350  0.04941  0.75800  Biso   1.000  C
  C75      1.0000 0.47670  0.33422  0.51990  Biso   1.000  C
  C76      1.0000 0.26550  0.98217  0.81270  Biso   1.000  C
  C77      1.0000 0.40470  0.01879  0.01990  Biso   1.000  C
  C78      1.0000 0.40360  0.08574  0.96440  Biso   1.000  C
  H41      1.0000 0.41500  0.51330  0.59500  Biso   1.000  H
  H42      1.0000 0.37100  0.40160  0.64500  Biso   1.000  H
  H43      1.0000 0.53700  0.39200  0.44100  Biso   1.000  H
  H44      1.0000 0.45000  0.11900  0.00900  Biso   1.000  H
  H45      1.0000 0.22100  0.94500  0.75700  Biso   1.000  H
  H46      1.0000 0.21500  0.05900  0.66000  Biso   1.000  H
  H47      1.0000 0.45800  0.00400  0.11400  Biso   1.000  H
  H48      1.0000 0.49100  0.28200  0.50600  Biso   1.000  H
  O31      1.0000 0.09866  0.77746  0.89026  Biso   1.000  O
  O32      1.0000 0.08245  0.70332  0.67330  Biso   1.000  O
  O33      1.0000 0.08488  0.38069  0.38010  Biso   1.000  O
  O34      1.0000 0.22311  0.34549  0.56649  Biso   1.000  O
  O35      1.0000 0.23549  0.68873  0.84432  Biso   1.000  O
  N7       1.0000 0.07141  0.83898  0.92130  Biso   1.000  N
  C79      1.0000 0.06610  0.96792  0.92370  Biso   1.000  C
  C80      1.0000 0.09410  0.90390  0.89440  Biso   1.000  C
  C81      1.0000 0.15690  0.39160  0.49620  Biso   1.000  C
  C82      1.0000 0.01520  0.96588  0.98340  Biso   1.000  C
  C83      1.0000 0.16360  0.46572  0.55570  Biso   1.000  C
  C84      1.0000 0.16190  0.67026  0.73300  Biso   1.000  C
  C85      1.0000 0.16670  0.60136  0.66740  Biso   1.000  C
  C86      1.0000 0.99450  0.89688  0.01070  Biso   1.000  C
  C87      1.0000 0.23650  0.54941  0.74200  Biso   1.000  C
  C88      1.0000 0.02330  0.83422  0.98010  Biso   1.000  C
  C89      1.0000 0.23450  0.48217  0.68730  Biso   1.000  C
  C90      1.0000 0.09530  0.51879  0.48010  Biso   1.000  C
  C91      1.0000 0.09640  0.58574  0.53560  Biso   1.000  C
  H49      1.0000 0.08500  0.01330  0.90500  Biso   1.000  H
  H50      1.0000 0.12900  0.90160  0.85500  Biso   1.000  H
  H51      1.0000 0.96300  0.89200  0.05900  Biso   1.000  H
  H52      1.0000 0.05000  0.61900  0.49100  Biso   1.000  H
  H53      1.0000 0.27900  0.44500  0.74300  Biso   1.000  H
  H54      1.0000 0.28500  0.55900  0.84000  Biso   1.000  H
  H55      1.0000 0.04200  0.50400  0.38600  Biso   1.000  H
  H56      1.0000 0.00900  0.78200  0.99400  Biso   1.000  H
  O36      1.0000 0.59866  0.27746  0.89026  Biso   1.000  O
  O37      1.0000 0.58245  0.20332  0.67330  Biso   1.000  O
  O38      1.0000 0.58488  0.88069  0.38010  Biso   1.000  O
  O39      1.0000 0.72311  0.84549  0.56649  Biso   1.000  O
  O40      1.0000 0.73549  0.18873  0.84432  Biso   1.000  O
  N8       1.0000 0.57141  0.33898  0.92130  Biso   1.000  N
  C92      1.0000 0.56610  0.46792  0.92370  Biso   1.000  C
  C93      1.0000 0.59410  0.40390  0.89440  Biso   1.000  C
  C94      1.0000 0.65690  0.89160  0.49620  Biso   1.000  C
  C95      1.0000 0.51520  0.46588  0.98340  Biso   1.000  C
  C96      1.0000 0.66360  0.96572  0.55570  Biso   1.000  C
  C97      1.0000 0.66190  0.17026  0.73300  Biso   1.000  C
  C98      1.0000 0.66670  0.10136  0.66740  Biso   1.000  C
  C99      1.0000 0.49450  0.39688  0.01070  Biso   1.000  C
  C100     1.0000 0.73650  0.04941  0.74200  Biso   1.000  C
  C101     1.0000 0.52330  0.33422  0.98010  Biso   1.000  C
  C102     1.0000 0.73450  0.98217  0.68730  Biso   1.000  C
  C103     1.0000 0.59530  0.01879  0.48010  Biso   1.000  C
  C104     1.0000 0.59640  0.08574  0.53560  Biso   1.000  C
  H57      1.0000 0.58500  0.51330  0.90500  Biso   1.000  H
  H58      1.0000 0.62900  0.40160  0.85500  Biso   1.000  H
  H59      1.0000 0.46300  0.39200  0.05900  Biso   1.000  H
  H60      1.0000 0.55000  0.11900  0.49100  Biso   1.000  H
  H61      1.0000 0.77900  0.94500  0.74300  Biso   1.000  H
  H62      1.0000 0.78500  0.05900  0.84000  Biso   1.000  H
  H63      1.0000 0.54200  0.00400  0.38600  Biso   1.000  H
  H64      1.0000 0.50900  0.28200  0.99400  Biso   1.000  H
  Mg1      1.0000 0.00000  0.30208  0.25000  Biso   1.000  Mg
  Mg2      1.0000 0.50000  0.80208  0.25000  Biso   1.000  Mg
  Mg3      1.0000 0.00000  0.69792  0.75000  Biso   1.000  Mg
  Mg4      1.0000 0.50000  0.19792  0.75000  Biso   1.000  Mg
  Mg5      1.0000 0.25000  0.25000  0.50000  Biso   1.000  Mg
  Mg6      1.0000 0.75000  0.25000  0.00000  Biso   1.000  Mg
  Mg7      1.0000 0.75000  0.75000  0.50000  Biso   1.000  Mg
  Mg8      1.0000 0.25000  0.75000  0.00000  Biso   1.000  Mg
