data_image0
_cell_length_a       14.139
_cell_length_b       20.5709
_cell_length_c       9.9284
_cell_angle_alpha    90
_cell_angle_beta     95.786
_cell_angle_gamma    90

_symmetry_space_group_name_H-M    "P 1"
_symmetry_int_tables_number       1

loop_
  _symmetry_equiv_pos_as_xyz
  'x, y, z'

loop_
  _atom_site_label
  _atom_site_occupancy
  _atom_site_fract_x
  _atom_site_fract_y
  _atom_site_fract_z
  _atom_site_thermal_displace_type
  _atom_site_B_iso_or_equiv
  _atom_site_type_symbol
  Cu1      1.0000 0.18983  0.73564  0.69532  Biso   1.000  Cu
  C1       1.0000 0.01719  0.81783  0.21930  Biso   1.000  C
  C2       1.0000 0.94050  0.85022  0.29030  Biso   1.000  C
  C3       1.0000 0.94749  0.85433  0.43020  Biso   1.000  C
  H1       1.0000 0.99840  0.83480  0.48150  Biso   1.000  H
  C4       1.0000 0.87934  0.88721  0.49440  Biso   1.000  C
  H2       1.0000 0.88400  0.88900  0.58840  Biso   1.000  H
  C5       1.0000 0.80441  0.91741  0.41900  Biso   1.000  C
  C6       1.0000 0.79395  0.91097  0.28030  Biso   1.000  C
  H3       1.0000 0.74130  0.92860  0.22940  Biso   1.000  H
  C7       1.0000 0.86265  0.87804  0.21720  Biso   1.000  C
  H4       1.0000 0.85620  0.87460  0.12330  Biso   1.000  H
  C8       1.0000 0.15440  0.87792  0.64380  Biso   1.000  C
  H5       1.0000 0.19560  0.88040  0.57660  Biso   1.000  H
  C9       1.0000 0.10150  0.92732  0.68460  Biso   1.000  C
  H6       1.0000 0.10020  0.96980  0.65240  Biso   1.000  H
  C10      1.0000 0.07530  0.84044  0.80060  Biso   1.000  C
  H7       1.0000 0.05160  0.81300  0.86360  Biso   1.000  H
  C11      1.0000 0.98390  0.93950  0.85760  Biso   1.000  C
  H8       1.0000 0.94530  0.96760  0.79590  Biso   1.000  H
  H9       1.0000 0.94180  0.90950  0.89770  Biso   1.000  H
  C12      1.0000 0.03500  0.97891  0.96460  Biso   1.000  C
  H10      1.0000 0.08060  0.00660  0.92560  Biso   1.000  H
  H11      1.0000 0.06970  0.95060  0.03040  Biso   1.000  H
  C13      1.0000 0.29389  0.63311  0.56570  Biso   1.000  C
  H12      1.0000 0.31540  0.66280  0.50500  Biso   1.000  H
  C14      1.0000 0.22451  0.59065  0.72820  Biso   1.000  C
  H13      1.0000 0.18830  0.58640  0.80080  Biso   1.000  H
  C15      1.0000 0.26998  0.54128  0.67130  Biso   1.000  C
  C16      1.0000 0.47069  0.51960  0.54570  Biso   1.000  C
  H14      1.0000 0.46370  0.49500  0.62740  Biso   1.000  H
  H15      1.0000 0.50400  0.55960  0.57170  Biso   1.000  H
  C17      1.0000 0.37356  0.53569  0.47660  Biso   1.000  C
  H16      1.0000 0.38070  0.56310  0.39870  Biso   1.000  H
  H17      1.0000 0.34240  0.49580  0.44420  Biso   1.000  H
  C18      1.0000 0.35491  0.80349  0.67050  Biso   1.000  C
  C19      1.0000 0.42157  0.84103  0.59040  Biso   1.000  C
  C20      1.0000 0.49254  0.87904  0.65560  Biso   1.000  C
  H18      1.0000 0.49970  0.88050  0.74970  Biso   1.000  H
  C21      1.0000 0.55320  0.91497  0.58400  Biso   1.000  C
  H19      1.0000 0.60080  0.94020  0.62950  Biso   1.000  H
  C22      1.0000 0.54264  0.91308  0.44460  Biso   1.000  C
  C23      1.0000 0.47194  0.87535  0.37730  Biso   1.000  C
  H20      1.0000 0.46470  0.87420  0.28320  Biso   1.000  H
  C24      1.0000 0.41237  0.83944  0.44970  Biso   1.000  C
  H21      1.0000 0.36540  0.81380  0.40400  Biso   1.000  H
  C25      1.0000 0.66995  0.98757  0.42370  Biso   1.000  C
  H22      1.0000 0.69500  0.01420  0.35490  Biso   1.000  H
  H23      1.0000 0.64240  0.01640  0.48650  Biso   1.000  H
  N1       1.0000 0.13761  0.82323  0.71750  Biso   1.000  N
  N2       1.0000 0.05042  0.90280  0.78210  Biso   1.000  N
  N3       1.0000 0.23988  0.64796  0.66260  Biso   1.000  N
  N4       1.0000 0.31338  0.56924  0.56710  Biso   1.000  N
  O1       1.0000 0.09171  0.80135  0.29597  Biso   1.000  O
  O2       1.0000 0.00676  0.80997  0.09610  Biso   1.000  O
  O3       1.0000 0.74464  0.95239  0.49341  Biso   1.000  O
  O4       1.0000 0.36471  0.80562  0.79470  Biso   1.000  O
  O5       1.0000 0.28952  0.77260  0.59900  Biso   1.000  O
  O6       1.0000 0.59850  0.94669  0.36203  Biso   1.000  O
  Cu2      1.0000 0.81016  0.23564  0.80468  Biso   1.000  Cu
  C26      1.0000 0.98281  0.31783  0.28070  Biso   1.000  C
  C27      1.0000 0.05950  0.35022  0.20970  Biso   1.000  C
  C28      1.0000 0.05251  0.35433  0.06980  Biso   1.000  C
  H24      1.0000 0.00160  0.33480  0.01850  Biso   1.000  H
  C29      1.0000 0.12066  0.38721  0.00560  Biso   1.000  C
  H25      1.0000 0.11600  0.38900  0.91160  Biso   1.000  H
  C30      1.0000 0.19559  0.41741  0.08100  Biso   1.000  C
  C31      1.0000 0.20605  0.41097  0.21970  Biso   1.000  C
  H26      1.0000 0.25870  0.42860  0.27060  Biso   1.000  H
  C32      1.0000 0.13735  0.37804  0.28280  Biso   1.000  C
  H27      1.0000 0.14380  0.37460  0.37670  Biso   1.000  H
  C33      1.0000 0.84560  0.37792  0.85620  Biso   1.000  C
  H28      1.0000 0.80440  0.38040  0.92340  Biso   1.000  H
  C34      1.0000 0.89850  0.42732  0.81540  Biso   1.000  C
  H29      1.0000 0.89980  0.46980  0.84760  Biso   1.000  H
  C35      1.0000 0.92470  0.34044  0.69940  Biso   1.000  C
  H30      1.0000 0.94840  0.31300  0.63640  Biso   1.000  H
  C36      1.0000 0.01610  0.43950  0.64240  Biso   1.000  C
  H31      1.0000 0.05470  0.46760  0.70410  Biso   1.000  H
  H32      1.0000 0.05820  0.40950  0.60230  Biso   1.000  H
  C37      1.0000 0.96500  0.47891  0.53540  Biso   1.000  C
  H33      1.0000 0.91940  0.50660  0.57440  Biso   1.000  H
  H34      1.0000 0.93030  0.45060  0.46960  Biso   1.000  H
  C38      1.0000 0.70611  0.13311  0.93430  Biso   1.000  C
  H35      1.0000 0.68460  0.16280  0.99500  Biso   1.000  H
  C39      1.0000 0.77549  0.09065  0.77180  Biso   1.000  C
  H36      1.0000 0.81170  0.08640  0.69920  Biso   1.000  H
  C40      1.0000 0.73002  0.04128  0.82870  Biso   1.000  C
  C41      1.0000 0.52931  0.01960  0.95430  Biso   1.000  C
  H37      1.0000 0.53630  0.99500  0.87260  Biso   1.000  H
  H38      1.0000 0.49600  0.05960  0.92830  Biso   1.000  H
  C42      1.0000 0.62644  0.03569  0.02340  Biso   1.000  C
  H39      1.0000 0.61930  0.06310  0.10130  Biso   1.000  H
  H40      1.0000 0.65760  0.99580  0.05580  Biso   1.000  H
  C43      1.0000 0.64509  0.30349  0.82950  Biso   1.000  C
  C44      1.0000 0.57843  0.34103  0.90960  Biso   1.000  C
  C45      1.0000 0.50746  0.37904  0.84440  Biso   1.000  C
  H41      1.0000 0.50030  0.38050  0.75030  Biso   1.000  H
  C46      1.0000 0.44680  0.41497  0.91600  Biso   1.000  C
  H42      1.0000 0.39920  0.44020  0.87050  Biso   1.000  H
  C47      1.0000 0.45736  0.41308  0.05540  Biso   1.000  C
  C48      1.0000 0.52806  0.37535  0.12270  Biso   1.000  C
  H43      1.0000 0.53530  0.37420  0.21680  Biso   1.000  H
  C49      1.0000 0.58763  0.33944  0.05030  Biso   1.000  C
  H44      1.0000 0.63460  0.31380  0.09600  Biso   1.000  H
  C50      1.0000 0.33005  0.48757  0.07630  Biso   1.000  C
  H45      1.0000 0.30500  0.51420  0.14510  Biso   1.000  H
  H46      1.0000 0.35760  0.51640  0.01350  Biso   1.000  H
  N5       1.0000 0.86239  0.32323  0.78250  Biso   1.000  N
  N6       1.0000 0.94958  0.40280  0.71790  Biso   1.000  N
  N7       1.0000 0.76012  0.14796  0.83740  Biso   1.000  N
  N8       1.0000 0.68662  0.06924  0.93290  Biso   1.000  N
  O7       1.0000 0.90829  0.30135  0.20403  Biso   1.000  O
  O8       1.0000 0.99324  0.30997  0.40390  Biso   1.000  O
  O9       1.0000 0.25536  0.45239  0.00659  Biso   1.000  O
  O10      1.0000 0.63529  0.30562  0.70530  Biso   1.000  O
  O11      1.0000 0.71048  0.27260  0.90100  Biso   1.000  O
  O12      1.0000 0.40150  0.44669  0.13797  Biso   1.000  O
  Cu3      1.0000 0.81016  0.26436  0.30468  Biso   1.000  Cu
  C51      1.0000 0.98281  0.18217  0.78070  Biso   1.000  C
  C52      1.0000 0.05950  0.14978  0.70970  Biso   1.000  C
  C53      1.0000 0.05251  0.14567  0.56980  Biso   1.000  C
  H47      1.0000 0.00160  0.16520  0.51850  Biso   1.000  H
  C54      1.0000 0.12066  0.11279  0.50560  Biso   1.000  C
  H48      1.0000 0.11600  0.11100  0.41160  Biso   1.000  H
  C55      1.0000 0.19559  0.08259  0.58100  Biso   1.000  C
  C56      1.0000 0.20605  0.08903  0.71970  Biso   1.000  C
  H49      1.0000 0.25870  0.07140  0.77060  Biso   1.000  H
  C57      1.0000 0.13735  0.12196  0.78280  Biso   1.000  C
  H50      1.0000 0.14380  0.12540  0.87670  Biso   1.000  H
  C58      1.0000 0.84560  0.12208  0.35620  Biso   1.000  C
  H51      1.0000 0.80440  0.11960  0.42340  Biso   1.000  H
  C59      1.0000 0.89850  0.07268  0.31540  Biso   1.000  C
  H52      1.0000 0.89980  0.03020  0.34760  Biso   1.000  H
  C60      1.0000 0.92470  0.15956  0.19940  Biso   1.000  C
  H53      1.0000 0.94840  0.18700  0.13640  Biso   1.000  H
  C61      1.0000 0.01610  0.06050  0.14240  Biso   1.000  C
  H54      1.0000 0.05470  0.03240  0.20410  Biso   1.000  H
  H55      1.0000 0.05820  0.09050  0.10230  Biso   1.000  H
  C62      1.0000 0.96500  0.02109  0.03540  Biso   1.000  C
  H56      1.0000 0.91940  0.99340  0.07440  Biso   1.000  H
  H57      1.0000 0.93030  0.04940  0.96960  Biso   1.000  H
  C63      1.0000 0.70611  0.36689  0.43430  Biso   1.000  C
  H58      1.0000 0.68460  0.33720  0.49500  Biso   1.000  H
  C64      1.0000 0.77549  0.40935  0.27180  Biso   1.000  C
  H59      1.0000 0.81170  0.41360  0.19920  Biso   1.000  H
  C65      1.0000 0.73002  0.45872  0.32870  Biso   1.000  C
  C66      1.0000 0.52931  0.48040  0.45430  Biso   1.000  C
  H60      1.0000 0.53630  0.50500  0.37260  Biso   1.000  H
  H61      1.0000 0.49600  0.44040  0.42830  Biso   1.000  H
  C67      1.0000 0.62644  0.46431  0.52340  Biso   1.000  C
  H62      1.0000 0.61930  0.43690  0.60130  Biso   1.000  H
  H63      1.0000 0.65760  0.50420  0.55580  Biso   1.000  H
  C68      1.0000 0.64509  0.19651  0.32950  Biso   1.000  C
  C69      1.0000 0.57843  0.15897  0.40960  Biso   1.000  C
  C70      1.0000 0.50746  0.12096  0.34440  Biso   1.000  C
  H64      1.0000 0.50030  0.11950  0.25030  Biso   1.000  H
  C71      1.0000 0.44680  0.08503  0.41600  Biso   1.000  C
  H65      1.0000 0.39920  0.05980  0.37050  Biso   1.000  H
  C72      1.0000 0.45736  0.08692  0.55540  Biso   1.000  C
  C73      1.0000 0.52806  0.12465  0.62270  Biso   1.000  C
  H66      1.0000 0.53530  0.12580  0.71680  Biso   1.000  H
  C74      1.0000 0.58763  0.16056  0.55030  Biso   1.000  C
  H67      1.0000 0.63460  0.18620  0.59600  Biso   1.000  H
  C75      1.0000 0.33005  0.01243  0.57630  Biso   1.000  C
  H68      1.0000 0.30500  0.98580  0.64510  Biso   1.000  H
  H69      1.0000 0.35760  0.98360  0.51350  Biso   1.000  H
  N9       1.0000 0.86239  0.17677  0.28250  Biso   1.000  N
  N10      1.0000 0.94958  0.09720  0.21790  Biso   1.000  N
  N11      1.0000 0.76012  0.35204  0.33740  Biso   1.000  N
  N12      1.0000 0.68662  0.43076  0.43290  Biso   1.000  N
  O13      1.0000 0.90829  0.19865  0.70403  Biso   1.000  O
  O14      1.0000 0.99324  0.19003  0.90390  Biso   1.000  O
  O15      1.0000 0.25536  0.04761  0.50659  Biso   1.000  O
  O16      1.0000 0.63529  0.19438  0.20530  Biso   1.000  O
  O17      1.0000 0.71048  0.22740  0.40100  Biso   1.000  O
  O18      1.0000 0.40150  0.05331  0.63797  Biso   1.000  O
  Cu4      1.0000 0.18983  0.76436  0.19532  Biso   1.000  Cu
  C76      1.0000 0.01719  0.68217  0.71930  Biso   1.000  C
  C77      1.0000 0.94050  0.64978  0.79030  Biso   1.000  C
  C78      1.0000 0.94749  0.64567  0.93020  Biso   1.000  C
  H70      1.0000 0.99840  0.66520  0.98150  Biso   1.000  H
  C79      1.0000 0.87934  0.61279  0.99440  Biso   1.000  C
  H71      1.0000 0.88400  0.61100  0.08840  Biso   1.000  H
  C80      1.0000 0.80441  0.58259  0.91900  Biso   1.000  C
  C81      1.0000 0.79395  0.58903  0.78030  Biso   1.000  C
  H72      1.0000 0.74130  0.57140  0.72940  Biso   1.000  H
  C82      1.0000 0.86265  0.62196  0.71720  Biso   1.000  C
  H73      1.0000 0.85620  0.62540  0.62330  Biso   1.000  H
  C83      1.0000 0.15440  0.62208  0.14380  Biso   1.000  C
  H74      1.0000 0.19560  0.61960  0.07660  Biso   1.000  H
  C84      1.0000 0.10150  0.57268  0.18460  Biso   1.000  C
  H75      1.0000 0.10020  0.53020  0.15240  Biso   1.000  H
  C85      1.0000 0.07530  0.65956  0.30060  Biso   1.000  C
  H76      1.0000 0.05160  0.68700  0.36360  Biso   1.000  H
  C86      1.0000 0.98390  0.56050  0.35760  Biso   1.000  C
  H77      1.0000 0.94530  0.53240  0.29590  Biso   1.000  H
  H78      1.0000 0.94180  0.59050  0.39770  Biso   1.000  H
  C87      1.0000 0.03500  0.52109  0.46460  Biso   1.000  C
  H79      1.0000 0.08060  0.49340  0.42560  Biso   1.000  H
  H80      1.0000 0.06970  0.54940  0.53040  Biso   1.000  H
  C88      1.0000 0.29389  0.86689  0.06570  Biso   1.000  C
  H81      1.0000 0.31540  0.83720  0.00500  Biso   1.000  H
  C89      1.0000 0.22451  0.90935  0.22820  Biso   1.000  C
  H82      1.0000 0.18830  0.91360  0.30080  Biso   1.000  H
  C90      1.0000 0.26998  0.95872  0.17130  Biso   1.000  C
  C91      1.0000 0.47069  0.98040  0.04570  Biso   1.000  C
  H83      1.0000 0.46370  0.00500  0.12740  Biso   1.000  H
  H84      1.0000 0.50400  0.94040  0.07170  Biso   1.000  H
  C92      1.0000 0.37356  0.96431  0.97660  Biso   1.000  C
  H85      1.0000 0.38070  0.93690  0.89870  Biso   1.000  H
  H86      1.0000 0.34240  0.00420  0.94420  Biso   1.000  H
  C93      1.0000 0.35491  0.69651  0.17050  Biso   1.000  C
  C94      1.0000 0.42157  0.65897  0.09040  Biso   1.000  C
  C95      1.0000 0.49254  0.62096  0.15560  Biso   1.000  C
  H87      1.0000 0.49970  0.61950  0.24970  Biso   1.000  H
  C96      1.0000 0.55320  0.58503  0.08400  Biso   1.000  C
  H88      1.0000 0.60080  0.55980  0.12950  Biso   1.000  H
  C97      1.0000 0.54264  0.58692  0.94460  Biso   1.000  C
  C98      1.0000 0.47194  0.62465  0.87730  Biso   1.000  C
  H89      1.0000 0.46470  0.62580  0.78320  Biso   1.000  H
  C99      1.0000 0.41237  0.66056  0.94970  Biso   1.000  C
  H90      1.0000 0.36540  0.68620  0.90400  Biso   1.000  H
  C100     1.0000 0.66995  0.51243  0.92370  Biso   1.000  C
  H91      1.0000 0.69500  0.48580  0.85490  Biso   1.000  H
  H92      1.0000 0.64240  0.48360  0.98650  Biso   1.000  H
  N13      1.0000 0.13761  0.67677  0.21750  Biso   1.000  N
  N14      1.0000 0.05042  0.59720  0.28210  Biso   1.000  N
  N15      1.0000 0.23988  0.85204  0.16260  Biso   1.000  N
  N16      1.0000 0.31338  0.93076  0.06710  Biso   1.000  N
  O19      1.0000 0.09171  0.69865  0.79597  Biso   1.000  O
  O20      1.0000 0.00676  0.69003  0.59610  Biso   1.000  O
  O21      1.0000 0.74464  0.54761  0.99341  Biso   1.000  O
  O22      1.0000 0.36471  0.69438  0.29470  Biso   1.000  O
  O23      1.0000 0.28952  0.72740  0.09900  Biso   1.000  O
  O24      1.0000 0.59850  0.55331  0.86203  Biso   1.000  O
