data_image0
_cell_length_a       21.713
_cell_length_b       21.713
_cell_length_c       21.713
_cell_angle_alpha    90
_cell_angle_beta     90
_cell_angle_gamma    90

_symmetry_space_group_name_H-M    "P 1"
_symmetry_int_tables_number       1

loop_
  _symmetry_equiv_pos_as_xyz
  'x, y, z'

loop_
  _atom_site_label
  _atom_site_occupancy
  _atom_site_fract_x
  _atom_site_fract_y
  _atom_site_fract_z
  _atom_site_thermal_displace_type
  _atom_site_B_iso_or_equiv
  _atom_site_type_symbol
  Eu1      1.0000 0.00000  0.00000  0.12945  Biso   1.000  Eu
  Eu2      1.0000 0.00000  0.50000  0.62945  Biso   1.000  Eu
  Eu3      1.0000 0.50000  0.00000  0.62945  Biso   1.000  Eu
  Eu4      1.0000 0.50000  0.50000  0.12945  Biso   1.000  Eu
  Eu5      1.0000 0.00000  0.00000  0.87055  Biso   1.000  Eu
  Eu6      1.0000 0.00000  0.50000  0.37055  Biso   1.000  Eu
  Eu7      1.0000 0.50000  0.00000  0.37055  Biso   1.000  Eu
  Eu8      1.0000 0.50000  0.50000  0.87055  Biso   1.000  Eu
  Eu9      1.0000 0.12945  0.00000  0.00000  Biso   1.000  Eu
  Eu10     1.0000 0.12945  0.50000  0.50000  Biso   1.000  Eu
  Eu11     1.0000 0.62945  0.00000  0.50000  Biso   1.000  Eu
  Eu12     1.0000 0.62945  0.50000  0.00000  Biso   1.000  Eu
  Eu13     1.0000 0.87055  0.00000  0.00000  Biso   1.000  Eu
  Eu14     1.0000 0.87055  0.50000  0.50000  Biso   1.000  Eu
  Eu15     1.0000 0.37055  0.00000  0.50000  Biso   1.000  Eu
  Eu16     1.0000 0.37055  0.50000  0.00000  Biso   1.000  Eu
  Eu17     1.0000 0.00000  0.12945  0.00000  Biso   1.000  Eu
  Eu18     1.0000 0.00000  0.62945  0.50000  Biso   1.000  Eu
  Eu19     1.0000 0.50000  0.12945  0.50000  Biso   1.000  Eu
  Eu20     1.0000 0.50000  0.62945  0.00000  Biso   1.000  Eu
  Eu21     1.0000 0.00000  0.87055  0.00000  Biso   1.000  Eu
  Eu22     1.0000 0.00000  0.37055  0.50000  Biso   1.000  Eu
  Eu23     1.0000 0.50000  0.87055  0.50000  Biso   1.000  Eu
  Eu24     1.0000 0.50000  0.37055  0.00000  Biso   1.000  Eu
  O1       1.0000 0.05889  0.05889  0.05889  Biso   1.000  O
  O2       1.0000 0.05889  0.55889  0.55889  Biso   1.000  O
  O3       1.0000 0.55889  0.05889  0.55889  Biso   1.000  O
  O4       1.0000 0.55889  0.55889  0.05889  Biso   1.000  O
  O5       1.0000 0.94111  0.94111  0.05889  Biso   1.000  O
  O6       1.0000 0.94111  0.44111  0.55889  Biso   1.000  O
  O7       1.0000 0.44111  0.94111  0.55889  Biso   1.000  O
  O8       1.0000 0.44111  0.44111  0.05889  Biso   1.000  O
  O9       1.0000 0.94111  0.05889  0.94111  Biso   1.000  O
  O10      1.0000 0.94111  0.55889  0.44111  Biso   1.000  O
  O11      1.0000 0.44111  0.05889  0.44111  Biso   1.000  O
  O12      1.0000 0.44111  0.55889  0.94111  Biso   1.000  O
  O13      1.0000 0.05889  0.94111  0.94111  Biso   1.000  O
  O14      1.0000 0.05889  0.44111  0.44111  Biso   1.000  O
  O15      1.0000 0.55889  0.94111  0.44111  Biso   1.000  O
  O16      1.0000 0.55889  0.44111  0.94111  Biso   1.000  O
  O17      1.0000 0.05889  0.05889  0.94111  Biso   1.000  O
  O18      1.0000 0.05889  0.55889  0.44111  Biso   1.000  O
  O19      1.0000 0.55889  0.05889  0.44111  Biso   1.000  O
  O20      1.0000 0.55889  0.55889  0.94111  Biso   1.000  O
  O21      1.0000 0.94111  0.94111  0.94111  Biso   1.000  O
  O22      1.0000 0.94111  0.44111  0.44111  Biso   1.000  O
  O23      1.0000 0.44111  0.94111  0.44111  Biso   1.000  O
  O24      1.0000 0.44111  0.44111  0.94111  Biso   1.000  O
  O25      1.0000 0.05889  0.94111  0.05889  Biso   1.000  O
  O26      1.0000 0.05889  0.44111  0.55889  Biso   1.000  O
  O27      1.0000 0.55889  0.94111  0.55889  Biso   1.000  O
  O28      1.0000 0.55889  0.44111  0.05889  Biso   1.000  O
  O29      1.0000 0.94111  0.05889  0.05889  Biso   1.000  O
  O30      1.0000 0.94111  0.55889  0.55889  Biso   1.000  O
  O31      1.0000 0.44111  0.05889  0.55889  Biso   1.000  O
  O32      1.0000 0.44111  0.55889  0.05889  Biso   1.000  O
  O33      1.0000 0.00000  0.90081  0.17422  Biso   1.000  O
  N1       1.0000 0.00000  0.87260  0.26250  Biso   1.000  N
  C1       1.0000 0.00000  0.81020  0.26530  Biso   1.000  C
  O34      1.0000 0.00000  0.40081  0.67422  Biso   1.000  O
  N2       1.0000 0.00000  0.37260  0.76250  Biso   1.000  N
  C2       1.0000 0.00000  0.31020  0.76530  Biso   1.000  C
  O35      1.0000 0.50000  0.90081  0.67422  Biso   1.000  O
  N3       1.0000 0.50000  0.87260  0.76250  Biso   1.000  N
  C3       1.0000 0.50000  0.81020  0.76530  Biso   1.000  C
  O36      1.0000 0.50000  0.40081  0.17422  Biso   1.000  O
  N4       1.0000 0.50000  0.37260  0.26250  Biso   1.000  N
  C4       1.0000 0.50000  0.31020  0.26530  Biso   1.000  C
  O37      1.0000 0.00000  0.09919  0.17422  Biso   1.000  O
  N5       1.0000 0.00000  0.12740  0.26250  Biso   1.000  N
  C5       1.0000 0.00000  0.18980  0.26530  Biso   1.000  C
  O38      1.0000 0.00000  0.59919  0.67422  Biso   1.000  O
  N6       1.0000 0.00000  0.62740  0.76250  Biso   1.000  N
  C6       1.0000 0.00000  0.68980  0.76530  Biso   1.000  C
  O39      1.0000 0.50000  0.09919  0.67422  Biso   1.000  O
  N7       1.0000 0.50000  0.12740  0.76250  Biso   1.000  N
  C7       1.0000 0.50000  0.18980  0.76530  Biso   1.000  C
  O40      1.0000 0.50000  0.59919  0.17422  Biso   1.000  O
  N8       1.0000 0.50000  0.62740  0.26250  Biso   1.000  N
  C8       1.0000 0.50000  0.68980  0.26530  Biso   1.000  C
  O41      1.0000 0.00000  0.90081  0.82578  Biso   1.000  O
  N9       1.0000 0.00000  0.87260  0.73750  Biso   1.000  N
  C9       1.0000 0.00000  0.81020  0.73470  Biso   1.000  C
  O42      1.0000 0.00000  0.40081  0.32578  Biso   1.000  O
  N10      1.0000 0.00000  0.37260  0.23750  Biso   1.000  N
  C10      1.0000 0.00000  0.31020  0.23470  Biso   1.000  C
  O43      1.0000 0.50000  0.90081  0.32578  Biso   1.000  O
  N11      1.0000 0.50000  0.87260  0.23750  Biso   1.000  N
  C11      1.0000 0.50000  0.81020  0.23470  Biso   1.000  C
  O44      1.0000 0.50000  0.40081  0.82578  Biso   1.000  O
  N12      1.0000 0.50000  0.37260  0.73750  Biso   1.000  N
  C12      1.0000 0.50000  0.31020  0.73470  Biso   1.000  C
  O45      1.0000 0.00000  0.09919  0.82578  Biso   1.000  O
  N13      1.0000 0.00000  0.12740  0.73750  Biso   1.000  N
  C13      1.0000 0.00000  0.18980  0.73470  Biso   1.000  C
  O46      1.0000 0.00000  0.59919  0.32578  Biso   1.000  O
  N14      1.0000 0.00000  0.62740  0.23750  Biso   1.000  N
  C14      1.0000 0.00000  0.68980  0.23470  Biso   1.000  C
  O47      1.0000 0.50000  0.09919  0.32578  Biso   1.000  O
  N15      1.0000 0.50000  0.12740  0.23750  Biso   1.000  N
  C15      1.0000 0.50000  0.18980  0.23470  Biso   1.000  C
  O48      1.0000 0.50000  0.59919  0.82578  Biso   1.000  O
  N16      1.0000 0.50000  0.62740  0.73750  Biso   1.000  N
  C16      1.0000 0.50000  0.68980  0.73470  Biso   1.000  C
  O49      1.0000 0.17422  0.00000  0.90081  Biso   1.000  O
  N17      1.0000 0.26250  0.00000  0.87260  Biso   1.000  N
  C17      1.0000 0.26530  0.00000  0.81020  Biso   1.000  C
  O50      1.0000 0.17422  0.50000  0.40081  Biso   1.000  O
  N18      1.0000 0.26250  0.50000  0.37260  Biso   1.000  N
  C18      1.0000 0.26530  0.50000  0.31020  Biso   1.000  C
  O51      1.0000 0.67422  0.00000  0.40081  Biso   1.000  O
  N19      1.0000 0.76250  0.00000  0.37260  Biso   1.000  N
  C19      1.0000 0.76530  0.00000  0.31020  Biso   1.000  C
  O52      1.0000 0.67422  0.50000  0.90081  Biso   1.000  O
  N20      1.0000 0.76250  0.50000  0.87260  Biso   1.000  N
  C20      1.0000 0.76530  0.50000  0.81020  Biso   1.000  C
  O53      1.0000 0.17422  0.00000  0.09919  Biso   1.000  O
  N21      1.0000 0.26250  0.00000  0.12740  Biso   1.000  N
  C21      1.0000 0.26530  0.00000  0.18980  Biso   1.000  C
  O54      1.0000 0.17422  0.50000  0.59919  Biso   1.000  O
  N22      1.0000 0.26250  0.50000  0.62740  Biso   1.000  N
  C22      1.0000 0.26530  0.50000  0.68980  Biso   1.000  C
  O55      1.0000 0.67422  0.00000  0.59919  Biso   1.000  O
  N23      1.0000 0.76250  0.00000  0.62740  Biso   1.000  N
  C23      1.0000 0.76530  0.00000  0.68980  Biso   1.000  C
  O56      1.0000 0.67422  0.50000  0.09919  Biso   1.000  O
  N24      1.0000 0.76250  0.50000  0.12740  Biso   1.000  N
  C24      1.0000 0.76530  0.50000  0.18980  Biso   1.000  C
  O57      1.0000 0.82578  0.00000  0.90081  Biso   1.000  O
  N25      1.0000 0.73750  0.00000  0.87260  Biso   1.000  N
  C25      1.0000 0.73470  0.00000  0.81020  Biso   1.000  C
  O58      1.0000 0.82578  0.50000  0.40081  Biso   1.000  O
  N26      1.0000 0.73750  0.50000  0.37260  Biso   1.000  N
  C26      1.0000 0.73470  0.50000  0.31020  Biso   1.000  C
  O59      1.0000 0.32578  0.00000  0.40081  Biso   1.000  O
  N27      1.0000 0.23750  0.00000  0.37260  Biso   1.000  N
  C27      1.0000 0.23470  0.00000  0.31020  Biso   1.000  C
  O60      1.0000 0.32578  0.50000  0.90081  Biso   1.000  O
  N28      1.0000 0.23750  0.50000  0.87260  Biso   1.000  N
  C28      1.0000 0.23470  0.50000  0.81020  Biso   1.000  C
  O61      1.0000 0.82578  0.00000  0.09919  Biso   1.000  O
  N29      1.0000 0.73750  0.00000  0.12740  Biso   1.000  N
  C29      1.0000 0.73470  0.00000  0.18980  Biso   1.000  C
  O62      1.0000 0.82578  0.50000  0.59919  Biso   1.000  O
  N30      1.0000 0.73750  0.50000  0.62740  Biso   1.000  N
  C30      1.0000 0.73470  0.50000  0.68980  Biso   1.000  C
  O63      1.0000 0.32578  0.00000  0.59919  Biso   1.000  O
  N31      1.0000 0.23750  0.00000  0.62740  Biso   1.000  N
  C31      1.0000 0.23470  0.00000  0.68980  Biso   1.000  C
  O64      1.0000 0.32578  0.50000  0.09919  Biso   1.000  O
  N32      1.0000 0.23750  0.50000  0.12740  Biso   1.000  N
  C32      1.0000 0.23470  0.50000  0.18980  Biso   1.000  C
  O65      1.0000 0.90081  0.17422  0.00000  Biso   1.000  O
  N33      1.0000 0.87260  0.26250  0.00000  Biso   1.000  N
  C33      1.0000 0.81020  0.26530  0.00000  Biso   1.000  C
  O66      1.0000 0.90081  0.67422  0.50000  Biso   1.000  O
  N34      1.0000 0.87260  0.76250  0.50000  Biso   1.000  N
  C34      1.0000 0.81020  0.76530  0.50000  Biso   1.000  C
  O67      1.0000 0.40081  0.17422  0.50000  Biso   1.000  O
  N35      1.0000 0.37260  0.26250  0.50000  Biso   1.000  N
  C35      1.0000 0.31020  0.26530  0.50000  Biso   1.000  C
  O68      1.0000 0.40081  0.67422  0.00000  Biso   1.000  O
  N36      1.0000 0.37260  0.76250  0.00000  Biso   1.000  N
  C36      1.0000 0.31020  0.76530  0.00000  Biso   1.000  C
  O69      1.0000 0.09919  0.17422  0.00000  Biso   1.000  O
  N37      1.0000 0.12740  0.26250  0.00000  Biso   1.000  N
  C37      1.0000 0.18980  0.26530  0.00000  Biso   1.000  C
  O70      1.0000 0.09919  0.67422  0.50000  Biso   1.000  O
  N38      1.0000 0.12740  0.76250  0.50000  Biso   1.000  N
  C38      1.0000 0.18980  0.76530  0.50000  Biso   1.000  C
  O71      1.0000 0.59919  0.17422  0.50000  Biso   1.000  O
  N39      1.0000 0.62740  0.26250  0.50000  Biso   1.000  N
  C39      1.0000 0.68980  0.26530  0.50000  Biso   1.000  C
  O72      1.0000 0.59919  0.67422  0.00000  Biso   1.000  O
  N40      1.0000 0.62740  0.76250  0.00000  Biso   1.000  N
  C40      1.0000 0.68980  0.76530  0.00000  Biso   1.000  C
  O73      1.0000 0.90081  0.82578  0.00000  Biso   1.000  O
  N41      1.0000 0.87260  0.73750  0.00000  Biso   1.000  N
  C41      1.0000 0.81020  0.73470  0.00000  Biso   1.000  C
  O74      1.0000 0.90081  0.32578  0.50000  Biso   1.000  O
  N42      1.0000 0.87260  0.23750  0.50000  Biso   1.000  N
  C42      1.0000 0.81020  0.23470  0.50000  Biso   1.000  C
  O75      1.0000 0.40081  0.82578  0.50000  Biso   1.000  O
  N43      1.0000 0.37260  0.73750  0.50000  Biso   1.000  N
  C43      1.0000 0.31020  0.73470  0.50000  Biso   1.000  C
  O76      1.0000 0.40081  0.32578  0.00000  Biso   1.000  O
  N44      1.0000 0.37260  0.23750  0.00000  Biso   1.000  N
  C44      1.0000 0.31020  0.23470  0.00000  Biso   1.000  C
  O77      1.0000 0.09919  0.82578  0.00000  Biso   1.000  O
  N45      1.0000 0.12740  0.73750  0.00000  Biso   1.000  N
  C45      1.0000 0.18980  0.73470  0.00000  Biso   1.000  C
  O78      1.0000 0.09919  0.32578  0.50000  Biso   1.000  O
  N46      1.0000 0.12740  0.23750  0.50000  Biso   1.000  N
  C46      1.0000 0.18980  0.23470  0.50000  Biso   1.000  C
  O79      1.0000 0.59919  0.82578  0.50000  Biso   1.000  O
  N47      1.0000 0.62740  0.73750  0.50000  Biso   1.000  N
  C47      1.0000 0.68980  0.73470  0.50000  Biso   1.000  C
  O80      1.0000 0.59919  0.32578  0.00000  Biso   1.000  O
  N48      1.0000 0.62740  0.23750  0.00000  Biso   1.000  N
  C48      1.0000 0.68980  0.23470  0.00000  Biso   1.000  C
  O81      1.0000 0.90081  0.00000  0.82578  Biso   1.000  O
  N49      1.0000 0.87260  0.00000  0.73750  Biso   1.000  N
  C49      1.0000 0.81020  0.00000  0.73470  Biso   1.000  C
  O82      1.0000 0.90081  0.50000  0.32578  Biso   1.000  O
  N50      1.0000 0.87260  0.50000  0.23750  Biso   1.000  N
  C50      1.0000 0.81020  0.50000  0.23470  Biso   1.000  C
  O83      1.0000 0.40081  0.00000  0.32578  Biso   1.000  O
  N51      1.0000 0.37260  0.00000  0.23750  Biso   1.000  N
  C51      1.0000 0.31020  0.00000  0.23470  Biso   1.000  C
  O84      1.0000 0.40081  0.50000  0.82578  Biso   1.000  O
  N52      1.0000 0.37260  0.50000  0.73750  Biso   1.000  N
  C52      1.0000 0.31020  0.50000  0.73470  Biso   1.000  C
  O85      1.0000 0.09919  0.00000  0.82578  Biso   1.000  O
  N53      1.0000 0.12740  0.00000  0.73750  Biso   1.000  N
  C53      1.0000 0.18980  0.00000  0.73470  Biso   1.000  C
  O86      1.0000 0.09919  0.50000  0.32578  Biso   1.000  O
  N54      1.0000 0.12740  0.50000  0.23750  Biso   1.000  N
  C54      1.0000 0.18980  0.50000  0.23470  Biso   1.000  C
  O87      1.0000 0.59919  0.00000  0.32578  Biso   1.000  O
  N55      1.0000 0.62740  0.00000  0.23750  Biso   1.000  N
  C55      1.0000 0.68980  0.00000  0.23470  Biso   1.000  C
  O88      1.0000 0.59919  0.50000  0.82578  Biso   1.000  O
  N56      1.0000 0.62740  0.50000  0.73750  Biso   1.000  N
  C56      1.0000 0.68980  0.50000  0.73470  Biso   1.000  C
  O89      1.0000 0.90081  0.00000  0.17422  Biso   1.000  O
  N57      1.0000 0.87260  0.00000  0.26250  Biso   1.000  N
  C57      1.0000 0.81020  0.00000  0.26530  Biso   1.000  C
  O90      1.0000 0.90081  0.50000  0.67422  Biso   1.000  O
  N58      1.0000 0.87260  0.50000  0.76250  Biso   1.000  N
  C58      1.0000 0.81020  0.50000  0.76530  Biso   1.000  C
  O91      1.0000 0.40081  0.00000  0.67422  Biso   1.000  O
  N59      1.0000 0.37260  0.00000  0.76250  Biso   1.000  N
  C59      1.0000 0.31020  0.00000  0.76530  Biso   1.000  C
  O92      1.0000 0.40081  0.50000  0.17422  Biso   1.000  O
  N60      1.0000 0.37260  0.50000  0.26250  Biso   1.000  N
  C60      1.0000 0.31020  0.50000  0.26530  Biso   1.000  C
  O93      1.0000 0.09919  0.00000  0.17422  Biso   1.000  O
  N61      1.0000 0.12740  0.00000  0.26250  Biso   1.000  N
  C61      1.0000 0.18980  0.00000  0.26530  Biso   1.000  C
  O94      1.0000 0.09919  0.50000  0.67422  Biso   1.000  O
  N62      1.0000 0.12740  0.50000  0.76250  Biso   1.000  N
  C62      1.0000 0.18980  0.50000  0.76530  Biso   1.000  C
  O95      1.0000 0.59919  0.00000  0.67422  Biso   1.000  O
  N63      1.0000 0.62740  0.00000  0.76250  Biso   1.000  N
  C63      1.0000 0.68980  0.00000  0.76530  Biso   1.000  C
  O96      1.0000 0.59919  0.50000  0.17422  Biso   1.000  O
  N64      1.0000 0.62740  0.50000  0.26250  Biso   1.000  N
  C64      1.0000 0.68980  0.50000  0.26530  Biso   1.000  C
  O97      1.0000 0.00000  0.17422  0.09919  Biso   1.000  O
  N65      1.0000 0.00000  0.26250  0.12740  Biso   1.000  N
  C65      1.0000 0.00000  0.26530  0.18980  Biso   1.000  C
  O98      1.0000 0.00000  0.67422  0.59919  Biso   1.000  O
  N66      1.0000 0.00000  0.76250  0.62740  Biso   1.000  N
  C66      1.0000 0.00000  0.76530  0.68980  Biso   1.000  C
  O99      1.0000 0.50000  0.17422  0.59919  Biso   1.000  O
  N67      1.0000 0.50000  0.26250  0.62740  Biso   1.000  N
  C67      1.0000 0.50000  0.26530  0.68980  Biso   1.000  C
  O100     1.0000 0.50000  0.67422  0.09919  Biso   1.000  O
  N68      1.0000 0.50000  0.76250  0.12740  Biso   1.000  N
  C68      1.0000 0.50000  0.76530  0.18980  Biso   1.000  C
  O101     1.0000 0.00000  0.17422  0.90081  Biso   1.000  O
  N69      1.0000 0.00000  0.26250  0.87260  Biso   1.000  N
  C69      1.0000 0.00000  0.26530  0.81020  Biso   1.000  C
  O102     1.0000 0.00000  0.67422  0.40081  Biso   1.000  O
  N70      1.0000 0.00000  0.76250  0.37260  Biso   1.000  N
  C70      1.0000 0.00000  0.76530  0.31020  Biso   1.000  C
  O103     1.0000 0.50000  0.17422  0.40081  Biso   1.000  O
  N71      1.0000 0.50000  0.26250  0.37260  Biso   1.000  N
  C71      1.0000 0.50000  0.26530  0.31020  Biso   1.000  C
  O104     1.0000 0.50000  0.67422  0.90081  Biso   1.000  O
  N72      1.0000 0.50000  0.76250  0.87260  Biso   1.000  N
  C72      1.0000 0.50000  0.76530  0.81020  Biso   1.000  C
  O105     1.0000 0.00000  0.82578  0.09919  Biso   1.000  O
  N73      1.0000 0.00000  0.73750  0.12740  Biso   1.000  N
  C73      1.0000 0.00000  0.73470  0.18980  Biso   1.000  C
  O106     1.0000 0.00000  0.32578  0.59919  Biso   1.000  O
  N74      1.0000 0.00000  0.23750  0.62740  Biso   1.000  N
  C74      1.0000 0.00000  0.23470  0.68980  Biso   1.000  C
  O107     1.0000 0.50000  0.82578  0.59919  Biso   1.000  O
  N75      1.0000 0.50000  0.73750  0.62740  Biso   1.000  N
  C75      1.0000 0.50000  0.73470  0.68980  Biso   1.000  C
  O108     1.0000 0.50000  0.32578  0.09919  Biso   1.000  O
  N76      1.0000 0.50000  0.23750  0.12740  Biso   1.000  N
  C76      1.0000 0.50000  0.23470  0.18980  Biso   1.000  C
  O109     1.0000 0.00000  0.82578  0.90081  Biso   1.000  O
  N77      1.0000 0.00000  0.73750  0.87260  Biso   1.000  N
  C77      1.0000 0.00000  0.73470  0.81020  Biso   1.000  C
  O110     1.0000 0.00000  0.32578  0.40081  Biso   1.000  O
  N78      1.0000 0.00000  0.23750  0.37260  Biso   1.000  N
  C78      1.0000 0.00000  0.23470  0.31020  Biso   1.000  C
  O111     1.0000 0.50000  0.82578  0.40081  Biso   1.000  O
  N79      1.0000 0.50000  0.73750  0.37260  Biso   1.000  N
  C79      1.0000 0.50000  0.73470  0.31020  Biso   1.000  C
  O112     1.0000 0.50000  0.32578  0.90081  Biso   1.000  O
  N80      1.0000 0.50000  0.23750  0.87260  Biso   1.000  N
  C80      1.0000 0.50000  0.23470  0.81020  Biso   1.000  C
  O113     1.0000 0.17422  0.90081  0.00000  Biso   1.000  O
  N81      1.0000 0.26250  0.87260  0.00000  Biso   1.000  N
  C81      1.0000 0.26530  0.81020  0.00000  Biso   1.000  C
  O114     1.0000 0.17422  0.40081  0.50000  Biso   1.000  O
  N82      1.0000 0.26250  0.37260  0.50000  Biso   1.000  N
  C82      1.0000 0.26530  0.31020  0.50000  Biso   1.000  C
  O115     1.0000 0.67422  0.90081  0.50000  Biso   1.000  O
  N83      1.0000 0.76250  0.87260  0.50000  Biso   1.000  N
  C83      1.0000 0.76530  0.81020  0.50000  Biso   1.000  C
  O116     1.0000 0.67422  0.40081  0.00000  Biso   1.000  O
  N84      1.0000 0.76250  0.37260  0.00000  Biso   1.000  N
  C84      1.0000 0.76530  0.31020  0.00000  Biso   1.000  C
  O117     1.0000 0.17422  0.09919  0.00000  Biso   1.000  O
  N85      1.0000 0.26250  0.12740  0.00000  Biso   1.000  N
  C85      1.0000 0.26530  0.18980  0.00000  Biso   1.000  C
  O118     1.0000 0.17422  0.59919  0.50000  Biso   1.000  O
  N86      1.0000 0.26250  0.62740  0.50000  Biso   1.000  N
  C86      1.0000 0.26530  0.68980  0.50000  Biso   1.000  C
  O119     1.0000 0.67422  0.09919  0.50000  Biso   1.000  O
  N87      1.0000 0.76250  0.12740  0.50000  Biso   1.000  N
  C87      1.0000 0.76530  0.18980  0.50000  Biso   1.000  C
  O120     1.0000 0.67422  0.59919  0.00000  Biso   1.000  O
  N88      1.0000 0.76250  0.62740  0.00000  Biso   1.000  N
  C88      1.0000 0.76530  0.68980  0.00000  Biso   1.000  C
  O121     1.0000 0.82578  0.90081  0.00000  Biso   1.000  O
  N89      1.0000 0.73750  0.87260  0.00000  Biso   1.000  N
  C89      1.0000 0.73470  0.81020  0.00000  Biso   1.000  C
  O122     1.0000 0.82578  0.40081  0.50000  Biso   1.000  O
  N90      1.0000 0.73750  0.37260  0.50000  Biso   1.000  N
  C90      1.0000 0.73470  0.31020  0.50000  Biso   1.000  C
  O123     1.0000 0.32578  0.90081  0.50000  Biso   1.000  O
  N91      1.0000 0.23750  0.87260  0.50000  Biso   1.000  N
  C91      1.0000 0.23470  0.81020  0.50000  Biso   1.000  C
  O124     1.0000 0.32578  0.40081  0.00000  Biso   1.000  O
  N92      1.0000 0.23750  0.37260  0.00000  Biso   1.000  N
  C92      1.0000 0.23470  0.31020  0.00000  Biso   1.000  C
  O125     1.0000 0.82578  0.09919  0.00000  Biso   1.000  O
  N93      1.0000 0.73750  0.12740  0.00000  Biso   1.000  N
  C93      1.0000 0.73470  0.18980  0.00000  Biso   1.000  C
  O126     1.0000 0.82578  0.59919  0.50000  Biso   1.000  O
  N94      1.0000 0.73750  0.62740  0.50000  Biso   1.000  N
  C94      1.0000 0.73470  0.68980  0.50000  Biso   1.000  C
  O127     1.0000 0.32578  0.09919  0.50000  Biso   1.000  O
  N95      1.0000 0.23750  0.12740  0.50000  Biso   1.000  N
  C95      1.0000 0.23470  0.18980  0.50000  Biso   1.000  C
  O128     1.0000 0.32578  0.59919  0.00000  Biso   1.000  O
  N96      1.0000 0.23750  0.62740  0.00000  Biso   1.000  N
  C96      1.0000 0.23470  0.68980  0.00000  Biso   1.000  C
  C97      1.0000 0.00000  0.84490  0.15510  Biso   1.000  C
  C98      1.0000 0.00000  0.79580  0.20420  Biso   1.000  C
  C99      1.0000 0.00000  0.34490  0.65510  Biso   1.000  C
  C100     1.0000 0.00000  0.29580  0.70420  Biso   1.000  C
  C101     1.0000 0.50000  0.84490  0.65510  Biso   1.000  C
  C102     1.0000 0.50000  0.79580  0.70420  Biso   1.000  C
  C103     1.0000 0.50000  0.34490  0.15510  Biso   1.000  C
  C104     1.0000 0.50000  0.29580  0.20420  Biso   1.000  C
  C105     1.0000 0.00000  0.15510  0.15510  Biso   1.000  C
  C106     1.0000 0.00000  0.20420  0.20420  Biso   1.000  C
  C107     1.0000 0.00000  0.65510  0.65510  Biso   1.000  C
  C108     1.0000 0.00000  0.70420  0.70420  Biso   1.000  C
  C109     1.0000 0.50000  0.15510  0.65510  Biso   1.000  C
  C110     1.0000 0.50000  0.20420  0.70420  Biso   1.000  C
  C111     1.0000 0.50000  0.65510  0.15510  Biso   1.000  C
  C112     1.0000 0.50000  0.70420  0.20420  Biso   1.000  C
  C113     1.0000 0.00000  0.84490  0.84490  Biso   1.000  C
  C114     1.0000 0.00000  0.79580  0.79580  Biso   1.000  C
  C115     1.0000 0.00000  0.34490  0.34490  Biso   1.000  C
  C116     1.0000 0.00000  0.29580  0.29580  Biso   1.000  C
  C117     1.0000 0.50000  0.84490  0.34490  Biso   1.000  C
  C118     1.0000 0.50000  0.79580  0.29580  Biso   1.000  C
  C119     1.0000 0.50000  0.34490  0.84490  Biso   1.000  C
  C120     1.0000 0.50000  0.29580  0.79580  Biso   1.000  C
  C121     1.0000 0.00000  0.15510  0.84490  Biso   1.000  C
  C122     1.0000 0.00000  0.20420  0.79580  Biso   1.000  C
  C123     1.0000 0.00000  0.65510  0.34490  Biso   1.000  C
  C124     1.0000 0.00000  0.70420  0.29580  Biso   1.000  C
  C125     1.0000 0.50000  0.15510  0.34490  Biso   1.000  C
  C126     1.0000 0.50000  0.20420  0.29580  Biso   1.000  C
  C127     1.0000 0.50000  0.65510  0.84490  Biso   1.000  C
  C128     1.0000 0.50000  0.70420  0.79580  Biso   1.000  C
  C129     1.0000 0.15510  0.00000  0.84490  Biso   1.000  C
  C130     1.0000 0.20420  0.00000  0.79580  Biso   1.000  C
  C131     1.0000 0.15510  0.50000  0.34490  Biso   1.000  C
  C132     1.0000 0.20420  0.50000  0.29580  Biso   1.000  C
  C133     1.0000 0.65510  0.00000  0.34490  Biso   1.000  C
  C134     1.0000 0.70420  0.00000  0.29580  Biso   1.000  C
  C135     1.0000 0.65510  0.50000  0.84490  Biso   1.000  C
  C136     1.0000 0.70420  0.50000  0.79580  Biso   1.000  C
  C137     1.0000 0.15510  0.00000  0.15510  Biso   1.000  C
  C138     1.0000 0.20420  0.00000  0.20420  Biso   1.000  C
  C139     1.0000 0.15510  0.50000  0.65510  Biso   1.000  C
  C140     1.0000 0.20420  0.50000  0.70420  Biso   1.000  C
  C141     1.0000 0.65510  0.00000  0.65510  Biso   1.000  C
  C142     1.0000 0.70420  0.00000  0.70420  Biso   1.000  C
  C143     1.0000 0.65510  0.50000  0.15510  Biso   1.000  C
  C144     1.0000 0.70420  0.50000  0.20420  Biso   1.000  C
  C145     1.0000 0.84490  0.00000  0.84490  Biso   1.000  C
  C146     1.0000 0.79580  0.00000  0.79580  Biso   1.000  C
  C147     1.0000 0.84490  0.50000  0.34490  Biso   1.000  C
  C148     1.0000 0.79580  0.50000  0.29580  Biso   1.000  C
  C149     1.0000 0.34490  0.00000  0.34490  Biso   1.000  C
  C150     1.0000 0.29580  0.00000  0.29580  Biso   1.000  C
  C151     1.0000 0.34490  0.50000  0.84490  Biso   1.000  C
  C152     1.0000 0.29580  0.50000  0.79580  Biso   1.000  C
  C153     1.0000 0.84490  0.00000  0.15510  Biso   1.000  C
  C154     1.0000 0.79580  0.00000  0.20420  Biso   1.000  C
  C155     1.0000 0.84490  0.50000  0.65510  Biso   1.000  C
  C156     1.0000 0.79580  0.50000  0.70420  Biso   1.000  C
  C157     1.0000 0.34490  0.00000  0.65510  Biso   1.000  C
  C158     1.0000 0.29580  0.00000  0.70420  Biso   1.000  C
  C159     1.0000 0.34490  0.50000  0.15510  Biso   1.000  C
  C160     1.0000 0.29580  0.50000  0.20420  Biso   1.000  C
  C161     1.0000 0.84490  0.15510  0.00000  Biso   1.000  C
  C162     1.0000 0.79580  0.20420  0.00000  Biso   1.000  C
  C163     1.0000 0.84490  0.65510  0.50000  Biso   1.000  C
  C164     1.0000 0.79580  0.70420  0.50000  Biso   1.000  C
  C165     1.0000 0.34490  0.15510  0.50000  Biso   1.000  C
  C166     1.0000 0.29580  0.20420  0.50000  Biso   1.000  C
  C167     1.0000 0.34490  0.65510  0.00000  Biso   1.000  C
  C168     1.0000 0.29580  0.70420  0.00000  Biso   1.000  C
  C169     1.0000 0.15510  0.15510  0.00000  Biso   1.000  C
  C170     1.0000 0.20420  0.20420  0.00000  Biso   1.000  C
  C171     1.0000 0.15510  0.65510  0.50000  Biso   1.000  C
  C172     1.0000 0.20420  0.70420  0.50000  Biso   1.000  C
  C173     1.0000 0.65510  0.15510  0.50000  Biso   1.000  C
  C174     1.0000 0.70420  0.20420  0.50000  Biso   1.000  C
  C175     1.0000 0.65510  0.65510  0.00000  Biso   1.000  C
  C176     1.0000 0.70420  0.70420  0.00000  Biso   1.000  C
  C177     1.0000 0.84490  0.84490  0.00000  Biso   1.000  C
  C178     1.0000 0.79580  0.79580  0.00000  Biso   1.000  C
  C179     1.0000 0.84490  0.34490  0.50000  Biso   1.000  C
  C180     1.0000 0.79580  0.29580  0.50000  Biso   1.000  C
  C181     1.0000 0.34490  0.84490  0.50000  Biso   1.000  C
  C182     1.0000 0.29580  0.79580  0.50000  Biso   1.000  C
  C183     1.0000 0.34490  0.34490  0.00000  Biso   1.000  C
  C184     1.0000 0.29580  0.29580  0.00000  Biso   1.000  C
  C185     1.0000 0.15510  0.84490  0.00000  Biso   1.000  C
  C186     1.0000 0.20420  0.79580  0.00000  Biso   1.000  C
  C187     1.0000 0.15510  0.34490  0.50000  Biso   1.000  C
  C188     1.0000 0.20420  0.29580  0.50000  Biso   1.000  C
  C189     1.0000 0.65510  0.84490  0.50000  Biso   1.000  C
  C190     1.0000 0.70420  0.79580  0.50000  Biso   1.000  C
  C191     1.0000 0.65510  0.34490  0.00000  Biso   1.000  C
  C192     1.0000 0.70420  0.29580  0.00000  Biso   1.000  C
