data_image0
_cell_length_a       7.3583
_cell_length_b       27.28
_cell_length_c       27.856
_cell_angle_alpha    90
_cell_angle_beta     90
_cell_angle_gamma    90

_symmetry_space_group_name_H-M    "P 1"
_symmetry_int_tables_number       1

loop_
  _symmetry_equiv_pos_as_xyz
  'x, y, z'

loop_
  _atom_site_label
  _atom_site_occupancy
  _atom_site_fract_x
  _atom_site_fract_y
  _atom_site_fract_z
  _atom_site_thermal_displace_type
  _atom_site_B_iso_or_equiv
  _atom_site_type_symbol
  Ba1      1.0000 0.86512  0.13979  0.28842  Biso   1.000  Ba
  C1       1.0000 0.22230  0.03125  0.36333  Biso   1.000  C
  H1       1.0000 0.10290  0.04270  0.35370  Biso   1.000  H
  H2       1.0000 0.27000  0.01090  0.33770  Biso   1.000  H
  C2       1.0000 0.34730  0.07543  0.37042  Biso   1.000  C
  H3       1.0000 0.28700  0.09780  0.39290  Biso   1.000  H
  C3       1.0000 0.52700  0.05929  0.39325  Biso   1.000  C
  H4       1.0000 0.59690  0.04100  0.36980  Biso   1.000  H
  H5       1.0000 0.59670  0.08810  0.40200  Biso   1.000  H
  C4       1.0000 0.49900  0.02756  0.43790  Biso   1.000  C
  H6       1.0000 0.61550  0.01560  0.44920  Biso   1.000  H
  H7       1.0000 0.44490  0.04710  0.46320  Biso   1.000  H
  C5       1.0000 0.20420  0.00071  0.40831  Biso   1.000  C
  H8       1.0000 0.14030  0.01940  0.43260  Biso   1.000  H
  H9       1.0000 0.13290  0.97170  0.40130  Biso   1.000  H
  C6       1.0000 0.44300  0.93953  0.42269  Biso   1.000  C
  C7       1.0000 0.64880  0.88072  0.44016  Biso   1.000  C
  C8       1.0000 0.39860  0.86155  0.39783  Biso   1.000  C
  C9       1.0000 0.94060  0.72694  0.29889  Biso   1.000  C
  C10      1.0000 0.09480  0.76157  0.31086  Biso   1.000  C
  H10      1.0000 0.17200  0.76470  0.28240  Biso   1.000  H
  C11      1.0000 0.36690  0.10222  0.32257  Biso   1.000  C
  C12      1.0000 0.15020  0.82835  0.57739  Biso   1.000  C
  C13      1.0000 0.94600  0.90339  0.47378  Biso   1.000  C
  H11      1.0000 0.89330  0.93600  0.47400  Biso   1.000  H
  H12      1.0000 0.04230  0.90280  0.45000  Biso   1.000  H
  C14      1.0000 0.02430  0.89211  0.52265  Biso   1.000  C
  H13      1.0000 0.93180  0.89780  0.54680  Biso   1.000  H
  H14      1.0000 0.12430  0.91440  0.52900  Biso   1.000  H
  C15      1.0000 0.94180  0.80436  0.51138  Biso   1.000  C
  H15      1.0000 0.98850  0.77110  0.51140  Biso   1.000  H
  H16      1.0000 0.84260  0.80590  0.53430  Biso   1.000  H
  C16      1.0000 0.87080  0.81676  0.46178  Biso   1.000  C
  H17      1.0000 0.96690  0.81250  0.43830  Biso   1.000  H
  H18      1.0000 0.77190  0.79480  0.45350  Biso   1.000  H
  C17      1.0000 0.36750  0.77916  0.36286  Biso   1.000  C
  H19      1.0000 0.43540  0.76790  0.39060  Biso   1.000  H
  H20      1.0000 0.44960  0.78010  0.33560  Biso   1.000  H
  C18      1.0000 0.02270  0.81199  0.32338  Biso   1.000  C
  H21      1.0000 0.95200  0.82460  0.29670  Biso   1.000  H
  H22      1.0000 0.94310  0.80960  0.35100  Biso   1.000  H
  C19      1.0000 0.17740  0.84746  0.33452  Biso   1.000  C
  H23      1.0000 0.24790  0.85310  0.30560  Biso   1.000  H
  H24      1.0000 0.12710  0.87860  0.34470  Biso   1.000  H
  C20      1.0000 0.09230  0.83956  0.52700  Biso   1.000  C
  H25      1.0000 0.19700  0.83530  0.50560  Biso   1.000  H
  C21      1.0000 0.21290  0.74349  0.35250  Biso   1.000  C
  H26      1.0000 0.26300  0.71160  0.34460  Biso   1.000  H
  H27      1.0000 0.13840  0.73990  0.38100  Biso   1.000  H
  N1       1.0000 0.38070  0.98614  0.42674  Biso   1.000  N
  N2       1.0000 0.33490  0.90775  0.39896  Biso   1.000  N
  N3       1.0000 0.60440  0.92873  0.44230  Biso   1.000  N
  N4       1.0000 0.54920  0.84529  0.41877  Biso   1.000  N
  N5       1.0000 0.80660  0.86756  0.46091  Biso   1.000  N
  N6       1.0000 0.29650  0.82862  0.37208  Biso   1.000  N
  O1       1.0000 0.52060  0.10649  0.30385  Biso   1.000  O
  O2       1.0000 0.93400  0.70788  0.25817  Biso   1.000  O
  O3       1.0000 0.81800  0.71917  0.32999  Biso   1.000  O
  O4       1.0000 0.22340  0.11734  0.30282  Biso   1.000  O
  O5       1.0000 0.08740  0.84940  0.61198  Biso   1.000  O
  O6       1.0000 0.27200  0.79365  0.58101  Biso   1.000  O
  Ba2      1.0000 0.63488  0.86021  0.78842  Biso   1.000  Ba
  C22      1.0000 0.27770  0.96875  0.86333  Biso   1.000  C
  H28      1.0000 0.39710  0.95730  0.85370  Biso   1.000  H
  H29      1.0000 0.23000  0.98910  0.83770  Biso   1.000  H
  C23      1.0000 0.15270  0.92457  0.87042  Biso   1.000  C
  H30      1.0000 0.21300  0.90220  0.89290  Biso   1.000  H
  C24      1.0000 0.97300  0.94071  0.89325  Biso   1.000  C
  H31      1.0000 0.90310  0.95900  0.86980  Biso   1.000  H
  H32      1.0000 0.90330  0.91190  0.90200  Biso   1.000  H
  C25      1.0000 0.00100  0.97244  0.93790  Biso   1.000  C
  H33      1.0000 0.88450  0.98440  0.94920  Biso   1.000  H
  H34      1.0000 0.05510  0.95290  0.96320  Biso   1.000  H
  C26      1.0000 0.29580  0.99929  0.90831  Biso   1.000  C
  H35      1.0000 0.35970  0.98060  0.93260  Biso   1.000  H
  H36      1.0000 0.36710  0.02830  0.90130  Biso   1.000  H
  C27      1.0000 0.05700  0.06047  0.92269  Biso   1.000  C
  C28      1.0000 0.85120  0.11928  0.94016  Biso   1.000  C
  C29      1.0000 0.10140  0.13845  0.89783  Biso   1.000  C
  C30      1.0000 0.55940  0.27306  0.79889  Biso   1.000  C
  C31      1.0000 0.40520  0.23843  0.81086  Biso   1.000  C
  H37      1.0000 0.32800  0.23530  0.78240  Biso   1.000  H
  C32      1.0000 0.13310  0.89778  0.82257  Biso   1.000  C
  C33      1.0000 0.34980  0.17165  0.07739  Biso   1.000  C
  C34      1.0000 0.55400  0.09661  0.97378  Biso   1.000  C
  H38      1.0000 0.60670  0.06400  0.97400  Biso   1.000  H
  H39      1.0000 0.45770  0.09720  0.95000  Biso   1.000  H
  C35      1.0000 0.47570  0.10789  0.02265  Biso   1.000  C
  H40      1.0000 0.56820  0.10220  0.04680  Biso   1.000  H
  H41      1.0000 0.37570  0.08560  0.02900  Biso   1.000  H
  C36      1.0000 0.55820  0.19564  0.01138  Biso   1.000  C
  H42      1.0000 0.51150  0.22890  0.01140  Biso   1.000  H
  H43      1.0000 0.65740  0.19410  0.03430  Biso   1.000  H
  C37      1.0000 0.62920  0.18324  0.96178  Biso   1.000  C
  H44      1.0000 0.53310  0.18750  0.93830  Biso   1.000  H
  H45      1.0000 0.72810  0.20520  0.95350  Biso   1.000  H
  C38      1.0000 0.13250  0.22084  0.86286  Biso   1.000  C
  H46      1.0000 0.06460  0.23210  0.89060  Biso   1.000  H
  H47      1.0000 0.05040  0.21990  0.83560  Biso   1.000  H
  C39      1.0000 0.47730  0.18801  0.82338  Biso   1.000  C
  H48      1.0000 0.54800  0.17540  0.79670  Biso   1.000  H
  H49      1.0000 0.55690  0.19040  0.85100  Biso   1.000  H
  C40      1.0000 0.32260  0.15254  0.83452  Biso   1.000  C
  H50      1.0000 0.25210  0.14690  0.80560  Biso   1.000  H
  H51      1.0000 0.37290  0.12140  0.84470  Biso   1.000  H
  C41      1.0000 0.40770  0.16044  0.02700  Biso   1.000  C
  H52      1.0000 0.30300  0.16470  0.00560  Biso   1.000  H
  C42      1.0000 0.28710  0.25651  0.85250  Biso   1.000  C
  H53      1.0000 0.23700  0.28840  0.84460  Biso   1.000  H
  H54      1.0000 0.36160  0.26010  0.88100  Biso   1.000  H
  N7       1.0000 0.11930  0.01386  0.92674  Biso   1.000  N
  N8       1.0000 0.16510  0.09225  0.89896  Biso   1.000  N
  N9       1.0000 0.89560  0.07127  0.94230  Biso   1.000  N
  N10      1.0000 0.95080  0.15471  0.91877  Biso   1.000  N
  N11      1.0000 0.69340  0.13244  0.96091  Biso   1.000  N
  N12      1.0000 0.20350  0.17138  0.87208  Biso   1.000  N
  O7       1.0000 0.97940  0.89351  0.80385  Biso   1.000  O
  O8       1.0000 0.56600  0.29212  0.75817  Biso   1.000  O
  O9       1.0000 0.68200  0.28083  0.82999  Biso   1.000  O
  O10      1.0000 0.27660  0.88266  0.80282  Biso   1.000  O
  O11      1.0000 0.41260  0.15060  0.11198  Biso   1.000  O
  O12      1.0000 0.22800  0.20635  0.08101  Biso   1.000  O
  Ba3      1.0000 0.13488  0.63979  0.21158  Biso   1.000  Ba
  C43      1.0000 0.77770  0.53125  0.13667  Biso   1.000  C
  H55      1.0000 0.89710  0.54270  0.14630  Biso   1.000  H
  H56      1.0000 0.73000  0.51090  0.16230  Biso   1.000  H
  C44      1.0000 0.65270  0.57543  0.12958  Biso   1.000  C
  H57      1.0000 0.71300  0.59780  0.10710  Biso   1.000  H
  C45      1.0000 0.47300  0.55929  0.10675  Biso   1.000  C
  H58      1.0000 0.40310  0.54100  0.13020  Biso   1.000  H
  H59      1.0000 0.40330  0.58810  0.09800  Biso   1.000  H
  C46      1.0000 0.50100  0.52756  0.06210  Biso   1.000  C
  H60      1.0000 0.38450  0.51560  0.05080  Biso   1.000  H
  H61      1.0000 0.55510  0.54710  0.03680  Biso   1.000  H
  C47      1.0000 0.79580  0.50071  0.09169  Biso   1.000  C
  H62      1.0000 0.85970  0.51940  0.06740  Biso   1.000  H
  H63      1.0000 0.86710  0.47170  0.09870  Biso   1.000  H
  C48      1.0000 0.55700  0.43953  0.07731  Biso   1.000  C
  C49      1.0000 0.35120  0.38072  0.05984  Biso   1.000  C
  C50      1.0000 0.60140  0.36155  0.10217  Biso   1.000  C
  C51      1.0000 0.05940  0.22694  0.20111  Biso   1.000  C
  C52      1.0000 0.90520  0.26157  0.18914  Biso   1.000  C
  H64      1.0000 0.82800  0.26470  0.21760  Biso   1.000  H
  C53      1.0000 0.63310  0.60222  0.17743  Biso   1.000  C
  C54      1.0000 0.84980  0.32835  0.92261  Biso   1.000  C
  C55      1.0000 0.05400  0.40339  0.02622  Biso   1.000  C
  H65      1.0000 0.10670  0.43600  0.02600  Biso   1.000  H
  H66      1.0000 0.95770  0.40280  0.05000  Biso   1.000  H
  C56      1.0000 0.97570  0.39211  0.97735  Biso   1.000  C
  H67      1.0000 0.06820  0.39780  0.95320  Biso   1.000  H
  H68      1.0000 0.87570  0.41440  0.97100  Biso   1.000  H
  C57      1.0000 0.05820  0.30436  0.98862  Biso   1.000  C
  H69      1.0000 0.01150  0.27110  0.98860  Biso   1.000  H
  H70      1.0000 0.15740  0.30590  0.96570  Biso   1.000  H
  C58      1.0000 0.12920  0.31676  0.03822  Biso   1.000  C
  H71      1.0000 0.03310  0.31250  0.06170  Biso   1.000  H
  H72      1.0000 0.22810  0.29480  0.04650  Biso   1.000  H
  C59      1.0000 0.63250  0.27916  0.13714  Biso   1.000  C
  H73      1.0000 0.56460  0.26790  0.10940  Biso   1.000  H
  H74      1.0000 0.55040  0.28010  0.16440  Biso   1.000  H
  C60      1.0000 0.97730  0.31199  0.17662  Biso   1.000  C
  H75      1.0000 0.04800  0.32460  0.20330  Biso   1.000  H
  H76      1.0000 0.05690  0.30960  0.14900  Biso   1.000  H
  C61      1.0000 0.82260  0.34746  0.16548  Biso   1.000  C
  H77      1.0000 0.75210  0.35310  0.19440  Biso   1.000  H
  H78      1.0000 0.87290  0.37860  0.15530  Biso   1.000  H
  C62      1.0000 0.90770  0.33956  0.97300  Biso   1.000  C
  H79      1.0000 0.80300  0.33530  0.99440  Biso   1.000  H
  C63      1.0000 0.78710  0.24349  0.14750  Biso   1.000  C
  H80      1.0000 0.73700  0.21160  0.15540  Biso   1.000  H
  H81      1.0000 0.86160  0.23990  0.11900  Biso   1.000  H
  N13      1.0000 0.61930  0.48614  0.07326  Biso   1.000  N
  N14      1.0000 0.66510  0.40775  0.10104  Biso   1.000  N
  N15      1.0000 0.39560  0.42873  0.05770  Biso   1.000  N
  N16      1.0000 0.45080  0.34529  0.08123  Biso   1.000  N
  N17      1.0000 0.19340  0.36756  0.03909  Biso   1.000  N
  N18      1.0000 0.70350  0.32862  0.12792  Biso   1.000  N
  O13      1.0000 0.47940  0.60649  0.19615  Biso   1.000  O
  O14      1.0000 0.06600  0.20788  0.24183  Biso   1.000  O
  O15      1.0000 0.18200  0.21917  0.17001  Biso   1.000  O
  O16      1.0000 0.77660  0.61734  0.19718  Biso   1.000  O
  O17      1.0000 0.91260  0.34940  0.88802  Biso   1.000  O
  O18      1.0000 0.72800  0.29365  0.91899  Biso   1.000  O
  Ba4      1.0000 0.36512  0.36021  0.71158  Biso   1.000  Ba
  C64      1.0000 0.72230  0.46875  0.63667  Biso   1.000  C
  H82      1.0000 0.60290  0.45730  0.64630  Biso   1.000  H
  H83      1.0000 0.77000  0.48910  0.66230  Biso   1.000  H
  C65      1.0000 0.84730  0.42457  0.62958  Biso   1.000  C
  H84      1.0000 0.78700  0.40220  0.60710  Biso   1.000  H
  C66      1.0000 0.02700  0.44071  0.60675  Biso   1.000  C
  H85      1.0000 0.09690  0.45900  0.63020  Biso   1.000  H
  H86      1.0000 0.09670  0.41190  0.59800  Biso   1.000  H
  C67      1.0000 0.99900  0.47244  0.56210  Biso   1.000  C
  H87      1.0000 0.11550  0.48440  0.55080  Biso   1.000  H
  H88      1.0000 0.94490  0.45290  0.53680  Biso   1.000  H
  C68      1.0000 0.70420  0.49929  0.59169  Biso   1.000  C
  H89      1.0000 0.64030  0.48060  0.56740  Biso   1.000  H
  H90      1.0000 0.63290  0.52830  0.59870  Biso   1.000  H
  C69      1.0000 0.94300  0.56047  0.57731  Biso   1.000  C
  C70      1.0000 0.14880  0.61928  0.55984  Biso   1.000  C
  C71      1.0000 0.89860  0.63845  0.60217  Biso   1.000  C
  C72      1.0000 0.44060  0.77306  0.70111  Biso   1.000  C
  C73      1.0000 0.59480  0.73843  0.68914  Biso   1.000  C
  H91      1.0000 0.67200  0.73530  0.71760  Biso   1.000  H
  C74      1.0000 0.86690  0.39778  0.67743  Biso   1.000  C
  C75      1.0000 0.65020  0.67165  0.42261  Biso   1.000  C
  C76      1.0000 0.44600  0.59661  0.52622  Biso   1.000  C
  H92      1.0000 0.39330  0.56400  0.52600  Biso   1.000  H
  H93      1.0000 0.54230  0.59720  0.55000  Biso   1.000  H
  C77      1.0000 0.52430  0.60789  0.47735  Biso   1.000  C
  H94      1.0000 0.43180  0.60220  0.45320  Biso   1.000  H
  H95      1.0000 0.62430  0.58560  0.47100  Biso   1.000  H
  C78      1.0000 0.44180  0.69564  0.48862  Biso   1.000  C
  H96      1.0000 0.48850  0.72890  0.48860  Biso   1.000  H
  H97      1.0000 0.34260  0.69410  0.46570  Biso   1.000  H
  C79      1.0000 0.37080  0.68324  0.53822  Biso   1.000  C
  H98      1.0000 0.46690  0.68750  0.56170  Biso   1.000  H
  H99      1.0000 0.27190  0.70520  0.54650  Biso   1.000  H
  C80      1.0000 0.86750  0.72084  0.63714  Biso   1.000  C
  H100     1.0000 0.93540  0.73210  0.60940  Biso   1.000  H
  H101     1.0000 0.94960  0.71990  0.66440  Biso   1.000  H
  C81      1.0000 0.52270  0.68801  0.67662  Biso   1.000  C
  H102     1.0000 0.45200  0.67540  0.70330  Biso   1.000  H
  H103     1.0000 0.44310  0.69040  0.64900  Biso   1.000  H
  C82      1.0000 0.67740  0.65254  0.66548  Biso   1.000  C
  H104     1.0000 0.74790  0.64690  0.69440  Biso   1.000  H
  H105     1.0000 0.62710  0.62140  0.65530  Biso   1.000  H
  C83      1.0000 0.59230  0.66044  0.47300  Biso   1.000  C
  H106     1.0000 0.69700  0.66470  0.49440  Biso   1.000  H
  C84      1.0000 0.71290  0.75651  0.64750  Biso   1.000  C
  H107     1.0000 0.76300  0.78840  0.65540  Biso   1.000  H
  H108     1.0000 0.63840  0.76010  0.61900  Biso   1.000  H
  N19      1.0000 0.88070  0.51386  0.57326  Biso   1.000  N
  N20      1.0000 0.83490  0.59225  0.60104  Biso   1.000  N
  N21      1.0000 0.10440  0.57127  0.55770  Biso   1.000  N
  N22      1.0000 0.04920  0.65471  0.58123  Biso   1.000  N
  N23      1.0000 0.30660  0.63244  0.53909  Biso   1.000  N
  N24      1.0000 0.79650  0.67138  0.62792  Biso   1.000  N
  O19      1.0000 0.02060  0.39351  0.69615  Biso   1.000  O
  O20      1.0000 0.43400  0.79212  0.74183  Biso   1.000  O
  O21      1.0000 0.31800  0.78083  0.67001  Biso   1.000  O
  O22      1.0000 0.72340  0.38266  0.69718  Biso   1.000  O
  O23      1.0000 0.58740  0.65060  0.38802  Biso   1.000  O
  O24      1.0000 0.77200  0.70635  0.41899  Biso   1.000  O
  Ba5      1.0000 0.13488  0.86021  0.71158  Biso   1.000  Ba
  C85      1.0000 0.77770  0.96875  0.63667  Biso   1.000  C
  H109     1.0000 0.89710  0.95730  0.64630  Biso   1.000  H
  H110     1.0000 0.73000  0.98910  0.66230  Biso   1.000  H
  C86      1.0000 0.65270  0.92457  0.62958  Biso   1.000  C
  H111     1.0000 0.71300  0.90220  0.60710  Biso   1.000  H
  C87      1.0000 0.47300  0.94071  0.60675  Biso   1.000  C
  H112     1.0000 0.40310  0.95900  0.63020  Biso   1.000  H
  H113     1.0000 0.40330  0.91190  0.59800  Biso   1.000  H
  C88      1.0000 0.50100  0.97244  0.56210  Biso   1.000  C
  H114     1.0000 0.38450  0.98440  0.55080  Biso   1.000  H
  H115     1.0000 0.55510  0.95290  0.53680  Biso   1.000  H
  C89      1.0000 0.79580  0.99929  0.59169  Biso   1.000  C
  H116     1.0000 0.85970  0.98060  0.56740  Biso   1.000  H
  H117     1.0000 0.86710  0.02830  0.59870  Biso   1.000  H
  C90      1.0000 0.55700  0.06047  0.57731  Biso   1.000  C
  C91      1.0000 0.35120  0.11928  0.55984  Biso   1.000  C
  C92      1.0000 0.60140  0.13845  0.60217  Biso   1.000  C
  C93      1.0000 0.05940  0.27306  0.70111  Biso   1.000  C
  C94      1.0000 0.90520  0.23843  0.68914  Biso   1.000  C
  H118     1.0000 0.82800  0.23530  0.71760  Biso   1.000  H
  C95      1.0000 0.63310  0.89778  0.67743  Biso   1.000  C
  C96      1.0000 0.84980  0.17165  0.42261  Biso   1.000  C
  C97      1.0000 0.05400  0.09661  0.52622  Biso   1.000  C
  H119     1.0000 0.10670  0.06400  0.52600  Biso   1.000  H
  H120     1.0000 0.95770  0.09720  0.55000  Biso   1.000  H
  C98      1.0000 0.97570  0.10789  0.47735  Biso   1.000  C
  H121     1.0000 0.06820  0.10220  0.45320  Biso   1.000  H
  H122     1.0000 0.87570  0.08560  0.47100  Biso   1.000  H
  C99      1.0000 0.05820  0.19564  0.48862  Biso   1.000  C
  H123     1.0000 0.01150  0.22890  0.48860  Biso   1.000  H
  H124     1.0000 0.15740  0.19410  0.46570  Biso   1.000  H
  C100     1.0000 0.12920  0.18324  0.53822  Biso   1.000  C
  H125     1.0000 0.03310  0.18750  0.56170  Biso   1.000  H
  H126     1.0000 0.22810  0.20520  0.54650  Biso   1.000  H
  C101     1.0000 0.63250  0.22084  0.63714  Biso   1.000  C
  H127     1.0000 0.56460  0.23210  0.60940  Biso   1.000  H
  H128     1.0000 0.55040  0.21990  0.66440  Biso   1.000  H
  C102     1.0000 0.97730  0.18801  0.67662  Biso   1.000  C
  H129     1.0000 0.04800  0.17540  0.70330  Biso   1.000  H
  H130     1.0000 0.05690  0.19040  0.64900  Biso   1.000  H
  C103     1.0000 0.82260  0.15254  0.66548  Biso   1.000  C
  H131     1.0000 0.75210  0.14690  0.69440  Biso   1.000  H
  H132     1.0000 0.87290  0.12140  0.65530  Biso   1.000  H
  C104     1.0000 0.90770  0.16044  0.47300  Biso   1.000  C
  H133     1.0000 0.80300  0.16470  0.49440  Biso   1.000  H
  C105     1.0000 0.78710  0.25651  0.64750  Biso   1.000  C
  H134     1.0000 0.73700  0.28840  0.65540  Biso   1.000  H
  H135     1.0000 0.86160  0.26010  0.61900  Biso   1.000  H
  N25      1.0000 0.61930  0.01386  0.57326  Biso   1.000  N
  N26      1.0000 0.66510  0.09225  0.60104  Biso   1.000  N
  N27      1.0000 0.39560  0.07127  0.55770  Biso   1.000  N
  N28      1.0000 0.45080  0.15471  0.58123  Biso   1.000  N
  N29      1.0000 0.19340  0.13244  0.53909  Biso   1.000  N
  N30      1.0000 0.70350  0.17138  0.62792  Biso   1.000  N
  O25      1.0000 0.47940  0.89351  0.69615  Biso   1.000  O
  O26      1.0000 0.06600  0.29212  0.74183  Biso   1.000  O
  O27      1.0000 0.18200  0.28083  0.67001  Biso   1.000  O
  O28      1.0000 0.77660  0.88266  0.69718  Biso   1.000  O
  O29      1.0000 0.91260  0.15060  0.38802  Biso   1.000  O
  O30      1.0000 0.72800  0.20635  0.41899  Biso   1.000  O
  Ba6      1.0000 0.36512  0.13979  0.21158  Biso   1.000  Ba
  C106     1.0000 0.72230  0.03125  0.13667  Biso   1.000  C
  H136     1.0000 0.60290  0.04270  0.14630  Biso   1.000  H
  H137     1.0000 0.77000  0.01090  0.16230  Biso   1.000  H
  C107     1.0000 0.84730  0.07543  0.12958  Biso   1.000  C
  H138     1.0000 0.78700  0.09780  0.10710  Biso   1.000  H
  C108     1.0000 0.02700  0.05929  0.10675  Biso   1.000  C
  H139     1.0000 0.09690  0.04100  0.13020  Biso   1.000  H
  H140     1.0000 0.09670  0.08810  0.09800  Biso   1.000  H
  C109     1.0000 0.99900  0.02756  0.06210  Biso   1.000  C
  H141     1.0000 0.11550  0.01560  0.05080  Biso   1.000  H
  H142     1.0000 0.94490  0.04710  0.03680  Biso   1.000  H
  C110     1.0000 0.70420  0.00071  0.09169  Biso   1.000  C
  H143     1.0000 0.64030  0.01940  0.06740  Biso   1.000  H
  H144     1.0000 0.63290  0.97170  0.09870  Biso   1.000  H
  C111     1.0000 0.94300  0.93953  0.07731  Biso   1.000  C
  C112     1.0000 0.14880  0.88072  0.05984  Biso   1.000  C
  C113     1.0000 0.89860  0.86155  0.10217  Biso   1.000  C
  C114     1.0000 0.44060  0.72694  0.20111  Biso   1.000  C
  C115     1.0000 0.59480  0.76157  0.18914  Biso   1.000  C
  H145     1.0000 0.67200  0.76470  0.21760  Biso   1.000  H
  C116     1.0000 0.86690  0.10222  0.17743  Biso   1.000  C
  C117     1.0000 0.65020  0.82835  0.92261  Biso   1.000  C
  C118     1.0000 0.44600  0.90339  0.02622  Biso   1.000  C
  H146     1.0000 0.39330  0.93600  0.02600  Biso   1.000  H
  H147     1.0000 0.54230  0.90280  0.05000  Biso   1.000  H
  C119     1.0000 0.52430  0.89211  0.97735  Biso   1.000  C
  H148     1.0000 0.43180  0.89780  0.95320  Biso   1.000  H
  H149     1.0000 0.62430  0.91440  0.97100  Biso   1.000  H
  C120     1.0000 0.44180  0.80436  0.98862  Biso   1.000  C
  H150     1.0000 0.48850  0.77110  0.98860  Biso   1.000  H
  H151     1.0000 0.34260  0.80590  0.96570  Biso   1.000  H
  C121     1.0000 0.37080  0.81676  0.03822  Biso   1.000  C
  H152     1.0000 0.46690  0.81250  0.06170  Biso   1.000  H
  H153     1.0000 0.27190  0.79480  0.04650  Biso   1.000  H
  C122     1.0000 0.86750  0.77916  0.13714  Biso   1.000  C
  H154     1.0000 0.93540  0.76790  0.10940  Biso   1.000  H
  H155     1.0000 0.94960  0.78010  0.16440  Biso   1.000  H
  C123     1.0000 0.52270  0.81199  0.17662  Biso   1.000  C
  H156     1.0000 0.45200  0.82460  0.20330  Biso   1.000  H
  H157     1.0000 0.44310  0.80960  0.14900  Biso   1.000  H
  C124     1.0000 0.67740  0.84746  0.16548  Biso   1.000  C
  H158     1.0000 0.74790  0.85310  0.19440  Biso   1.000  H
  H159     1.0000 0.62710  0.87860  0.15530  Biso   1.000  H
  C125     1.0000 0.59230  0.83956  0.97300  Biso   1.000  C
  H160     1.0000 0.69700  0.83530  0.99440  Biso   1.000  H
  C126     1.0000 0.71290  0.74349  0.14750  Biso   1.000  C
  H161     1.0000 0.76300  0.71160  0.15540  Biso   1.000  H
  H162     1.0000 0.63840  0.73990  0.11900  Biso   1.000  H
  N31      1.0000 0.88070  0.98614  0.07326  Biso   1.000  N
  N32      1.0000 0.83490  0.90775  0.10104  Biso   1.000  N
  N33      1.0000 0.10440  0.92873  0.05770  Biso   1.000  N
  N34      1.0000 0.04920  0.84529  0.08123  Biso   1.000  N
  N35      1.0000 0.30660  0.86756  0.03909  Biso   1.000  N
  N36      1.0000 0.79650  0.82862  0.12792  Biso   1.000  N
  O31      1.0000 0.02060  0.10649  0.19615  Biso   1.000  O
  O32      1.0000 0.43400  0.70788  0.24183  Biso   1.000  O
  O33      1.0000 0.31800  0.71917  0.17001  Biso   1.000  O
  O34      1.0000 0.72340  0.11734  0.19718  Biso   1.000  O
  O35      1.0000 0.58740  0.84940  0.88802  Biso   1.000  O
  O36      1.0000 0.77200  0.79365  0.91899  Biso   1.000  O
  Ba7      1.0000 0.86512  0.36021  0.78842  Biso   1.000  Ba
  C127     1.0000 0.22230  0.46875  0.86333  Biso   1.000  C
  H163     1.0000 0.10290  0.45730  0.85370  Biso   1.000  H
  H164     1.0000 0.27000  0.48910  0.83770  Biso   1.000  H
  C128     1.0000 0.34730  0.42457  0.87042  Biso   1.000  C
  H165     1.0000 0.28700  0.40220  0.89290  Biso   1.000  H
  C129     1.0000 0.52700  0.44071  0.89325  Biso   1.000  C
  H166     1.0000 0.59690  0.45900  0.86980  Biso   1.000  H
  H167     1.0000 0.59670  0.41190  0.90200  Biso   1.000  H
  C130     1.0000 0.49900  0.47244  0.93790  Biso   1.000  C
  H168     1.0000 0.61550  0.48440  0.94920  Biso   1.000  H
  H169     1.0000 0.44490  0.45290  0.96320  Biso   1.000  H
  C131     1.0000 0.20420  0.49929  0.90831  Biso   1.000  C
  H170     1.0000 0.14030  0.48060  0.93260  Biso   1.000  H
  H171     1.0000 0.13290  0.52830  0.90130  Biso   1.000  H
  C132     1.0000 0.44300  0.56047  0.92269  Biso   1.000  C
  C133     1.0000 0.64880  0.61928  0.94016  Biso   1.000  C
  C134     1.0000 0.39860  0.63845  0.89783  Biso   1.000  C
  C135     1.0000 0.94060  0.77306  0.79889  Biso   1.000  C
  C136     1.0000 0.09480  0.73843  0.81086  Biso   1.000  C
  H172     1.0000 0.17200  0.73530  0.78240  Biso   1.000  H
  C137     1.0000 0.36690  0.39778  0.82257  Biso   1.000  C
  C138     1.0000 0.15020  0.67165  0.07739  Biso   1.000  C
  C139     1.0000 0.94600  0.59661  0.97378  Biso   1.000  C
  H173     1.0000 0.89330  0.56400  0.97400  Biso   1.000  H
  H174     1.0000 0.04230  0.59720  0.95000  Biso   1.000  H
  C140     1.0000 0.02430  0.60789  0.02265  Biso   1.000  C
  H175     1.0000 0.93180  0.60220  0.04680  Biso   1.000  H
  H176     1.0000 0.12430  0.58560  0.02900  Biso   1.000  H
  C141     1.0000 0.94180  0.69564  0.01138  Biso   1.000  C
  H177     1.0000 0.98850  0.72890  0.01140  Biso   1.000  H
  H178     1.0000 0.84260  0.69410  0.03430  Biso   1.000  H
  C142     1.0000 0.87080  0.68324  0.96178  Biso   1.000  C
  H179     1.0000 0.96690  0.68750  0.93830  Biso   1.000  H
  H180     1.0000 0.77190  0.70520  0.95350  Biso   1.000  H
  C143     1.0000 0.36750  0.72084  0.86286  Biso   1.000  C
  H181     1.0000 0.43540  0.73210  0.89060  Biso   1.000  H
  H182     1.0000 0.44960  0.71990  0.83560  Biso   1.000  H
  C144     1.0000 0.02270  0.68801  0.82338  Biso   1.000  C
  H183     1.0000 0.95200  0.67540  0.79670  Biso   1.000  H
  H184     1.0000 0.94310  0.69040  0.85100  Biso   1.000  H
  C145     1.0000 0.17740  0.65254  0.83452  Biso   1.000  C
  H185     1.0000 0.24790  0.64690  0.80560  Biso   1.000  H
  H186     1.0000 0.12710  0.62140  0.84470  Biso   1.000  H
  C146     1.0000 0.09230  0.66044  0.02700  Biso   1.000  C
  H187     1.0000 0.19700  0.66470  0.00560  Biso   1.000  H
  C147     1.0000 0.21290  0.75651  0.85250  Biso   1.000  C
  H188     1.0000 0.26300  0.78840  0.84460  Biso   1.000  H
  H189     1.0000 0.13840  0.76010  0.88100  Biso   1.000  H
  N37      1.0000 0.38070  0.51386  0.92674  Biso   1.000  N
  N38      1.0000 0.33490  0.59225  0.89896  Biso   1.000  N
  N39      1.0000 0.60440  0.57127  0.94230  Biso   1.000  N
  N40      1.0000 0.54920  0.65471  0.91877  Biso   1.000  N
  N41      1.0000 0.80660  0.63244  0.96091  Biso   1.000  N
  N42      1.0000 0.29650  0.67138  0.87208  Biso   1.000  N
  O37      1.0000 0.52060  0.39351  0.80385  Biso   1.000  O
  O38      1.0000 0.93400  0.79212  0.75817  Biso   1.000  O
  O39      1.0000 0.81800  0.78083  0.82999  Biso   1.000  O
  O40      1.0000 0.22340  0.38266  0.80282  Biso   1.000  O
  O41      1.0000 0.08740  0.65060  0.11198  Biso   1.000  O
  O42      1.0000 0.27200  0.70635  0.08101  Biso   1.000  O
  Ba8      1.0000 0.63488  0.63979  0.28842  Biso   1.000  Ba
  C148     1.0000 0.27770  0.53125  0.36333  Biso   1.000  C
  H190     1.0000 0.39710  0.54270  0.35370  Biso   1.000  H
  H191     1.0000 0.23000  0.51090  0.33770  Biso   1.000  H
  C149     1.0000 0.15270  0.57543  0.37042  Biso   1.000  C
  H192     1.0000 0.21300  0.59780  0.39290  Biso   1.000  H
  C150     1.0000 0.97300  0.55929  0.39325  Biso   1.000  C
  H193     1.0000 0.90310  0.54100  0.36980  Biso   1.000  H
  H194     1.0000 0.90330  0.58810  0.40200  Biso   1.000  H
  C151     1.0000 0.00100  0.52756  0.43790  Biso   1.000  C
  H195     1.0000 0.88450  0.51560  0.44920  Biso   1.000  H
  H196     1.0000 0.05510  0.54710  0.46320  Biso   1.000  H
  C152     1.0000 0.29580  0.50071  0.40831  Biso   1.000  C
  H197     1.0000 0.35970  0.51940  0.43260  Biso   1.000  H
  H198     1.0000 0.36710  0.47170  0.40130  Biso   1.000  H
  C153     1.0000 0.05700  0.43953  0.42269  Biso   1.000  C
  C154     1.0000 0.85120  0.38072  0.44016  Biso   1.000  C
  C155     1.0000 0.10140  0.36155  0.39783  Biso   1.000  C
  C156     1.0000 0.55940  0.22694  0.29889  Biso   1.000  C
  C157     1.0000 0.40520  0.26157  0.31086  Biso   1.000  C
  H199     1.0000 0.32800  0.26470  0.28240  Biso   1.000  H
  C158     1.0000 0.13310  0.60222  0.32257  Biso   1.000  C
  C159     1.0000 0.34980  0.32835  0.57739  Biso   1.000  C
  C160     1.0000 0.55400  0.40339  0.47378  Biso   1.000  C
  H200     1.0000 0.60670  0.43600  0.47400  Biso   1.000  H
  H201     1.0000 0.45770  0.40280  0.45000  Biso   1.000  H
  C161     1.0000 0.47570  0.39211  0.52265  Biso   1.000  C
  H202     1.0000 0.56820  0.39780  0.54680  Biso   1.000  H
  H203     1.0000 0.37570  0.41440  0.52900  Biso   1.000  H
  C162     1.0000 0.55820  0.30436  0.51138  Biso   1.000  C
  H204     1.0000 0.51150  0.27110  0.51140  Biso   1.000  H
  H205     1.0000 0.65740  0.30590  0.53430  Biso   1.000  H
  C163     1.0000 0.62920  0.31676  0.46178  Biso   1.000  C
  H206     1.0000 0.53310  0.31250  0.43830  Biso   1.000  H
  H207     1.0000 0.72810  0.29480  0.45350  Biso   1.000  H
  C164     1.0000 0.13250  0.27916  0.36286  Biso   1.000  C
  H208     1.0000 0.06460  0.26790  0.39060  Biso   1.000  H
  H209     1.0000 0.05040  0.28010  0.33560  Biso   1.000  H
  C165     1.0000 0.47730  0.31199  0.32338  Biso   1.000  C
  H210     1.0000 0.54800  0.32460  0.29670  Biso   1.000  H
  H211     1.0000 0.55690  0.30960  0.35100  Biso   1.000  H
  C166     1.0000 0.32260  0.34746  0.33452  Biso   1.000  C
  H212     1.0000 0.25210  0.35310  0.30560  Biso   1.000  H
  H213     1.0000 0.37290  0.37860  0.34470  Biso   1.000  H
  C167     1.0000 0.40770  0.33956  0.52700  Biso   1.000  C
  H214     1.0000 0.30300  0.33530  0.50560  Biso   1.000  H
  C168     1.0000 0.28710  0.24349  0.35250  Biso   1.000  C
  H215     1.0000 0.23700  0.21160  0.34460  Biso   1.000  H
  H216     1.0000 0.36160  0.23990  0.38100  Biso   1.000  H
  N43      1.0000 0.11930  0.48614  0.42674  Biso   1.000  N
  N44      1.0000 0.16510  0.40775  0.39896  Biso   1.000  N
  N45      1.0000 0.89560  0.42873  0.44230  Biso   1.000  N
  N46      1.0000 0.95080  0.34529  0.41877  Biso   1.000  N
  N47      1.0000 0.69340  0.36756  0.46091  Biso   1.000  N
  N48      1.0000 0.20350  0.32862  0.37208  Biso   1.000  N
  O43      1.0000 0.97940  0.60649  0.30385  Biso   1.000  O
  O44      1.0000 0.56600  0.20788  0.25817  Biso   1.000  O
  O45      1.0000 0.68200  0.21917  0.32999  Biso   1.000  O
  O46      1.0000 0.27660  0.61734  0.30282  Biso   1.000  O
  O47      1.0000 0.41260  0.34940  0.61198  Biso   1.000  O
  O48      1.0000 0.22800  0.29365  0.58101  Biso   1.000  O
