data_image0
_cell_length_a       27.627
_cell_length_b       6.8348
_cell_length_c       28.135
_cell_angle_alpha    90
_cell_angle_beta     90
_cell_angle_gamma    90

_symmetry_space_group_name_H-M    "P 1"
_symmetry_int_tables_number       1

loop_
  _symmetry_equiv_pos_as_xyz
  'x, y, z'

loop_
  _atom_site_label
  _atom_site_occupancy
  _atom_site_fract_x
  _atom_site_fract_y
  _atom_site_fract_z
  _atom_site_thermal_displace_type
  _atom_site_B_iso_or_equiv
  _atom_site_type_symbol
  C1       1.0000 0.56582  0.84000  0.38442  Biso   1.000  C
  C2       1.0000 0.61130  0.10170  0.36543  Biso   1.000  C
  C3       1.0000 0.58590  0.06100  0.44082  Biso   1.000  C
  C4       1.0000 0.56680  0.01100  0.52604  Biso   1.000  C
  H1       1.0000 0.55390  0.88720  0.51490  Biso   1.000  H
  H2       1.0000 0.54150  0.07820  0.54350  Biso   1.000  H
  C5       1.0000 0.60140  0.31730  0.49990  Biso   1.000  C
  H3       1.0000 0.57670  0.39110  0.51660  Biso   1.000  H
  H4       1.0000 0.61070  0.39120  0.47190  Biso   1.000  H
  C6       1.0000 0.52422  0.53690  0.40610  Biso   1.000  C
  H5       1.0000 0.52410  0.59640  0.43740  Biso   1.000  H
  H6       1.0000 0.54530  0.42340  0.40710  Biso   1.000  H
  C7       1.0000 0.54148  0.60810  0.32234  Biso   1.000  C
  H7       1.0000 0.56250  0.49520  0.31890  Biso   1.000  H
  H8       1.0000 0.55320  0.71040  0.30140  Biso   1.000  H
  C8       1.0000 0.64670  0.12580  0.28566  Biso   1.000  C
  H9       1.0000 0.61960  0.04490  0.27580  Biso   1.000  H
  H10      1.0000 0.67520  0.04330  0.28770  Biso   1.000  H
  C9       1.0000 0.67200  0.35380  0.34945  Biso   1.000  C
  H11      1.0000 0.70230  0.28770  0.35630  Biso   1.000  H
  H12      1.0000 0.66050  0.41300  0.37870  Biso   1.000  H
  C10      1.0000 0.65511  0.28620  0.24908  Biso   1.000  C
  H13      1.0000 0.66380  0.22750  0.21890  Biso   1.000  H
  H14      1.0000 0.62540  0.35980  0.24460  Biso   1.000  H
  C11      1.0000 0.68082  0.51380  0.31238  Biso   1.000  C
  H15      1.0000 0.65160  0.59080  0.30840  Biso   1.000  H
  H16      1.0000 0.70630  0.60030  0.32330  Biso   1.000  H
  C12      1.0000 0.69522  0.42410  0.26483  Biso   1.000  C
  H17      1.0000 0.72460  0.34700  0.26970  Biso   1.000  H
  C13      1.0000 0.48973  0.55310  0.30887  Biso   1.000  C
  H18      1.0000 0.46960  0.66930  0.30950  Biso   1.000  H
  H19      1.0000 0.48930  0.50110  0.27680  Biso   1.000  H
  C14      1.0000 0.46917  0.40160  0.34291  Biso   1.000  C
  H20      1.0000 0.48870  0.28200  0.34010  Biso   1.000  H
  C15      1.0000 0.47319  0.47370  0.39298  Biso   1.000  C
  H21      1.0000 0.46300  0.37060  0.41440  Biso   1.000  H
  H22      1.0000 0.45140  0.58360  0.39720  Biso   1.000  H
  C16      1.0000 0.60990  0.97450  0.55833  Biso   1.000  C
  H23      1.0000 0.59920  0.90140  0.58600  Biso   1.000  H
  H24      1.0000 0.63340  0.89490  0.54150  Biso   1.000  H
  C17      1.0000 0.63415  0.16170  0.57471  Biso   1.000  C
  H25      1.0000 0.61080  0.23200  0.59470  Biso   1.000  H
  C18      1.0000 0.64451  0.29170  0.53147  Biso   1.000  C
  H26      1.0000 0.65520  0.41920  0.54240  Biso   1.000  H
  H27      1.0000 0.67070  0.23430  0.51320  Biso   1.000  H
  C19      1.0000 0.70588  0.57600  0.22835  Biso   1.000  C
  C20      1.0000 0.41763  0.35130  0.32984  Biso   1.000  C
  C21      1.0000 0.67960  0.13300  0.60395  Biso   1.000  C
  N1       1.0000 0.58820  0.94370  0.35011  Biso   1.000  N
  N2       1.0000 0.56412  0.88910  0.43060  Biso   1.000  N
  N3       1.0000 0.61146  0.16960  0.41004  Biso   1.000  N
  N4       1.0000 0.54248  0.67640  0.37142  Biso   1.000  N
  N5       1.0000 0.58191  0.12980  0.48557  Biso   1.000  N
  N6       1.0000 0.63639  0.21060  0.33262  Biso   1.000  N
  O1       1.0000 0.74451  0.56840  0.20479  Biso   1.000  O
  O2       1.0000 0.67589  0.71340  0.22120  Biso   1.000  O
  O3       1.0000 0.38296  0.40890  0.35208  Biso   1.000  O
  O4       1.0000 0.41387  0.24530  0.29110  Biso   1.000  O
  O5       1.0000 0.70132  0.28320  0.61845  Biso   1.000  O
  O6       1.0000 0.69584  0.96780  0.61035  Biso   1.000  O
  Sr1      1.0000 0.71354  0.86426  0.14340  Biso   1.000  Sr
  C22      1.0000 0.93418  0.16000  0.88442  Biso   1.000  C
  C23      1.0000 0.88870  0.89830  0.86543  Biso   1.000  C
  C24      1.0000 0.91410  0.93900  0.94082  Biso   1.000  C
  C25      1.0000 0.93320  0.98900  0.02604  Biso   1.000  C
  H28      1.0000 0.94610  0.11280  0.01490  Biso   1.000  H
  H29      1.0000 0.95850  0.92180  0.04350  Biso   1.000  H
  C26      1.0000 0.89860  0.68270  0.99990  Biso   1.000  C
  H30      1.0000 0.92330  0.60890  0.01660  Biso   1.000  H
  H31      1.0000 0.88930  0.60880  0.97190  Biso   1.000  H
  C27      1.0000 0.97578  0.46310  0.90610  Biso   1.000  C
  H32      1.0000 0.97590  0.40360  0.93740  Biso   1.000  H
  H33      1.0000 0.95470  0.57660  0.90710  Biso   1.000  H
  C28      1.0000 0.95852  0.39190  0.82234  Biso   1.000  C
  H34      1.0000 0.93750  0.50480  0.81890  Biso   1.000  H
  H35      1.0000 0.94680  0.28960  0.80140  Biso   1.000  H
  C29      1.0000 0.85330  0.87420  0.78566  Biso   1.000  C
  H36      1.0000 0.88040  0.95510  0.77580  Biso   1.000  H
  H37      1.0000 0.82480  0.95670  0.78770  Biso   1.000  H
  C30      1.0000 0.82800  0.64620  0.84945  Biso   1.000  C
  H38      1.0000 0.79770  0.71230  0.85630  Biso   1.000  H
  H39      1.0000 0.83950  0.58700  0.87870  Biso   1.000  H
  C31      1.0000 0.84489  0.71380  0.74908  Biso   1.000  C
  H40      1.0000 0.83620  0.77250  0.71890  Biso   1.000  H
  H41      1.0000 0.87460  0.64020  0.74460  Biso   1.000  H
  C32      1.0000 0.81918  0.48620  0.81238  Biso   1.000  C
  H42      1.0000 0.84840  0.40920  0.80840  Biso   1.000  H
  H43      1.0000 0.79370  0.39970  0.82330  Biso   1.000  H
  C33      1.0000 0.80478  0.57590  0.76483  Biso   1.000  C
  H44      1.0000 0.77540  0.65300  0.76970  Biso   1.000  H
  C34      1.0000 0.01027  0.44690  0.80887  Biso   1.000  C
  H45      1.0000 0.03040  0.33070  0.80950  Biso   1.000  H
  H46      1.0000 0.01070  0.49890  0.77680  Biso   1.000  H
  C35      1.0000 0.03083  0.59840  0.84291  Biso   1.000  C
  H47      1.0000 0.01130  0.71800  0.84010  Biso   1.000  H
  C36      1.0000 0.02681  0.52630  0.89298  Biso   1.000  C
  H48      1.0000 0.03700  0.62940  0.91440  Biso   1.000  H
  H49      1.0000 0.04860  0.41640  0.89720  Biso   1.000  H
  C37      1.0000 0.89010  0.02550  0.05833  Biso   1.000  C
  H50      1.0000 0.90080  0.09860  0.08600  Biso   1.000  H
  H51      1.0000 0.86660  0.10510  0.04150  Biso   1.000  H
  C38      1.0000 0.86585  0.83830  0.07471  Biso   1.000  C
  H52      1.0000 0.88920  0.76800  0.09470  Biso   1.000  H
  C39      1.0000 0.85549  0.70830  0.03147  Biso   1.000  C
  H53      1.0000 0.84480  0.58080  0.04240  Biso   1.000  H
  H54      1.0000 0.82930  0.76570  0.01320  Biso   1.000  H
  C40      1.0000 0.79412  0.42400  0.72835  Biso   1.000  C
  C41      1.0000 0.08237  0.64870  0.82984  Biso   1.000  C
  C42      1.0000 0.82040  0.86700  0.10395  Biso   1.000  C
  N7       1.0000 0.91180  0.05630  0.85011  Biso   1.000  N
  N8       1.0000 0.93588  0.11090  0.93060  Biso   1.000  N
  N9       1.0000 0.88854  0.83040  0.91004  Biso   1.000  N
  N10      1.0000 0.95752  0.32360  0.87142  Biso   1.000  N
  N11      1.0000 0.91809  0.87020  0.98557  Biso   1.000  N
  N12      1.0000 0.86361  0.78940  0.83262  Biso   1.000  N
  O7       1.0000 0.75549  0.43160  0.70479  Biso   1.000  O
  O8       1.0000 0.82411  0.28660  0.72120  Biso   1.000  O
  O9       1.0000 0.11704  0.59110  0.85208  Biso   1.000  O
  O10      1.0000 0.08613  0.75470  0.79110  Biso   1.000  O
  O11      1.0000 0.79868  0.71680  0.11845  Biso   1.000  O
  O12      1.0000 0.80416  0.03220  0.11035  Biso   1.000  O
  Sr2      1.0000 0.78645  0.13574  0.64340  Biso   1.000  Sr
  C43      1.0000 0.43418  0.34000  0.11558  Biso   1.000  C
  C44      1.0000 0.38870  0.60170  0.13457  Biso   1.000  C
  C45      1.0000 0.41410  0.56100  0.05918  Biso   1.000  C
  C46      1.0000 0.43320  0.51100  0.97396  Biso   1.000  C
  H55      1.0000 0.44610  0.38720  0.98510  Biso   1.000  H
  H56      1.0000 0.45850  0.57820  0.95650  Biso   1.000  H
  C47      1.0000 0.39860  0.81730  0.00010  Biso   1.000  C
  H57      1.0000 0.42330  0.89110  0.98340  Biso   1.000  H
  H58      1.0000 0.38930  0.89120  0.02810  Biso   1.000  H
  C48      1.0000 0.47578  0.03690  0.09390  Biso   1.000  C
  H59      1.0000 0.47590  0.09640  0.06260  Biso   1.000  H
  H60      1.0000 0.45470  0.92340  0.09290  Biso   1.000  H
  C49      1.0000 0.45852  0.10810  0.17766  Biso   1.000  C
  H61      1.0000 0.43750  0.99520  0.18110  Biso   1.000  H
  H62      1.0000 0.44680  0.21040  0.19860  Biso   1.000  H
  C50      1.0000 0.35330  0.62580  0.21434  Biso   1.000  C
  H63      1.0000 0.38040  0.54490  0.22420  Biso   1.000  H
  H64      1.0000 0.32480  0.54330  0.21230  Biso   1.000  H
  C51      1.0000 0.32800  0.85380  0.15055  Biso   1.000  C
  H65      1.0000 0.29770  0.78770  0.14370  Biso   1.000  H
  H66      1.0000 0.33950  0.91300  0.12130  Biso   1.000  H
  C52      1.0000 0.34489  0.78620  0.25092  Biso   1.000  C
  H67      1.0000 0.33620  0.72750  0.28110  Biso   1.000  H
  H68      1.0000 0.37460  0.85980  0.25540  Biso   1.000  H
  C53      1.0000 0.31918  0.01380  0.18762  Biso   1.000  C
  H69      1.0000 0.34840  0.09080  0.19160  Biso   1.000  H
  H70      1.0000 0.29370  0.10030  0.17670  Biso   1.000  H
  C54      1.0000 0.30478  0.92410  0.23517  Biso   1.000  C
  H71      1.0000 0.27540  0.84700  0.23030  Biso   1.000  H
  C55      1.0000 0.51027  0.05310  0.19113  Biso   1.000  C
  H72      1.0000 0.53040  0.16930  0.19050  Biso   1.000  H
  H73      1.0000 0.51070  0.00110  0.22320  Biso   1.000  H
  C56      1.0000 0.53083  0.90160  0.15709  Biso   1.000  C
  H74      1.0000 0.51130  0.78200  0.15990  Biso   1.000  H
  C57      1.0000 0.52681  0.97370  0.10702  Biso   1.000  C
  H75      1.0000 0.53700  0.87060  0.08560  Biso   1.000  H
  H76      1.0000 0.54860  0.08360  0.10280  Biso   1.000  H
  C58      1.0000 0.39010  0.47450  0.94167  Biso   1.000  C
  H77      1.0000 0.40080  0.40140  0.91400  Biso   1.000  H
  H78      1.0000 0.36660  0.39490  0.95850  Biso   1.000  H
  C59      1.0000 0.36585  0.66170  0.92529  Biso   1.000  C
  H79      1.0000 0.38920  0.73200  0.90530  Biso   1.000  H
  C60      1.0000 0.35549  0.79170  0.96853  Biso   1.000  C
  H80      1.0000 0.34480  0.91920  0.95760  Biso   1.000  H
  H81      1.0000 0.32930  0.73430  0.98680  Biso   1.000  H
  C61      1.0000 0.29412  0.07600  0.27165  Biso   1.000  C
  C62      1.0000 0.58237  0.85130  0.17016  Biso   1.000  C
  C63      1.0000 0.32040  0.63300  0.89605  Biso   1.000  C
  N13      1.0000 0.41180  0.44370  0.14989  Biso   1.000  N
  N14      1.0000 0.43588  0.38910  0.06940  Biso   1.000  N
  N15      1.0000 0.38854  0.66960  0.08996  Biso   1.000  N
  N16      1.0000 0.45752  0.17640  0.12858  Biso   1.000  N
  N17      1.0000 0.41809  0.62980  0.01443  Biso   1.000  N
  N18      1.0000 0.36361  0.71060  0.16738  Biso   1.000  N
  O13      1.0000 0.25549  0.06840  0.29521  Biso   1.000  O
  O14      1.0000 0.32411  0.21340  0.27880  Biso   1.000  O
  O15      1.0000 0.61704  0.90890  0.14792  Biso   1.000  O
  O16      1.0000 0.58613  0.74530  0.20890  Biso   1.000  O
  O17      1.0000 0.29868  0.78320  0.88155  Biso   1.000  O
  O18      1.0000 0.30416  0.46780  0.88965  Biso   1.000  O
  Sr3      1.0000 0.28646  0.36426  0.35660  Biso   1.000  Sr
  C64      1.0000 0.06582  0.66000  0.61558  Biso   1.000  C
  C65      1.0000 0.11130  0.39830  0.63457  Biso   1.000  C
  C66      1.0000 0.08590  0.43900  0.55918  Biso   1.000  C
  C67      1.0000 0.06680  0.48900  0.47396  Biso   1.000  C
  H82      1.0000 0.05390  0.61280  0.48510  Biso   1.000  H
  H83      1.0000 0.04150  0.42180  0.45650  Biso   1.000  H
  C68      1.0000 0.10140  0.18270  0.50010  Biso   1.000  C
  H84      1.0000 0.07670  0.10890  0.48340  Biso   1.000  H
  H85      1.0000 0.11070  0.10880  0.52810  Biso   1.000  H
  C69      1.0000 0.02422  0.96310  0.59390  Biso   1.000  C
  H86      1.0000 0.02410  0.90360  0.56260  Biso   1.000  H
  H87      1.0000 0.04530  0.07660  0.59290  Biso   1.000  H
  C70      1.0000 0.04148  0.89190  0.67766  Biso   1.000  C
  H88      1.0000 0.06250  0.00480  0.68110  Biso   1.000  H
  H89      1.0000 0.05320  0.78960  0.69860  Biso   1.000  H
  C71      1.0000 0.14670  0.37420  0.71434  Biso   1.000  C
  H90      1.0000 0.11960  0.45510  0.72420  Biso   1.000  H
  H91      1.0000 0.17520  0.45670  0.71230  Biso   1.000  H
  C72      1.0000 0.17200  0.14620  0.65055  Biso   1.000  C
  H92      1.0000 0.20230  0.21230  0.64370  Biso   1.000  H
  H93      1.0000 0.16050  0.08700  0.62130  Biso   1.000  H
  C73      1.0000 0.15511  0.21380  0.75092  Biso   1.000  C
  H94      1.0000 0.16380  0.27250  0.78110  Biso   1.000  H
  H95      1.0000 0.12540  0.14020  0.75540  Biso   1.000  H
  C74      1.0000 0.18082  0.98620  0.68762  Biso   1.000  C
  H96      1.0000 0.15160  0.90920  0.69160  Biso   1.000  H
  H97      1.0000 0.20630  0.89970  0.67670  Biso   1.000  H
  C75      1.0000 0.19522  0.07590  0.73517  Biso   1.000  C
  H98      1.0000 0.22460  0.15300  0.73030  Biso   1.000  H
  C76      1.0000 0.98973  0.94690  0.69113  Biso   1.000  C
  H99      1.0000 0.96960  0.83070  0.69050  Biso   1.000  H
  H100     1.0000 0.98930  0.99890  0.72320  Biso   1.000  H
  C77      1.0000 0.96917  0.09840  0.65709  Biso   1.000  C
  H101     1.0000 0.98870  0.21800  0.65990  Biso   1.000  H
  C78      1.0000 0.97319  0.02630  0.60702  Biso   1.000  C
  H102     1.0000 0.96300  0.12940  0.58560  Biso   1.000  H
  H103     1.0000 0.95140  0.91640  0.60280  Biso   1.000  H
  C79      1.0000 0.10990  0.52550  0.44167  Biso   1.000  C
  H104     1.0000 0.09920  0.59860  0.41400  Biso   1.000  H
  H105     1.0000 0.13340  0.60510  0.45850  Biso   1.000  H
  C80      1.0000 0.13415  0.33830  0.42529  Biso   1.000  C
  H106     1.0000 0.11080  0.26800  0.40530  Biso   1.000  H
  C81      1.0000 0.14451  0.20830  0.46853  Biso   1.000  C
  H107     1.0000 0.15520  0.08080  0.45760  Biso   1.000  H
  H108     1.0000 0.17070  0.26570  0.48680  Biso   1.000  H
  C82      1.0000 0.20588  0.92400  0.77165  Biso   1.000  C
  C83      1.0000 0.91763  0.14870  0.67016  Biso   1.000  C
  C84      1.0000 0.17960  0.36700  0.39605  Biso   1.000  C
  N19      1.0000 0.08820  0.55630  0.64989  Biso   1.000  N
  N20      1.0000 0.06412  0.61090  0.56940  Biso   1.000  N
  N21      1.0000 0.11146  0.33040  0.58996  Biso   1.000  N
  N22      1.0000 0.04248  0.82360  0.62858  Biso   1.000  N
  N23      1.0000 0.08191  0.37020  0.51443  Biso   1.000  N
  N24      1.0000 0.13639  0.28940  0.66738  Biso   1.000  N
  O19      1.0000 0.24451  0.93160  0.79521  Biso   1.000  O
  O20      1.0000 0.17589  0.78660  0.77880  Biso   1.000  O
  O21      1.0000 0.88296  0.09110  0.64792  Biso   1.000  O
  O22      1.0000 0.91387  0.25470  0.70890  Biso   1.000  O
  O23      1.0000 0.20132  0.21680  0.38155  Biso   1.000  O
  O24      1.0000 0.19584  0.53220  0.38965  Biso   1.000  O
  Sr4      1.0000 0.21354  0.63574  0.85660  Biso   1.000  Sr
  C85      1.0000 0.43418  0.16000  0.61558  Biso   1.000  C
  C86      1.0000 0.38870  0.89830  0.63457  Biso   1.000  C
  C87      1.0000 0.41410  0.93900  0.55918  Biso   1.000  C
  C88      1.0000 0.43320  0.98900  0.47396  Biso   1.000  C
  H109     1.0000 0.44610  0.11280  0.48510  Biso   1.000  H
  H110     1.0000 0.45850  0.92180  0.45650  Biso   1.000  H
  C89      1.0000 0.39860  0.68270  0.50010  Biso   1.000  C
  H111     1.0000 0.42330  0.60890  0.48340  Biso   1.000  H
  H112     1.0000 0.38930  0.60880  0.52810  Biso   1.000  H
  C90      1.0000 0.47578  0.46310  0.59390  Biso   1.000  C
  H113     1.0000 0.47590  0.40360  0.56260  Biso   1.000  H
  H114     1.0000 0.45470  0.57660  0.59290  Biso   1.000  H
  C91      1.0000 0.45852  0.39190  0.67766  Biso   1.000  C
  H115     1.0000 0.43750  0.50480  0.68110  Biso   1.000  H
  H116     1.0000 0.44680  0.28960  0.69860  Biso   1.000  H
  C92      1.0000 0.35330  0.87420  0.71434  Biso   1.000  C
  H117     1.0000 0.38040  0.95510  0.72420  Biso   1.000  H
  H118     1.0000 0.32480  0.95670  0.71230  Biso   1.000  H
  C93      1.0000 0.32800  0.64620  0.65055  Biso   1.000  C
  H119     1.0000 0.29770  0.71230  0.64370  Biso   1.000  H
  H120     1.0000 0.33950  0.58700  0.62130  Biso   1.000  H
  C94      1.0000 0.34489  0.71380  0.75092  Biso   1.000  C
  H121     1.0000 0.33620  0.77250  0.78110  Biso   1.000  H
  H122     1.0000 0.37460  0.64020  0.75540  Biso   1.000  H
  C95      1.0000 0.31918  0.48620  0.68762  Biso   1.000  C
  H123     1.0000 0.34840  0.40920  0.69160  Biso   1.000  H
  H124     1.0000 0.29370  0.39970  0.67670  Biso   1.000  H
  C96      1.0000 0.30478  0.57590  0.73517  Biso   1.000  C
  H125     1.0000 0.27540  0.65300  0.73030  Biso   1.000  H
  C97      1.0000 0.51027  0.44690  0.69113  Biso   1.000  C
  H126     1.0000 0.53040  0.33070  0.69050  Biso   1.000  H
  H127     1.0000 0.51070  0.49890  0.72320  Biso   1.000  H
  C98      1.0000 0.53083  0.59840  0.65709  Biso   1.000  C
  H128     1.0000 0.51130  0.71800  0.65990  Biso   1.000  H
  C99      1.0000 0.52681  0.52630  0.60702  Biso   1.000  C
  H129     1.0000 0.53700  0.62940  0.58560  Biso   1.000  H
  H130     1.0000 0.54860  0.41640  0.60280  Biso   1.000  H
  C100     1.0000 0.39010  0.02550  0.44167  Biso   1.000  C
  H131     1.0000 0.40080  0.09860  0.41400  Biso   1.000  H
  H132     1.0000 0.36660  0.10510  0.45850  Biso   1.000  H
  C101     1.0000 0.36585  0.83830  0.42529  Biso   1.000  C
  H133     1.0000 0.38920  0.76800  0.40530  Biso   1.000  H
  C102     1.0000 0.35549  0.70830  0.46853  Biso   1.000  C
  H134     1.0000 0.34480  0.58080  0.45760  Biso   1.000  H
  H135     1.0000 0.32930  0.76570  0.48680  Biso   1.000  H
  C103     1.0000 0.29412  0.42400  0.77165  Biso   1.000  C
  C104     1.0000 0.58237  0.64870  0.67016  Biso   1.000  C
  C105     1.0000 0.32040  0.86700  0.39605  Biso   1.000  C
  N25      1.0000 0.41180  0.05630  0.64989  Biso   1.000  N
  N26      1.0000 0.43588  0.11090  0.56940  Biso   1.000  N
  N27      1.0000 0.38854  0.83040  0.58996  Biso   1.000  N
  N28      1.0000 0.45752  0.32360  0.62858  Biso   1.000  N
  N29      1.0000 0.41809  0.87020  0.51443  Biso   1.000  N
  N30      1.0000 0.36361  0.78940  0.66738  Biso   1.000  N
  O25      1.0000 0.25549  0.43160  0.79521  Biso   1.000  O
  O26      1.0000 0.32411  0.28660  0.77880  Biso   1.000  O
  O27      1.0000 0.61704  0.59110  0.64792  Biso   1.000  O
  O28      1.0000 0.58613  0.75470  0.70890  Biso   1.000  O
  O29      1.0000 0.29868  0.71680  0.38155  Biso   1.000  O
  O30      1.0000 0.30416  0.03220  0.38965  Biso   1.000  O
  Sr5      1.0000 0.28646  0.13574  0.85660  Biso   1.000  Sr
  C106     1.0000 0.06582  0.84000  0.11558  Biso   1.000  C
  C107     1.0000 0.11130  0.10170  0.13457  Biso   1.000  C
  C108     1.0000 0.08590  0.06100  0.05918  Biso   1.000  C
  C109     1.0000 0.06680  0.01100  0.97396  Biso   1.000  C
  H136     1.0000 0.05390  0.88720  0.98510  Biso   1.000  H
  H137     1.0000 0.04150  0.07820  0.95650  Biso   1.000  H
  C110     1.0000 0.10140  0.31730  0.00010  Biso   1.000  C
  H138     1.0000 0.07670  0.39110  0.98340  Biso   1.000  H
  H139     1.0000 0.11070  0.39120  0.02810  Biso   1.000  H
  C111     1.0000 0.02422  0.53690  0.09390  Biso   1.000  C
  H140     1.0000 0.02410  0.59640  0.06260  Biso   1.000  H
  H141     1.0000 0.04530  0.42340  0.09290  Biso   1.000  H
  C112     1.0000 0.04148  0.60810  0.17766  Biso   1.000  C
  H142     1.0000 0.06250  0.49520  0.18110  Biso   1.000  H
  H143     1.0000 0.05320  0.71040  0.19860  Biso   1.000  H
  C113     1.0000 0.14670  0.12580  0.21434  Biso   1.000  C
  H144     1.0000 0.11960  0.04490  0.22420  Biso   1.000  H
  H145     1.0000 0.17520  0.04330  0.21230  Biso   1.000  H
  C114     1.0000 0.17200  0.35380  0.15055  Biso   1.000  C
  H146     1.0000 0.20230  0.28770  0.14370  Biso   1.000  H
  H147     1.0000 0.16050  0.41300  0.12130  Biso   1.000  H
  C115     1.0000 0.15511  0.28620  0.25092  Biso   1.000  C
  H148     1.0000 0.16380  0.22750  0.28110  Biso   1.000  H
  H149     1.0000 0.12540  0.35980  0.25540  Biso   1.000  H
  C116     1.0000 0.18082  0.51380  0.18762  Biso   1.000  C
  H150     1.0000 0.15160  0.59080  0.19160  Biso   1.000  H
  H151     1.0000 0.20630  0.60030  0.17670  Biso   1.000  H
  C117     1.0000 0.19522  0.42410  0.23517  Biso   1.000  C
  H152     1.0000 0.22460  0.34700  0.23030  Biso   1.000  H
  C118     1.0000 0.98973  0.55310  0.19113  Biso   1.000  C
  H153     1.0000 0.96960  0.66930  0.19050  Biso   1.000  H
  H154     1.0000 0.98930  0.50110  0.22320  Biso   1.000  H
  C119     1.0000 0.96917  0.40160  0.15709  Biso   1.000  C
  H155     1.0000 0.98870  0.28200  0.15990  Biso   1.000  H
  C120     1.0000 0.97319  0.47370  0.10702  Biso   1.000  C
  H156     1.0000 0.96300  0.37060  0.08560  Biso   1.000  H
  H157     1.0000 0.95140  0.58360  0.10280  Biso   1.000  H
  C121     1.0000 0.10990  0.97450  0.94167  Biso   1.000  C
  H158     1.0000 0.09920  0.90140  0.91400  Biso   1.000  H
  H159     1.0000 0.13340  0.89490  0.95850  Biso   1.000  H
  C122     1.0000 0.13415  0.16170  0.92529  Biso   1.000  C
  H160     1.0000 0.11080  0.23200  0.90530  Biso   1.000  H
  C123     1.0000 0.14451  0.29170  0.96853  Biso   1.000  C
  H161     1.0000 0.15520  0.41920  0.95760  Biso   1.000  H
  H162     1.0000 0.17070  0.23430  0.98680  Biso   1.000  H
  C124     1.0000 0.20588  0.57600  0.27165  Biso   1.000  C
  C125     1.0000 0.91763  0.35130  0.17016  Biso   1.000  C
  C126     1.0000 0.17960  0.13300  0.89605  Biso   1.000  C
  N31      1.0000 0.08820  0.94370  0.14989  Biso   1.000  N
  N32      1.0000 0.06412  0.88910  0.06940  Biso   1.000  N
  N33      1.0000 0.11146  0.16960  0.08996  Biso   1.000  N
  N34      1.0000 0.04248  0.67640  0.12858  Biso   1.000  N
  N35      1.0000 0.08191  0.12980  0.01443  Biso   1.000  N
  N36      1.0000 0.13639  0.21060  0.16738  Biso   1.000  N
  O31      1.0000 0.24451  0.56840  0.29521  Biso   1.000  O
  O32      1.0000 0.17589  0.71340  0.27880  Biso   1.000  O
  O33      1.0000 0.88296  0.40890  0.14792  Biso   1.000  O
  O34      1.0000 0.91387  0.24530  0.20890  Biso   1.000  O
  O35      1.0000 0.20132  0.28320  0.88155  Biso   1.000  O
  O36      1.0000 0.19584  0.96780  0.88965  Biso   1.000  O
  Sr6      1.0000 0.21354  0.86426  0.35660  Biso   1.000  Sr
  C127     1.0000 0.56582  0.66000  0.88442  Biso   1.000  C
  C128     1.0000 0.61130  0.39830  0.86543  Biso   1.000  C
  C129     1.0000 0.58590  0.43900  0.94082  Biso   1.000  C
  C130     1.0000 0.56680  0.48900  0.02604  Biso   1.000  C
  H163     1.0000 0.55390  0.61280  0.01490  Biso   1.000  H
  H164     1.0000 0.54150  0.42180  0.04350  Biso   1.000  H
  C131     1.0000 0.60140  0.18270  0.99990  Biso   1.000  C
  H165     1.0000 0.57670  0.10890  0.01660  Biso   1.000  H
  H166     1.0000 0.61070  0.10880  0.97190  Biso   1.000  H
  C132     1.0000 0.52422  0.96310  0.90610  Biso   1.000  C
  H167     1.0000 0.52410  0.90360  0.93740  Biso   1.000  H
  H168     1.0000 0.54530  0.07660  0.90710  Biso   1.000  H
  C133     1.0000 0.54148  0.89190  0.82234  Biso   1.000  C
  H169     1.0000 0.56250  0.00480  0.81890  Biso   1.000  H
  H170     1.0000 0.55320  0.78960  0.80140  Biso   1.000  H
  C134     1.0000 0.64670  0.37420  0.78566  Biso   1.000  C
  H171     1.0000 0.61960  0.45510  0.77580  Biso   1.000  H
  H172     1.0000 0.67520  0.45670  0.78770  Biso   1.000  H
  C135     1.0000 0.67200  0.14620  0.84945  Biso   1.000  C
  H173     1.0000 0.70230  0.21230  0.85630  Biso   1.000  H
  H174     1.0000 0.66050  0.08700  0.87870  Biso   1.000  H
  C136     1.0000 0.65511  0.21380  0.74908  Biso   1.000  C
  H175     1.0000 0.66380  0.27250  0.71890  Biso   1.000  H
  H176     1.0000 0.62540  0.14020  0.74460  Biso   1.000  H
  C137     1.0000 0.68082  0.98620  0.81238  Biso   1.000  C
  H177     1.0000 0.65160  0.90920  0.80840  Biso   1.000  H
  H178     1.0000 0.70630  0.89970  0.82330  Biso   1.000  H
  C138     1.0000 0.69522  0.07590  0.76483  Biso   1.000  C
  H179     1.0000 0.72460  0.15300  0.76970  Biso   1.000  H
  C139     1.0000 0.48973  0.94690  0.80887  Biso   1.000  C
  H180     1.0000 0.46960  0.83070  0.80950  Biso   1.000  H
  H181     1.0000 0.48930  0.99890  0.77680  Biso   1.000  H
  C140     1.0000 0.46917  0.09840  0.84291  Biso   1.000  C
  H182     1.0000 0.48870  0.21800  0.84010  Biso   1.000  H
  C141     1.0000 0.47319  0.02630  0.89298  Biso   1.000  C
  H183     1.0000 0.46300  0.12940  0.91440  Biso   1.000  H
  H184     1.0000 0.45140  0.91640  0.89720  Biso   1.000  H
  C142     1.0000 0.60990  0.52550  0.05833  Biso   1.000  C
  H185     1.0000 0.59920  0.59860  0.08600  Biso   1.000  H
  H186     1.0000 0.63340  0.60510  0.04150  Biso   1.000  H
  C143     1.0000 0.63415  0.33830  0.07471  Biso   1.000  C
  H187     1.0000 0.61080  0.26800  0.09470  Biso   1.000  H
  C144     1.0000 0.64451  0.20830  0.03147  Biso   1.000  C
  H188     1.0000 0.65520  0.08080  0.04240  Biso   1.000  H
  H189     1.0000 0.67070  0.26570  0.01320  Biso   1.000  H
  C145     1.0000 0.70588  0.92400  0.72835  Biso   1.000  C
  C146     1.0000 0.41763  0.14870  0.82984  Biso   1.000  C
  C147     1.0000 0.67960  0.36700  0.10395  Biso   1.000  C
  N37      1.0000 0.58820  0.55630  0.85011  Biso   1.000  N
  N38      1.0000 0.56412  0.61090  0.93060  Biso   1.000  N
  N39      1.0000 0.61146  0.33040  0.91004  Biso   1.000  N
  N40      1.0000 0.54248  0.82360  0.87142  Biso   1.000  N
  N41      1.0000 0.58191  0.37020  0.98557  Biso   1.000  N
  N42      1.0000 0.63639  0.28940  0.83262  Biso   1.000  N
  O37      1.0000 0.74451  0.93160  0.70479  Biso   1.000  O
  O38      1.0000 0.67589  0.78660  0.72120  Biso   1.000  O
  O39      1.0000 0.38296  0.09110  0.85208  Biso   1.000  O
  O40      1.0000 0.41387  0.25470  0.79110  Biso   1.000  O
  O41      1.0000 0.70132  0.21680  0.11845  Biso   1.000  O
  O42      1.0000 0.69584  0.53220  0.11035  Biso   1.000  O
  Sr7      1.0000 0.71354  0.63574  0.64340  Biso   1.000  Sr
  C148     1.0000 0.93418  0.34000  0.38442  Biso   1.000  C
  C149     1.0000 0.88870  0.60170  0.36543  Biso   1.000  C
  C150     1.0000 0.91410  0.56100  0.44082  Biso   1.000  C
  C151     1.0000 0.93320  0.51100  0.52604  Biso   1.000  C
  H190     1.0000 0.94610  0.38720  0.51490  Biso   1.000  H
  H191     1.0000 0.95850  0.57820  0.54350  Biso   1.000  H
  C152     1.0000 0.89860  0.81730  0.49990  Biso   1.000  C
  H192     1.0000 0.92330  0.89110  0.51660  Biso   1.000  H
  H193     1.0000 0.88930  0.89120  0.47190  Biso   1.000  H
  C153     1.0000 0.97578  0.03690  0.40610  Biso   1.000  C
  H194     1.0000 0.97590  0.09640  0.43740  Biso   1.000  H
  H195     1.0000 0.95470  0.92340  0.40710  Biso   1.000  H
  C154     1.0000 0.95852  0.10810  0.32234  Biso   1.000  C
  H196     1.0000 0.93750  0.99520  0.31890  Biso   1.000  H
  H197     1.0000 0.94680  0.21040  0.30140  Biso   1.000  H
  C155     1.0000 0.85330  0.62580  0.28566  Biso   1.000  C
  H198     1.0000 0.88040  0.54490  0.27580  Biso   1.000  H
  H199     1.0000 0.82480  0.54330  0.28770  Biso   1.000  H
  C156     1.0000 0.82800  0.85380  0.34945  Biso   1.000  C
  H200     1.0000 0.79770  0.78770  0.35630  Biso   1.000  H
  H201     1.0000 0.83950  0.91300  0.37870  Biso   1.000  H
  C157     1.0000 0.84489  0.78620  0.24908  Biso   1.000  C
  H202     1.0000 0.83620  0.72750  0.21890  Biso   1.000  H
  H203     1.0000 0.87460  0.85980  0.24460  Biso   1.000  H
  C158     1.0000 0.81918  0.01380  0.31238  Biso   1.000  C
  H204     1.0000 0.84840  0.09080  0.30840  Biso   1.000  H
  H205     1.0000 0.79370  0.10030  0.32330  Biso   1.000  H
  C159     1.0000 0.80478  0.92410  0.26483  Biso   1.000  C
  H206     1.0000 0.77540  0.84700  0.26970  Biso   1.000  H
  C160     1.0000 0.01027  0.05310  0.30887  Biso   1.000  C
  H207     1.0000 0.03040  0.16930  0.30950  Biso   1.000  H
  H208     1.0000 0.01070  0.00110  0.27680  Biso   1.000  H
  C161     1.0000 0.03083  0.90160  0.34291  Biso   1.000  C
  H209     1.0000 0.01130  0.78200  0.34010  Biso   1.000  H
  C162     1.0000 0.02681  0.97370  0.39298  Biso   1.000  C
  H210     1.0000 0.03700  0.87060  0.41440  Biso   1.000  H
  H211     1.0000 0.04860  0.08360  0.39720  Biso   1.000  H
  C163     1.0000 0.89010  0.47450  0.55833  Biso   1.000  C
  H212     1.0000 0.90080  0.40140  0.58600  Biso   1.000  H
  H213     1.0000 0.86660  0.39490  0.54150  Biso   1.000  H
  C164     1.0000 0.86585  0.66170  0.57471  Biso   1.000  C
  H214     1.0000 0.88920  0.73200  0.59470  Biso   1.000  H
  C165     1.0000 0.85549  0.79170  0.53147  Biso   1.000  C
  H215     1.0000 0.84480  0.91920  0.54240  Biso   1.000  H
  H216     1.0000 0.82930  0.73430  0.51320  Biso   1.000  H
  C166     1.0000 0.79412  0.07600  0.22835  Biso   1.000  C
  C167     1.0000 0.08237  0.85130  0.32984  Biso   1.000  C
  C168     1.0000 0.82040  0.63300  0.60395  Biso   1.000  C
  N43      1.0000 0.91180  0.44370  0.35011  Biso   1.000  N
  N44      1.0000 0.93588  0.38910  0.43060  Biso   1.000  N
  N45      1.0000 0.88854  0.66960  0.41004  Biso   1.000  N
  N46      1.0000 0.95752  0.17640  0.37142  Biso   1.000  N
  N47      1.0000 0.91809  0.62980  0.48557  Biso   1.000  N
  N48      1.0000 0.86361  0.71060  0.33262  Biso   1.000  N
  O43      1.0000 0.75549  0.06840  0.20479  Biso   1.000  O
  O44      1.0000 0.82411  0.21340  0.22120  Biso   1.000  O
  O45      1.0000 0.11704  0.90890  0.35208  Biso   1.000  O
  O46      1.0000 0.08613  0.74530  0.29110  Biso   1.000  O
  O47      1.0000 0.79868  0.78320  0.61845  Biso   1.000  O
  O48      1.0000 0.80416  0.46780  0.61035  Biso   1.000  O
  Sr8      1.0000 0.78645  0.36426  0.14340  Biso   1.000  Sr
