data_image0
_cell_length_a       7.5781
_cell_length_b       9.8113
_cell_length_c       11.7986
_cell_angle_alpha    114.06
_cell_angle_beta     108.045
_cell_angle_gamma    91.344

_symmetry_space_group_name_H-M    "P 1"
_symmetry_int_tables_number       1

loop_
  _symmetry_equiv_pos_as_xyz
  'x, y, z'

loop_
  _atom_site_label
  _atom_site_occupancy
  _atom_site_fract_x
  _atom_site_fract_y
  _atom_site_fract_z
  _atom_site_thermal_displace_type
  _atom_site_B_iso_or_equiv
  _atom_site_type_symbol
  Cd1      1.0000 0.24247  0.48197  0.00163  Biso   1.000  Cd
  O1       1.0000 0.14000  0.22810  0.84760  Biso   1.000  O
  O2       1.0000 0.41090  0.43250  0.85040  Biso   1.000  O
  O3       1.0000 0.93590  0.41740  0.85830  Biso   1.000  O
  O4       1.0000 0.64300  0.60100  0.83920  Biso   1.000  O
  C1       1.0000 0.96400  0.26000  0.80800  Biso   1.000  C
  C2       1.0000 0.80800  0.14700  0.68800  Biso   1.000  C
  C3       1.0000 0.61300  0.17900  0.64950  Biso   1.000  C
  H1       1.0000 0.57120  0.26730  0.69940  Biso   1.000  H
  C4       1.0000 0.50800  0.06900  0.53680  Biso   1.000  C
  C5       1.0000 0.83600  0.99900  0.62200  Biso   1.000  C
  H2       1.0000 0.95300  0.97030  0.65580  Biso   1.000  H
  C6       1.0000 0.43400  0.52000  0.79800  Biso   1.000  C
  C7       1.0000 0.30300  0.52200  0.68230  Biso   1.000  C
  C8       1.0000 0.35500  0.56400  0.59600  Biso   1.000  C
  H3       1.0000 0.48450  0.59550  0.61600  Biso   1.000  H
  C9       1.0000 0.22600  0.56200  0.48400  Biso   1.000  C
  H4       1.0000 0.26600  0.58250  0.42330  Biso   1.000  H
  C10      1.0000 0.09000  0.48300  0.65760  Biso   1.000  C
  H5       1.0000 0.03890  0.46640  0.71620  Biso   1.000  H
  C11      1.0000 0.00800  0.52400  0.45950  Biso   1.000  C
  C12      1.0000 0.29900  0.10500  0.48800  Biso   1.000  C
  H6       1.0000 0.27120  0.20080  0.53670  Biso   1.000  H
  Cd2      1.0000 0.75753  0.51803  0.99837  Biso   1.000  Cd
  O5       1.0000 0.86000  0.77190  0.15240  Biso   1.000  O
  O6       1.0000 0.58910  0.56750  0.14960  Biso   1.000  O
  O7       1.0000 0.06410  0.58260  0.14170  Biso   1.000  O
  O8       1.0000 0.35700  0.39900  0.16080  Biso   1.000  O
  C13      1.0000 0.03600  0.74000  0.19200  Biso   1.000  C
  C14      1.0000 0.19200  0.85300  0.31200  Biso   1.000  C
  C15      1.0000 0.38700  0.82100  0.35050  Biso   1.000  C
  H7       1.0000 0.42880  0.73270  0.30060  Biso   1.000  H
  C16      1.0000 0.49200  0.93100  0.46320  Biso   1.000  C
  C17      1.0000 0.16400  0.00100  0.37800  Biso   1.000  C
  H8       1.0000 0.04700  0.02970  0.34420  Biso   1.000  H
  C18      1.0000 0.56600  0.48000  0.20200  Biso   1.000  C
  C19      1.0000 0.69700  0.47800  0.31770  Biso   1.000  C
  C20      1.0000 0.64500  0.43600  0.40400  Biso   1.000  C
  H9       1.0000 0.51550  0.40450  0.38400  Biso   1.000  H
  C21      1.0000 0.77400  0.43800  0.51600  Biso   1.000  C
  H10      1.0000 0.73400  0.41750  0.57670  Biso   1.000  H
  C22      1.0000 0.91000  0.51700  0.34240  Biso   1.000  C
  H11      1.0000 0.96110  0.53360  0.28380  Biso   1.000  H
  C23      1.0000 0.99200  0.47600  0.54050  Biso   1.000  C
  C24      1.0000 0.70100  0.89500  0.51200  Biso   1.000  C
  H12      1.0000 0.72880  0.79920  0.46330  Biso   1.000  H
