data_image0
_cell_length_a       8.7011
_cell_length_b       20.857
_cell_length_c       8.2868
_cell_angle_alpha    90
_cell_angle_beta     90
_cell_angle_gamma    90

_symmetry_space_group_name_H-M    "P 1"
_symmetry_int_tables_number       1

loop_
  _symmetry_equiv_pos_as_xyz
  'x, y, z'

loop_
  _atom_site_label
  _atom_site_occupancy
  _atom_site_fract_x
  _atom_site_fract_y
  _atom_site_fract_z
  _atom_site_thermal_displace_type
  _atom_site_B_iso_or_equiv
  _atom_site_type_symbol
  N1       1.0000 0.61930  0.92720  0.91770  Biso   1.000  N
  C1       1.0000 0.68480  0.87370  0.87230  Biso   1.000  C
  H1       1.0000 0.69860  0.86110  0.76430  Biso   1.000  H
  H2       1.0000 0.87450  0.77140  0.09590  Biso   1.000  H
  N2       1.0000 0.11930  0.42720  0.91770  Biso   1.000  N
  C2       1.0000 0.18480  0.37370  0.87230  Biso   1.000  C
  H3       1.0000 0.19860  0.36110  0.76430  Biso   1.000  H
  H4       1.0000 0.37450  0.27140  0.09590  Biso   1.000  H
  N3       1.0000 0.38070  0.07280  0.91770  Biso   1.000  N
  C3       1.0000 0.31520  0.12630  0.87230  Biso   1.000  C
  H5       1.0000 0.30140  0.13890  0.76430  Biso   1.000  H
  H6       1.0000 0.12550  0.22860  0.09590  Biso   1.000  H
  N4       1.0000 0.88070  0.57280  0.91770  Biso   1.000  N
  C4       1.0000 0.81520  0.62630  0.87230  Biso   1.000  C
  H7       1.0000 0.80140  0.63890  0.76430  Biso   1.000  H
  H8       1.0000 0.62550  0.72860  0.09590  Biso   1.000  H
  N5       1.0000 0.38070  0.92720  0.58230  Biso   1.000  N
  C5       1.0000 0.31520  0.87370  0.62770  Biso   1.000  C
  H9       1.0000 0.30140  0.86110  0.73570  Biso   1.000  H
  H10      1.0000 0.12550  0.77140  0.40410  Biso   1.000  H
  N6       1.0000 0.88070  0.42720  0.58230  Biso   1.000  N
  C6       1.0000 0.81520  0.37370  0.62770  Biso   1.000  C
  H11      1.0000 0.80140  0.36110  0.73570  Biso   1.000  H
  H12      1.0000 0.62550  0.27140  0.40410  Biso   1.000  H
  N7       1.0000 0.61930  0.07280  0.58230  Biso   1.000  N
  C7       1.0000 0.68480  0.12630  0.62770  Biso   1.000  C
  H13      1.0000 0.69860  0.13890  0.73570  Biso   1.000  H
  H14      1.0000 0.87450  0.22860  0.40410  Biso   1.000  H
  N8       1.0000 0.11930  0.57280  0.58230  Biso   1.000  N
  C8       1.0000 0.18480  0.62630  0.62770  Biso   1.000  C
  H15      1.0000 0.19860  0.63890  0.73570  Biso   1.000  H
  H16      1.0000 0.37450  0.72860  0.40410  Biso   1.000  H
  N9       1.0000 0.38070  0.07280  0.08230  Biso   1.000  N
  C9       1.0000 0.31520  0.12630  0.12770  Biso   1.000  C
  H17      1.0000 0.30140  0.13890  0.23570  Biso   1.000  H
  H18      1.0000 0.12550  0.22860  0.90410  Biso   1.000  H
  N10      1.0000 0.88070  0.57280  0.08230  Biso   1.000  N
  C10      1.0000 0.81520  0.62630  0.12770  Biso   1.000  C
  H19      1.0000 0.80140  0.63890  0.23570  Biso   1.000  H
  H20      1.0000 0.62550  0.72860  0.90410  Biso   1.000  H
  N11      1.0000 0.61930  0.92720  0.08230  Biso   1.000  N
  C11      1.0000 0.68480  0.87370  0.12770  Biso   1.000  C
  H21      1.0000 0.69860  0.86110  0.23570  Biso   1.000  H
  H22      1.0000 0.87450  0.77140  0.90410  Biso   1.000  H
  N12      1.0000 0.11930  0.42720  0.08230  Biso   1.000  N
  C12      1.0000 0.18480  0.37370  0.12770  Biso   1.000  C
  H23      1.0000 0.19860  0.36110  0.23570  Biso   1.000  H
  H24      1.0000 0.37450  0.27140  0.90410  Biso   1.000  H
  N13      1.0000 0.61930  0.07280  0.41770  Biso   1.000  N
  C13      1.0000 0.68480  0.12630  0.37230  Biso   1.000  C
  H25      1.0000 0.69860  0.13890  0.26430  Biso   1.000  H
  H26      1.0000 0.87450  0.22860  0.59590  Biso   1.000  H
  N14      1.0000 0.11930  0.57280  0.41770  Biso   1.000  N
  C14      1.0000 0.18480  0.62630  0.37230  Biso   1.000  C
  H27      1.0000 0.19860  0.63890  0.26430  Biso   1.000  H
  H28      1.0000 0.37450  0.72860  0.59590  Biso   1.000  H
  N15      1.0000 0.38070  0.92720  0.41770  Biso   1.000  N
  C15      1.0000 0.31520  0.87370  0.37230  Biso   1.000  C
  H29      1.0000 0.30140  0.86110  0.26430  Biso   1.000  H
  H30      1.0000 0.12550  0.77140  0.59590  Biso   1.000  H
  N16      1.0000 0.88070  0.42720  0.41770  Biso   1.000  N
  C16      1.0000 0.81520  0.37370  0.37230  Biso   1.000  C
  H31      1.0000 0.80140  0.36110  0.26430  Biso   1.000  H
  H32      1.0000 0.62550  0.27140  0.59590  Biso   1.000  H
  Ag1      1.0000 0.50000  0.00000  0.75000  Biso   1.000  Ag
  Ag2      1.0000 0.00000  0.50000  0.75000  Biso   1.000  Ag
  Ag3      1.0000 0.50000  0.00000  0.25000  Biso   1.000  Ag
  Ag4      1.0000 0.00000  0.50000  0.25000  Biso   1.000  Ag
  N17      1.0000 0.72950  0.83910  0.00000  Biso   1.000  N
  C17      1.0000 0.80930  0.77540  0.00000  Biso   1.000  C
  N18      1.0000 0.22950  0.33910  0.00000  Biso   1.000  N
  C18      1.0000 0.30930  0.27540  0.00000  Biso   1.000  C
  N19      1.0000 0.27050  0.16090  0.00000  Biso   1.000  N
  C19      1.0000 0.19070  0.22460  0.00000  Biso   1.000  C
  N20      1.0000 0.77050  0.66090  0.00000  Biso   1.000  N
  C20      1.0000 0.69070  0.72460  0.00000  Biso   1.000  C
  N21      1.0000 0.27050  0.83910  0.50000  Biso   1.000  N
  C21      1.0000 0.19070  0.77540  0.50000  Biso   1.000  C
  N22      1.0000 0.77050  0.33910  0.50000  Biso   1.000  N
  C22      1.0000 0.69070  0.27540  0.50000  Biso   1.000  C
  N23      1.0000 0.72950  0.16090  0.50000  Biso   1.000  N
  C23      1.0000 0.80930  0.22460  0.50000  Biso   1.000  C
  N24      1.0000 0.22950  0.66090  0.50000  Biso   1.000  N
  C24      1.0000 0.30930  0.72460  0.50000  Biso   1.000  C
