data_FAFDEX_clean
_audit_creation_date              2014-07-02
_audit_creation_method            'Materials Studio'
_symmetry_space_group_name_H-M    'P1'
_symmetry_Int_Tables_number       1
_symmetry_cell_setting            triclinic
loop_
_symmetry_equiv_pos_as_xyz
  x,y,z
_cell_length_a                    5.8478
_cell_length_b                    9.1080
_cell_length_c                    11.0349
_cell_angle_alpha                 91.7130
_cell_angle_beta                  93.0540
_cell_angle_gamma                 97.6720
loop_
_atom_site_label
_atom_site_type_symbol
_atom_site_fract_x
_atom_site_fract_y
_atom_site_fract_z
_atom_site_U_iso_or_equiv
_atom_site_adp_type
_atom_site_occupancy
K1     K     0.17790   0.95420   0.57480   0.01267  Uiso   1.00
Mn1    Mn    0.55680   0.85471   0.84498   0.01267  Uiso   1.00
H1     H     0.16600   0.93700   0.86500   0.01267  Uiso   1.00
H2     H     0.11600   0.29700   0.65800   0.01267  Uiso   1.00
H3     H     0.75200   0.59300   0.78100   0.01267  Uiso   1.00
H4     H     0.90000   0.62600   0.56100   0.01267  Uiso   1.00
H5     H     0.02500   0.93700   0.30200   0.01267  Uiso   1.00
H6     H     0.37700   0.84400   0.07200   0.01267  Uiso   1.00
H7     H     0.56500   0.85500   0.63800   0.01267  Uiso   1.00
H8     H     0.70400   0.99100   0.63200   0.01267  Uiso   1.00
H9     H     0.26870   0.15440   0.96890   0.01267  Uiso   1.00
H10    H     0.05500   0.28870   0.85170   0.01267  Uiso   1.00
H11    H     0.36630   0.44900   0.92350   0.01267  Uiso   1.00
H12    H     0.46610   0.46830   0.67510   0.01267  Uiso   1.00
H13    H     0.74240   0.55050   0.39330   0.01267  Uiso   1.00
H14    H     0.00490   0.68760   0.28080   0.01267  Uiso   1.00
H15    H     0.68280   0.94820   0.17150   0.01267  Uiso   1.00
H16    H     0.66440   0.63960   0.16220   0.01267  Uiso   1.00
C1     C     0.55820   0.19000   0.87370   0.01267  Uiso   1.00
C2     C     0.30340   0.14960   0.88490   0.01267  Uiso   1.00
C3     C     0.20090   0.26990   0.81840   0.01267  Uiso   1.00
C4     C     0.39380   0.40110   0.84790   0.01267  Uiso   1.00
C5     C     0.43510   0.51680   0.75190   0.01267  Uiso   1.00
C6     C     0.22170   0.59890   0.73430   0.01267  Uiso   1.00
C7     C     0.51380   0.70210   0.39320   0.01267  Uiso   1.00
C8     C     0.75170   0.65780   0.40830   0.01267  Uiso   1.00
C9     C     0.87840   0.73890   0.30770   0.01267  Uiso   1.00
C10    C     0.68810   0.85850   0.12450   0.01267  Uiso   1.00
C11    C     0.67890   0.73080   0.20960   0.01267  Uiso   1.00
C12    C     0.91070   0.87500   0.05510   0.01267  Uiso   1.00
O1     O     0.70170   0.10760   0.86970   0.01267  Uiso   1.00
O2     O     0.60940   0.33310   0.85960   0.01267  Uiso   1.00
O3     O     0.24960   0.00510   0.83690   0.01267  Uiso   1.00
O4     O     0.17310   0.23160   0.69470   0.01267  Uiso   1.00
O5     O     0.62820   0.62310   0.79060   0.01267  Uiso   1.00
O6     O     0.03630   0.51970   0.69470   0.01267  Uiso   1.00
O7     O     0.24350   0.73320   0.76070   0.01267  Uiso   1.00
O8     O     0.38060   0.71600   0.47180   0.01267  Uiso   1.00
O9     O     0.47070   0.73620   0.27820   0.01267  Uiso   1.00
O10    O     0.84720   0.69600   0.52820   0.01267  Uiso   1.00
O11    O     0.95840   0.88550   0.35200   0.01267  Uiso   1.00
O12    O     0.49510   0.83390   0.03720   0.01267  Uiso   1.00
O13    O     0.89200   0.86080   0.94120   0.01267  Uiso   1.00
O14    O     0.09690   0.90260   0.11760   0.01267  Uiso   1.00
O15    O     0.68670   0.90920   0.66760   0.01267  Uiso   1.00
