data_FAFJIH_clean
_audit_creation_date              2015-05-06
_audit_creation_method            'Materials Studio'
_symmetry_space_group_name_H-M    'P1'
_symmetry_Int_Tables_number       1
_symmetry_cell_setting            triclinic
loop_
_symmetry_equiv_pos_as_xyz
  x,y,z
_cell_length_a                    12.4895
_cell_length_b                    12.4895
_cell_length_c                    18.2540
_cell_angle_alpha                 98.7567
_cell_angle_beta                  98.7567
_cell_angle_gamma                 116.3780
loop_
_atom_site_label
_atom_site_type_symbol
_atom_site_fract_x
_atom_site_fract_y
_atom_site_fract_z
_atom_site_U_iso_or_equiv
_atom_site_adp_type
_atom_site_occupancy
Zn1    Zn    0.80218   0.65906   0.04091   0.01267  Uiso   1.00
Zn2    Zn    0.34094   0.19782   0.45909   0.01267  Uiso   1.00
Zn3    Zn    0.19782   0.34094   0.95909   0.01267  Uiso   1.00
Zn4    Zn    0.65906   0.80218   0.54091   0.01267  Uiso   1.00
Zn5    Zn    0.24855   0.75145   0.75000   0.01267  Uiso   1.00
Zn6    Zn    0.75145   0.24855   0.25000   0.01267  Uiso   1.00
B7     B     0.71590   0.02950   0.95000   0.01267  Uiso   1.00
B8     B     0.97050   0.28410   0.55000   0.01267  Uiso   1.00
B9     B     0.28410   0.97050   0.05000   0.01267  Uiso   1.00
B10    B     0.02950   0.71590   0.45000   0.01267  Uiso   1.00
H11    H     0.79900   0.96900   0.82000   0.01267  Uiso   1.00
H12    H     0.03600   0.11600   0.83100   0.01267  Uiso   1.00
H13    H     0.95400   0.23800   0.00900   0.01267  Uiso   1.00
H14    H     0.58100   0.70500   0.07200   0.01267  Uiso   1.00
H15    H     0.53600   0.88000   0.03900   0.01267  Uiso   1.00
H16    H     0.83800   0.89600   0.96400   0.01267  Uiso   1.00
H17    H     0.78700   0.06700   0.11800   0.01267  Uiso   1.00
H18    H     0.75300   0.35500   0.11000   0.01267  Uiso   1.00
H19    H     0.70800   0.26800   0.96300   0.01267  Uiso   1.00
H20    H     0.66250   0.12490   0.82160   0.01267  Uiso   1.00
H21    H     0.48200   0.97600   0.72600   0.01267  Uiso   1.00
H22    H     0.51300   0.81700   0.88900   0.01267  Uiso   1.00
H23    H     0.79300   0.53500   0.74000   0.01267  Uiso   1.00
H24    H     0.58300   0.35500   0.87000   0.01267  Uiso   1.00
H25    H     0.73500   0.63900   0.31500   0.01267  Uiso   1.00
H26    H     0.03100   0.20100   0.68000   0.01267  Uiso   1.00
H27    H     0.88400   0.96400   0.66900   0.01267  Uiso   1.00
H28    H     0.76200   0.04600   0.49100   0.01267  Uiso   1.00
H29    H     0.29500   0.41900   0.42800   0.01267  Uiso   1.00
H30    H     0.12000   0.46400   0.46100   0.01267  Uiso   1.00
H31    H     0.10400   0.16200   0.53600   0.01267  Uiso   1.00
H32    H     0.93300   0.21300   0.38200   0.01267  Uiso   1.00
H33    H     0.64500   0.24700   0.39000   0.01267  Uiso   1.00
H34    H     0.73200   0.29200   0.53700   0.01267  Uiso   1.00
H35    H     0.87510   0.33750   0.67840   0.01267  Uiso   1.00
H36    H     0.02400   0.51800   0.77400   0.01267  Uiso   1.00
H37    H     0.18300   0.48700   0.61100   0.01267  Uiso   1.00
H38    H     0.46500   0.20700   0.76000   0.01267  Uiso   1.00
H39    H     0.64500   0.41700   0.63000   0.01267  Uiso   1.00
H40    H     0.36100   0.26500   0.18500   0.01267  Uiso   1.00
H41    H     0.20100   0.03100   0.18000   0.01267  Uiso   1.00
H42    H     0.96400   0.88400   0.16900   0.01267  Uiso   1.00
H43    H     0.04600   0.76200   0.99100   0.01267  Uiso   1.00
H44    H     0.41900   0.29500   0.92800   0.01267  Uiso   1.00
H45    H     0.46400   0.12000   0.96100   0.01267  Uiso   1.00
H46    H     0.16200   0.10400   0.03600   0.01267  Uiso   1.00
H47    H     0.21300   0.93300   0.88200   0.01267  Uiso   1.00
H48    H     0.24700   0.64500   0.89000   0.01267  Uiso   1.00
H49    H     0.29200   0.73200   0.03700   0.01267  Uiso   1.00
H50    H     0.33750   0.87510   0.17840   0.01267  Uiso   1.00
H51    H     0.51800   0.02400   0.27400   0.01267  Uiso   1.00
H52    H     0.48700   0.18300   0.11100   0.01267  Uiso   1.00
H53    H     0.20700   0.46500   0.26000   0.01267  Uiso   1.00
H54    H     0.41700   0.64500   0.13000   0.01267  Uiso   1.00
H55    H     0.26500   0.36100   0.68500   0.01267  Uiso   1.00
H56    H     0.96900   0.79900   0.32000   0.01267  Uiso   1.00
H57    H     0.11600   0.03600   0.33100   0.01267  Uiso   1.00
H58    H     0.23800   0.95400   0.50900   0.01267  Uiso   1.00
H59    H     0.70500   0.58100   0.57200   0.01267  Uiso   1.00
H60    H     0.88000   0.53600   0.53900   0.01267  Uiso   1.00
H61    H     0.89600   0.83800   0.46400   0.01267  Uiso   1.00
H62    H     0.06700   0.78700   0.61800   0.01267  Uiso   1.00
H63    H     0.35500   0.75300   0.61000   0.01267  Uiso   1.00
H64    H     0.26800   0.70800   0.46300   0.01267  Uiso   1.00
H65    H     0.12490   0.66250   0.32160   0.01267  Uiso   1.00
H66    H     0.97600   0.48200   0.22600   0.01267  Uiso   1.00
H67    H     0.81700   0.51300   0.38900   0.01267  Uiso   1.00
H68    H     0.53500   0.79300   0.24000   0.01267  Uiso   1.00
H69    H     0.35500   0.58300   0.37000   0.01267  Uiso   1.00
H70    H     0.63900   0.73500   0.81500   0.01267  Uiso   1.00
C71    C     0.85810   0.03410   0.85540   0.01267  Uiso   1.00
C72    C     0.97370   0.11450   0.85480   0.01267  Uiso   1.00
C73    C     0.93910   0.18770   0.96040   0.01267  Uiso   1.00
C74    C     0.62260   0.76120   0.03820   0.01267  Uiso   1.00
C75    C     0.60450   0.85230   0.01930   0.01267  Uiso   1.00
C76    C     0.76370   0.85610   0.98080   0.01267  Uiso   1.00
C77    C     0.75730   0.13310   0.09230   0.01267  Uiso   1.00
C78    C     0.75600   0.30260   0.08700   0.01267  Uiso   1.00
C79    C     0.72130   0.23610   0.01310   0.01267  Uiso   1.00
C80    C     0.60140   0.04780   0.82240   0.01267  Uiso   1.00
C81    C     0.49630   0.97810   0.76920   0.01267  Uiso   1.00
C82    C     0.49730   0.88150   0.85550   0.01267  Uiso   1.00
C83    C     0.79340   0.55160   0.89080   0.01267  Uiso   1.00
C84    C     0.73040   0.47460   0.74660   0.01267  Uiso   1.00
C85    C     0.70830   0.45530   0.81660   0.01267  Uiso   1.00
C86    C     0.60720   0.35180   0.81950   0.01267  Uiso   1.00
C87    C     0.71830   0.61330   0.17250   0.01267  Uiso   1.00
C88    C     0.62890   0.52890   0.21220   0.01267  Uiso   1.00
C89    C     0.65140   0.55980   0.29220   0.01267  Uiso   1.00
C90    C     0.52130   0.42570   0.16930   0.01267  Uiso   1.00
C91    C     0.96590   0.14190   0.64460   0.01267  Uiso   1.00
C92    C     0.88550   0.02630   0.64520   0.01267  Uiso   1.00
C93    C     0.81230   0.06090   0.53960   0.01267  Uiso   1.00
C94    C     0.23880   0.37740   0.46180   0.01267  Uiso   1.00
C95    C     0.14770   0.39550   0.48070   0.01267  Uiso   1.00
C96    C     0.14390   0.23630   0.51920   0.01267  Uiso   1.00
C97    C     0.86690   0.24270   0.40770   0.01267  Uiso   1.00
C98    C     0.69740   0.24400   0.41300   0.01267  Uiso   1.00
C99    C     0.76390   0.27870   0.48690   0.01267  Uiso   1.00
C100   C     0.95220   0.39860   0.67760   0.01267  Uiso   1.00
C101   C     0.02190   0.50370   0.73080   0.01267  Uiso   1.00
C102   C     0.11850   0.50270   0.64450   0.01267  Uiso   1.00
C103   C     0.44840   0.20660   0.60920   0.01267  Uiso   1.00
C104   C     0.52540   0.26960   0.75340   0.01267  Uiso   1.00
C105   C     0.54470   0.29170   0.68340   0.01267  Uiso   1.00
C106   C     0.64820   0.39280   0.68050   0.01267  Uiso   1.00
C107   C     0.38670   0.28170   0.32750   0.01267  Uiso   1.00
C108   C     0.47110   0.37110   0.28780   0.01267  Uiso   1.00
C109   C     0.44020   0.34860   0.20780   0.01267  Uiso   1.00
C110   C     0.57430   0.47870   0.33070   0.01267  Uiso   1.00
C111   C     0.14190   0.96590   0.14460   0.01267  Uiso   1.00
C112   C     0.02630   0.88550   0.14520   0.01267  Uiso   1.00
C113   C     0.06090   0.81230   0.03960   0.01267  Uiso   1.00
C114   C     0.37740   0.23880   0.96180   0.01267  Uiso   1.00
C115   C     0.39550   0.14770   0.98070   0.01267  Uiso   1.00
C116   C     0.23630   0.14390   0.01920   0.01267  Uiso   1.00
C117   C     0.24270   0.86690   0.90770   0.01267  Uiso   1.00
C118   C     0.24400   0.69740   0.91300   0.01267  Uiso   1.00
C119   C     0.27870   0.76390   0.98690   0.01267  Uiso   1.00
C120   C     0.39860   0.95220   0.17760   0.01267  Uiso   1.00
C121   C     0.50370   0.02190   0.23080   0.01267  Uiso   1.00
C122   C     0.50270   0.11850   0.14450   0.01267  Uiso   1.00
C123   C     0.20660   0.44840   0.10920   0.01267  Uiso   1.00
C124   C     0.26960   0.52540   0.25340   0.01267  Uiso   1.00
C125   C     0.29170   0.54470   0.18340   0.01267  Uiso   1.00
C126   C     0.39280   0.64820   0.18050   0.01267  Uiso   1.00
C127   C     0.28170   0.38670   0.82750   0.01267  Uiso   1.00
C128   C     0.37110   0.47110   0.78780   0.01267  Uiso   1.00
C129   C     0.34860   0.44020   0.70780   0.01267  Uiso   1.00
C130   C     0.47870   0.57430   0.83070   0.01267  Uiso   1.00
C131   C     0.03410   0.85810   0.35540   0.01267  Uiso   1.00
C132   C     0.11450   0.97370   0.35480   0.01267  Uiso   1.00
C133   C     0.18770   0.93910   0.46040   0.01267  Uiso   1.00
C134   C     0.76120   0.62260   0.53820   0.01267  Uiso   1.00
C135   C     0.85230   0.60450   0.51930   0.01267  Uiso   1.00
C136   C     0.85610   0.76370   0.48080   0.01267  Uiso   1.00
C137   C     0.13310   0.75730   0.59230   0.01267  Uiso   1.00
C138   C     0.30260   0.75600   0.58700   0.01267  Uiso   1.00
C139   C     0.23610   0.72130   0.51310   0.01267  Uiso   1.00
C140   C     0.04780   0.60140   0.32240   0.01267  Uiso   1.00
C141   C     0.97810   0.49630   0.26920   0.01267  Uiso   1.00
C142   C     0.88150   0.49730   0.35550   0.01267  Uiso   1.00
C143   C     0.55160   0.79340   0.39080   0.01267  Uiso   1.00
C144   C     0.47460   0.73040   0.24660   0.01267  Uiso   1.00
C145   C     0.45530   0.70830   0.31660   0.01267  Uiso   1.00
C146   C     0.35180   0.60720   0.31950   0.01267  Uiso   1.00
C147   C     0.61330   0.71830   0.67250   0.01267  Uiso   1.00
C148   C     0.52890   0.62890   0.71220   0.01267  Uiso   1.00
C149   C     0.55980   0.65140   0.79220   0.01267  Uiso   1.00
C150   C     0.42570   0.52130   0.66930   0.01267  Uiso   1.00
N151   N     0.02440   0.21200   0.92060   0.01267  Uiso   1.00
N152   N     0.83450   0.08110   0.92260   0.01267  Uiso   1.00
N153   N     0.72220   0.76200   0.01430   0.01267  Uiso   1.00
N154   N     0.69540   0.91460   0.98220   0.01267  Uiso   1.00
N155   N     0.77340   0.23800   0.13720   0.01267  Uiso   1.00
N156   N     0.72270   0.12870   0.01670   0.01267  Uiso   1.00
N157   N     0.60540   0.98720   0.87920   0.01267  Uiso   1.00
N158   N     0.42860   0.87200   0.78980   0.01267  Uiso   1.00
N159   N     0.78800   0.97560   0.57940   0.01267  Uiso   1.00
N160   N     0.91890   0.16550   0.57740   0.01267  Uiso   1.00
N161   N     0.23800   0.27780   0.48570   0.01267  Uiso   1.00
N162   N     0.08540   0.30460   0.51780   0.01267  Uiso   1.00
N163   N     0.76200   0.22660   0.36280   0.01267  Uiso   1.00
N164   N     0.87130   0.27730   0.48330   0.01267  Uiso   1.00
N165   N     0.01280   0.39460   0.62080   0.01267  Uiso   1.00
N166   N     0.12800   0.57140   0.71020   0.01267  Uiso   1.00
N167   N     0.97560   0.78800   0.07940   0.01267  Uiso   1.00
N168   N     0.16550   0.91890   0.07740   0.01267  Uiso   1.00
N169   N     0.27780   0.23800   0.98570   0.01267  Uiso   1.00
N170   N     0.30460   0.08540   0.01780   0.01267  Uiso   1.00
N171   N     0.22660   0.76200   0.86280   0.01267  Uiso   1.00
N172   N     0.27730   0.87130   0.98330   0.01267  Uiso   1.00
N173   N     0.39460   0.01280   0.12080   0.01267  Uiso   1.00
N174   N     0.57140   0.12800   0.21020   0.01267  Uiso   1.00
N175   N     0.21200   0.02440   0.42060   0.01267  Uiso   1.00
N176   N     0.08110   0.83450   0.42260   0.01267  Uiso   1.00
N177   N     0.76200   0.72220   0.51430   0.01267  Uiso   1.00
N178   N     0.91460   0.69540   0.48220   0.01267  Uiso   1.00
N179   N     0.23800   0.77340   0.63720   0.01267  Uiso   1.00
N180   N     0.12870   0.72270   0.51670   0.01267  Uiso   1.00
N181   N     0.98720   0.60540   0.37920   0.01267  Uiso   1.00
N182   N     0.87200   0.42860   0.28980   0.01267  Uiso   1.00
O183   O     0.87580   0.65040   0.88770   0.01267  Uiso   1.00
O184   O     0.76330   0.52590   0.95370   0.01267  Uiso   1.00
O185   O     0.79390   0.72070   0.20720   0.01267  Uiso   1.00
O186   O     0.70590   0.56210   0.10270   0.01267  Uiso   1.00
O187   O     0.34960   0.12420   0.61230   0.01267  Uiso   1.00
O188   O     0.47410   0.23670   0.54630   0.01267  Uiso   1.00
O189   O     0.27930   0.20610   0.29280   0.01267  Uiso   1.00
O190   O     0.43790   0.29410   0.39730   0.01267  Uiso   1.00
O191   O     0.12420   0.34960   0.11230   0.01267  Uiso   1.00
O192   O     0.23670   0.47410   0.04630   0.01267  Uiso   1.00
O193   O     0.20610   0.27930   0.79280   0.01267  Uiso   1.00
O194   O     0.29410   0.43790   0.89730   0.01267  Uiso   1.00
O195   O     0.65040   0.87580   0.38770   0.01267  Uiso   1.00
O196   O     0.52590   0.76330   0.45370   0.01267  Uiso   1.00
O197   O     0.72070   0.79390   0.70720   0.01267  Uiso   1.00
O198   O     0.56210   0.70590   0.60270   0.01267  Uiso   1.00
H199   H     0.49931   0.40406   0.10415   0.00000  Uiso   1.00
H200   H     0.59594   0.50069   0.39585   0.00000  Uiso   1.00
H201   H     0.50069   0.59594   0.89585   0.00000  Uiso   1.00
H202   H     0.40406   0.49931   0.60415   0.00000  Uiso   1.00
loop_
_geom_bond_atom_site_label_1
_geom_bond_atom_site_label_2
_geom_bond_distance
_geom_bond_site_symmetry_2
_ccdc_geom_bond_type
Zn1    N153    2.017   .     S
Zn1    N167    1.967   .     S
Zn1    O184    1.943   1_554 S
Zn1    O186    1.929   .     S
Zn2    N161    2.017   .     S
Zn2    N175    1.967   .     S
Zn2    O188    1.943   .     S
Zn2    O190    1.929   .     S
Zn3    N151    1.967   .     S
Zn3    N169    2.017   .     S
Zn3    O192    1.943   1_556 S
Zn3    O194    1.929   .     S
Zn4    N159    1.967   .     S
Zn4    N177    2.017   .     S
Zn4    O196    1.943   .     S
Zn4    O198    1.929   .     S
Zn5    N158    2.003   .     S
Zn5    N166    2.003   .     S
Zn5    N171    2.110   .     S
Zn5    N179    2.110   .     S
Zn6    N155    2.110   .     S
Zn6    N163    2.110   .     S
Zn6    N174    2.003   .     S
Zn6    N182    2.003   .     S
B7     N152    1.528   .     S
B7     N154    1.564   1_545 S
B7     N156    1.562   1_556 S
B7     N157    1.567   1_545 S
B8     N160    1.528   .     S
B8     N162    1.564   1_655 S
B8     N164    1.562   .     S
B8     N165    1.567   1_655 S
B9     N168    1.528   .     S
B9     N170    1.564   1_565 S
B9     N172    1.562   1_554 S
B9     N173    1.567   1_565 S
B10    N176    1.528   .     S
B10    N178    1.564   1_455 S
B10    N180    1.562   .     S
B10    N181    1.567   1_455 S
H11    C71     0.886   1_565 S
H12    C72     0.942   1_455 S
H13    C73     0.945   1_554 S
H14    C74     1.024   .     S
H15    C75     1.140   .     S
H16    C76     0.962   .     S
H17    C77     1.173   .     S
H18    C78     0.741   .     S
H19    C79     1.071   1_556 S
H20    C80     0.930   .     S
H21    C81     0.775   .     S
H22    C82     1.147   .     S
H23    C84     0.853   .     S
H24    C86     1.013   .     S
H25    C89     1.033   .     S
H26    C91     0.886   1_455 S
H27    C92     0.942   1_565 S
H28    C93     0.945   .     S
H29    C94     1.024   .     S
H30    C95     1.140   .     S
H31    C96     0.962   .     S
H32    C97     1.173   .     S
H33    C98     0.741   .     S
H34    C99     1.071   .     S
H35    C100    0.930   .     S
H36    C101    0.775   .     S
H37    C102    1.147   .     S
H38    C104    0.853   .     S
H39    C106    1.013   .     S
H40    C109    1.033   .     S
H41    C111    0.886   1_545 S
H42    C112    0.942   1_655 S
H43    C113    0.945   1_556 S
H44    C114    1.024   .     S
H45    C115    1.140   .     S
H46    C116    0.962   .     S
H47    C117    1.173   .     S
H48    C118    0.741   .     S
H49    C119    1.071   1_554 S
H50    C120    0.930   .     S
H51    C121    0.775   .     S
H52    C122    1.147   .     S
H53    C124    0.853   .     S
H54    C126    1.013   .     S
H55    C129    1.033   .     S
H56    C131    0.886   1_655 S
H57    C132    0.942   1_545 S
H58    C133    0.945   .     S
H59    C134    1.024   .     S
H60    C135    1.140   .     S
H61    C136    0.962   .     S
H62    C137    1.173   .     S
H63    C138    0.741   .     S
H64    C139    1.071   .     S
H65    C140    0.930   .     S
H66    C141    0.775   .     S
H67    C142    1.147   .     S
H68    C144    0.853   .     S
H69    C146    1.013   .     S
H70    C149    1.033   .     S
C71    H11     0.886   1_545 S
C71    C72     1.346   .     D
C71    N152    1.407   .     S
C72    H12     0.942   1_655 S
C72    N151    1.402   1_655 S
C73    H13     0.945   1_556 S
C73    N151    1.331   1_655 D
C73    N152    1.362   .     S
C74    C75     1.338   .     D
C74    N153    1.376   .     S
C75    N154    1.401   1_554 S
C76    N153    1.341   1_556 D
C76    N154    1.348   .     S
C77    N155    1.348   .     D
C77    N156    1.367   .     S
C78    C79     1.363   .     D
C78    N155    1.363   .     S
C79    H19     1.071   1_554 S
C79    N156    1.361   .     S
C80    C81     1.328   1_545 D
C80    N157    1.381   1_545 S
C81    C80     1.328   1_565 D
C81    N158    1.366   .     S
C82    N157    1.348   .     S
C82    N158    1.320   .     D
C83    C85     1.530   .     S
C83    O183    1.223   .     D
C83    O184    1.303   .     S
C84    C85     1.382   .     S
C84    C106    1.367   .     D
C85    C86     1.363   .     D
C86    C104    1.367   .     S
C87    C88     1.522   .     S
C87    O185    1.235   .     D
C87    O186    1.288   .     S
C88    C89     1.403   .     S
C88    C90     1.383   .     D
C89    C110    1.415   .     D
C90    C109    1.415   .     S
C90    H199    1.140   .     S
C91    H26     0.886   1_655 S
C91    C92     1.346   .     D
C91    N160    1.407   .     S
C92    H27     0.942   1_545 S
C92    N159    1.402   1_545 S
C93    N159    1.331   1_545 D
C93    N160    1.362   .     S
C94    C95     1.338   .     D
C94    N161    1.376   .     S
C95    N162    1.401   .     S
C96    N161    1.341   .     D
C96    N162    1.348   .     S
C97    N163    1.348   .     D
C97    N164    1.367   .     S
C98    C99     1.363   .     D
C98    N163    1.363   .     S
C99    N164    1.361   .     S
C100   C101    1.328   1_655 D
C100   N165    1.381   1_655 S
C101   C100    1.328   1_455 D
C101   N166    1.366   .     S
C102   N165    1.348   .     S
C102   N166    1.320   .     D
C103   C105    1.530   .     S
C103   O187    1.223   .     D
C103   O188    1.303   .     S
C104   C105    1.382   .     D
C105   C106    1.363   .     S
C107   C108    1.522   .     S
C107   O189    1.235   .     D
C107   O190    1.288   .     S
C108   C109    1.403   .     D
C108   C110    1.383   .     S
C110   H200    1.140   .     S
C111   H41     0.886   1_565 S
C111   C112    1.346   .     D
C111   N168    1.407   .     S
C112   H42     0.942   1_455 S
C112   N167    1.402   1_455 S
C113   H43     0.945   1_554 S
C113   N167    1.331   1_455 D
C113   N168    1.362   .     S
C114   C115    1.338   .     D
C114   N169    1.376   .     S
C115   N170    1.401   1_556 S
C116   N169    1.341   1_554 D
C116   N170    1.348   .     S
C117   N171    1.348   .     D
C117   N172    1.367   .     S
C118   C119    1.363   .     D
C118   N171    1.363   .     S
C119   H49     1.071   1_556 S
C119   N172    1.361   .     S
C120   C121    1.328   1_565 D
C120   N173    1.381   1_565 S
C121   C120    1.328   1_545 D
C121   N174    1.366   .     S
C122   N173    1.348   .     S
C122   N174    1.320   .     D
C123   C125    1.530   .     S
C123   O191    1.223   .     D
C123   O192    1.303   .     S
C124   C125    1.382   .     S
C124   C146    1.367   .     D
C125   C126    1.363   .     D
C126   C144    1.367   .     S
C127   C128    1.522   .     S
C127   O193    1.235   .     D
C127   O194    1.288   .     S
C128   C129    1.403   .     D
C128   C130    1.383   .     S
C129   C150    1.415   .     S
C130   C149    1.415   .     D
C130   H201    1.140   .     S
C131   H56     0.886   1_455 S
C131   C132    1.346   .     D
C131   N176    1.407   .     S
C132   H57     0.942   1_565 S
C132   N175    1.402   1_565 S
C133   N175    1.331   1_565 D
C133   N176    1.362   .     S
C134   C135    1.338   .     D
C134   N177    1.376   .     S
C135   N178    1.401   .     S
C136   N177    1.341   .     D
C136   N178    1.348   .     S
C137   N179    1.348   .     D
C137   N180    1.367   .     S
C138   C139    1.363   .     D
C138   N179    1.363   .     S
C139   N180    1.361   .     S
C140   C141    1.328   1_455 D
C140   N181    1.381   1_455 S
C141   C140    1.328   1_655 D
C141   N182    1.366   .     S
C142   N181    1.348   .     S
C142   N182    1.320   .     D
C143   C145    1.530   .     S
C143   O195    1.223   .     D
C143   O196    1.303   .     S
C144   C145    1.382   .     D
C145   C146    1.363   .     S
C147   C148    1.522   .     S
C147   O197    1.235   .     D
C147   O198    1.288   .     S
C148   C149    1.403   .     S
C148   C150    1.383   .     D
C150   H202    1.140   .     S
N151   C72     1.402   1_455 S
N151   C73     1.331   1_455 D
N153   C76     1.341   1_554 D
N154   C75     1.401   1_556 S
N154   B7      1.564   1_565 S
N156   B7      1.562   1_554 S
N157   C80     1.381   1_565 S
N157   B7      1.567   1_565 S
N159   C92     1.402   1_565 S
N159   C93     1.331   1_565 D
N162   B8      1.564   1_455 S
N165   B8      1.567   1_455 S
N165   C100    1.381   1_455 S
N167   C112    1.402   1_655 S
N167   C113    1.331   1_655 D
N169   C116    1.341   1_556 D
N170   C115    1.401   1_554 S
N170   B9      1.564   1_545 S
N172   B9      1.562   1_556 S
N173   B9      1.567   1_545 S
N173   C120    1.381   1_545 S
N175   C132    1.402   1_545 S
N175   C133    1.331   1_545 D
N178   B10     1.564   1_655 S
N181   B10     1.567   1_655 S
N181   C140    1.381   1_655 S
O184   Zn1     1.943   1_556 S
O192   Zn3     1.943   1_554 S
