data_image0
_cell_length_a       14.619
_cell_length_b       17.211
_cell_length_c       21.215
_cell_angle_alpha    90
_cell_angle_beta     90
_cell_angle_gamma    90

_symmetry_space_group_name_H-M    "P 1"
_symmetry_int_tables_number       1

loop_
  _symmetry_equiv_pos_as_xyz
  'x, y, z'

loop_
  _atom_site_label
  _atom_site_occupancy
  _atom_site_fract_x
  _atom_site_fract_y
  _atom_site_fract_z
  _atom_site_thermal_displace_type
  _atom_site_B_iso_or_equiv
  _atom_site_type_symbol
  O1       1.0000 0.56690  0.58350  0.94740  Biso   1.000  O
  O2       1.0000 0.64540  0.47130  0.87690  Biso   1.000  O
  O3       1.0000 0.49390  0.44080  0.94770  Biso   1.000  O
  O4       1.0000 0.65870  0.46760  0.00540  Biso   1.000  O
  N1       1.0000 0.45530  0.73310  0.75520  Biso   1.000  N
  O5       1.0000 0.53390  0.90750  0.68820  Biso   1.000  O
  O6       1.0000 0.44390  0.81520  0.64710  Biso   1.000  O
  O7       1.0000 0.70870  0.63530  0.85400  Biso   1.000  O
  O8       1.0000 0.56980  0.62780  0.81150  Biso   1.000  O
  C1       1.0000 0.49880  0.84260  0.68770  Biso   1.000  C
  C2       1.0000 0.52750  0.78990  0.74030  Biso   1.000  C
  C3       1.0000 0.61890  0.75240  0.72300  Biso   1.000  C
  C4       1.0000 0.67950  0.72460  0.77580  Biso   1.000  C
  C5       1.0000 0.64960  0.65390  0.81620  Biso   1.000  C
  N2       1.0000 0.97690  0.43420  0.83550  Biso   1.000  N
  O9       1.0000 0.83670  0.47290  0.90720  Biso   1.000  O
  O10      1.0000 0.77370  0.35520  0.90450  Biso   1.000  O
  O11      1.0000 0.03660  0.19600  0.98050  Biso   1.000  O
  O12      1.0000 0.96620  0.10410  0.92710  Biso   1.000  O
  C6       1.0000 0.83540  0.40190  0.89390  Biso   1.000  C
  C7       1.0000 0.91690  0.36800  0.85660  Biso   1.000  C
  C8       1.0000 0.97440  0.31190  0.89660  Biso   1.000  C
  C9       1.0000 0.92410  0.23370  0.90740  Biso   1.000  C
  C10      1.0000 0.97960  0.17410  0.94090  Biso   1.000  C
  N3       1.0000 0.76910  0.80310  0.97400  Biso   1.000  N
  O13      1.0000 0.87720  0.91280  0.09670  Biso   1.000  O
  O14      1.0000 0.88610  0.92150  0.99160  Biso   1.000  O
  O15      1.0000 0.57860  0.63260  0.07350  Biso   1.000  O
  O16      1.0000 0.70280  0.65940  0.01650  Biso   1.000  O
  C11      1.0000 0.85120  0.89690  0.04190  Biso   1.000  C
  C12      1.0000 0.76600  0.84700  0.03560  Biso   1.000  C
  C13      1.0000 0.74700  0.79230  0.09100  Biso   1.000  C
  C14      1.0000 0.65290  0.75280  0.09280  Biso   1.000  C
  C15      1.0000 0.64460  0.67560  0.05950  Biso   1.000  C
  H1       1.0000 0.55190  0.64010  0.94930  Biso   1.000  H
  H2       1.0000 0.67840  0.45930  0.83680  Biso   1.000  H
  H3       1.0000 0.43580  0.41030  0.94930  Biso   1.000  H
  H4       1.0000 0.69860  0.45390  0.04210  Biso   1.000  H
  H5       1.0000 0.47810  0.69620  0.78170  Biso   1.000  H
  H6       1.0000 0.43560  0.71010  0.71910  Biso   1.000  H
  H7       1.0000 0.40770  0.75780  0.77420  Biso   1.000  H
  H8       1.0000 0.53760  0.82270  0.77860  Biso   1.000  H
  H9       1.0000 0.60600  0.70750  0.69520  Biso   1.000  H
  H10      1.0000 0.65410  0.79050  0.69780  Biso   1.000  H
  H11      1.0000 0.68880  0.76890  0.80490  Biso   1.000  H
  H12      1.0000 0.73990  0.71210  0.75740  Biso   1.000  H
  H13      1.0000 0.02750  0.41500  0.81600  Biso   1.000  H
  H14      1.0000 0.99420  0.46280  0.86950  Biso   1.000  H
  H15      1.0000 0.94540  0.46490  0.80810  Biso   1.000  H
  H16      1.0000 0.89330  0.33980  0.81880  Biso   1.000  H
  H17      1.0000 0.98770  0.33630  0.93790  Biso   1.000  H
  H18      1.0000 0.03340  0.30200  0.87520  Biso   1.000  H
  H19      1.0000 0.86780  0.24370  0.93200  Biso   1.000  H
  H20      1.0000 0.90540  0.21250  0.86590  Biso   1.000  H
  H21      1.0000 0.72150  0.76910  0.97220  Biso   1.000  H
  H22      1.0000 0.82270  0.77660  0.97120  Biso   1.000  H
  H23      1.0000 0.76490  0.83730  0.94140  Biso   1.000  H
  H24      1.0000 0.71280  0.88340  0.03300  Biso   1.000  H
  H25      1.0000 0.75460  0.82220  0.13050  Biso   1.000  H
  H26      1.0000 0.79440  0.75120  0.09080  Biso   1.000  H
  H27      1.0000 0.63570  0.74520  0.13750  Biso   1.000  H
  H28      1.0000 0.60780  0.78890  0.07400  Biso   1.000  H
  Er1      1.0000 0.72490  0.56070  0.94260  Biso   1.000  Er
  Er2      1.0000 0.62670  0.36070  0.94370  Biso   1.000  Er
  Er3      1.0000 0.50140  0.52290  0.86110  Biso   1.000  Er
  Er4      1.0000 0.51750  0.51560  0.03790  Biso   1.000  Er
  O17      1.0000 0.93310  0.41650  0.44740  Biso   1.000  O
  O18      1.0000 0.85460  0.52870  0.37690  Biso   1.000  O
  O19      1.0000 0.00610  0.55920  0.44770  Biso   1.000  O
  O20      1.0000 0.84130  0.53240  0.50540  Biso   1.000  O
  N4       1.0000 0.04470  0.26690  0.25520  Biso   1.000  N
  O21      1.0000 0.96610  0.09250  0.18820  Biso   1.000  O
  O22      1.0000 0.05610  0.18480  0.14710  Biso   1.000  O
  O23      1.0000 0.79130  0.36470  0.35400  Biso   1.000  O
  O24      1.0000 0.93020  0.37220  0.31150  Biso   1.000  O
  C16      1.0000 0.00120  0.15740  0.18770  Biso   1.000  C
  C17      1.0000 0.97250  0.21010  0.24030  Biso   1.000  C
  C18      1.0000 0.88110  0.24760  0.22300  Biso   1.000  C
  C19      1.0000 0.82050  0.27540  0.27580  Biso   1.000  C
  C20      1.0000 0.85040  0.34610  0.31620  Biso   1.000  C
  N5       1.0000 0.52310  0.56580  0.33550  Biso   1.000  N
  O25      1.0000 0.66330  0.52710  0.40720  Biso   1.000  O
  O26      1.0000 0.72630  0.64480  0.40450  Biso   1.000  O
  O27      1.0000 0.46340  0.80400  0.48050  Biso   1.000  O
  O28      1.0000 0.53380  0.89590  0.42710  Biso   1.000  O
  C21      1.0000 0.66460  0.59810  0.39390  Biso   1.000  C
  C22      1.0000 0.58310  0.63200  0.35660  Biso   1.000  C
  C23      1.0000 0.52560  0.68810  0.39660  Biso   1.000  C
  C24      1.0000 0.57590  0.76630  0.40740  Biso   1.000  C
  C25      1.0000 0.52040  0.82590  0.44090  Biso   1.000  C
  N6       1.0000 0.73090  0.19690  0.47400  Biso   1.000  N
  O29      1.0000 0.62280  0.08720  0.59670  Biso   1.000  O
  O30      1.0000 0.61390  0.07850  0.49160  Biso   1.000  O
  O31      1.0000 0.92140  0.36740  0.57350  Biso   1.000  O
  O32      1.0000 0.79720  0.34060  0.51650  Biso   1.000  O
  C26      1.0000 0.64880  0.10310  0.54190  Biso   1.000  C
  C27      1.0000 0.73400  0.15300  0.53560  Biso   1.000  C
  C28      1.0000 0.75300  0.20770  0.59100  Biso   1.000  C
  C29      1.0000 0.84710  0.24720  0.59280  Biso   1.000  C
  C30      1.0000 0.85540  0.32440  0.55950  Biso   1.000  C
  H29      1.0000 0.94810  0.35990  0.44930  Biso   1.000  H
  H30      1.0000 0.82160  0.54070  0.33680  Biso   1.000  H
  H31      1.0000 0.06420  0.58970  0.44930  Biso   1.000  H
  H32      1.0000 0.80140  0.54610  0.54210  Biso   1.000  H
  H33      1.0000 0.02190  0.30380  0.28170  Biso   1.000  H
  H34      1.0000 0.06440  0.28990  0.21910  Biso   1.000  H
  H35      1.0000 0.09230  0.24220  0.27420  Biso   1.000  H
  H36      1.0000 0.96240  0.17730  0.27860  Biso   1.000  H
  H37      1.0000 0.89400  0.29250  0.19520  Biso   1.000  H
  H38      1.0000 0.84590  0.20950  0.19780  Biso   1.000  H
  H39      1.0000 0.81120  0.23110  0.30490  Biso   1.000  H
  H40      1.0000 0.76010  0.28790  0.25740  Biso   1.000  H
  H41      1.0000 0.47250  0.58500  0.31600  Biso   1.000  H
  H42      1.0000 0.50580  0.53720  0.36950  Biso   1.000  H
  H43      1.0000 0.55460  0.53510  0.30810  Biso   1.000  H
  H44      1.0000 0.60670  0.66020  0.31880  Biso   1.000  H
  H45      1.0000 0.51230  0.66370  0.43790  Biso   1.000  H
  H46      1.0000 0.46660  0.69800  0.37520  Biso   1.000  H
  H47      1.0000 0.63220  0.75630  0.43200  Biso   1.000  H
  H48      1.0000 0.59460  0.78750  0.36590  Biso   1.000  H
  H49      1.0000 0.77850  0.23090  0.47220  Biso   1.000  H
  H50      1.0000 0.67730  0.22340  0.47120  Biso   1.000  H
  H51      1.0000 0.73510  0.16270  0.44140  Biso   1.000  H
  H52      1.0000 0.78720  0.11660  0.53300  Biso   1.000  H
  H53      1.0000 0.74540  0.17780  0.63050  Biso   1.000  H
  H54      1.0000 0.70560  0.24880  0.59080  Biso   1.000  H
  H55      1.0000 0.86430  0.25480  0.63750  Biso   1.000  H
  H56      1.0000 0.89220  0.21110  0.57400  Biso   1.000  H
  Er5      1.0000 0.77510  0.43930  0.44260  Biso   1.000  Er
  Er6      1.0000 0.87330  0.63930  0.44370  Biso   1.000  Er
  Er7      1.0000 0.99860  0.47710  0.36110  Biso   1.000  Er
  Er8      1.0000 0.98250  0.48440  0.53790  Biso   1.000  Er
  O33      1.0000 0.43310  0.08350  0.55260  Biso   1.000  O
  O34      1.0000 0.35460  0.97130  0.62310  Biso   1.000  O
  O35      1.0000 0.50610  0.94080  0.55230  Biso   1.000  O
  O36      1.0000 0.34130  0.96760  0.49460  Biso   1.000  O
  N7       1.0000 0.54470  0.23310  0.74480  Biso   1.000  N
  O37      1.0000 0.46610  0.40750  0.81180  Biso   1.000  O
  O38      1.0000 0.55610  0.31520  0.85290  Biso   1.000  O
  O39      1.0000 0.29130  0.13530  0.64600  Biso   1.000  O
  O40      1.0000 0.43020  0.12780  0.68850  Biso   1.000  O
  C31      1.0000 0.50120  0.34260  0.81230  Biso   1.000  C
  C32      1.0000 0.47250  0.28990  0.75970  Biso   1.000  C
  C33      1.0000 0.38110  0.25240  0.77700  Biso   1.000  C
  C34      1.0000 0.32050  0.22460  0.72420  Biso   1.000  C
  C35      1.0000 0.35040  0.15390  0.68380  Biso   1.000  C
  N8       1.0000 0.02310  0.93420  0.66450  Biso   1.000  N
  O41      1.0000 0.16330  0.97290  0.59280  Biso   1.000  O
  O42      1.0000 0.22630  0.85520  0.59550  Biso   1.000  O
  O43      1.0000 0.96340  0.69600  0.51950  Biso   1.000  O
  O44      1.0000 0.03380  0.60410  0.57290  Biso   1.000  O
  C36      1.0000 0.16460  0.90190  0.60610  Biso   1.000  C
  C37      1.0000 0.08310  0.86800  0.64340  Biso   1.000  C
  C38      1.0000 0.02560  0.81190  0.60340  Biso   1.000  C
  C39      1.0000 0.07590  0.73370  0.59260  Biso   1.000  C
  C40      1.0000 0.02040  0.67410  0.55910  Biso   1.000  C
  N9       1.0000 0.23090  0.30310  0.52600  Biso   1.000  N
  O45      1.0000 0.12280  0.41280  0.40330  Biso   1.000  O
  O46      1.0000 0.11390  0.42150  0.50840  Biso   1.000  O
  O47      1.0000 0.42140  0.13260  0.42650  Biso   1.000  O
  O48      1.0000 0.29720  0.15940  0.48350  Biso   1.000  O
  C41      1.0000 0.14880  0.39690  0.45810  Biso   1.000  C
  C42      1.0000 0.23400  0.34700  0.46440  Biso   1.000  C
  C43      1.0000 0.25300  0.29230  0.40900  Biso   1.000  C
  C44      1.0000 0.34710  0.25280  0.40720  Biso   1.000  C
  C45      1.0000 0.35540  0.17560  0.44050  Biso   1.000  C
  H57      1.0000 0.44810  0.14010  0.55070  Biso   1.000  H
  H58      1.0000 0.32160  0.95930  0.66320  Biso   1.000  H
  H59      1.0000 0.56420  0.91030  0.55070  Biso   1.000  H
  H60      1.0000 0.30140  0.95390  0.45790  Biso   1.000  H
  H61      1.0000 0.52190  0.19620  0.71830  Biso   1.000  H
  H62      1.0000 0.56440  0.21010  0.78090  Biso   1.000  H
  H63      1.0000 0.59230  0.25780  0.72580  Biso   1.000  H
  H64      1.0000 0.46240  0.32270  0.72140  Biso   1.000  H
  H65      1.0000 0.39400  0.20750  0.80480  Biso   1.000  H
  H66      1.0000 0.34590  0.29050  0.80220  Biso   1.000  H
  H67      1.0000 0.31120  0.26890  0.69510  Biso   1.000  H
  H68      1.0000 0.26010  0.21210  0.74260  Biso   1.000  H
  H69      1.0000 0.97250  0.91500  0.68400  Biso   1.000  H
  H70      1.0000 0.00580  0.96280  0.63050  Biso   1.000  H
  H71      1.0000 0.05460  0.96490  0.69190  Biso   1.000  H
  H72      1.0000 0.10670  0.83980  0.68120  Biso   1.000  H
  H73      1.0000 0.01230  0.83630  0.56210  Biso   1.000  H
  H74      1.0000 0.96660  0.80200  0.62480  Biso   1.000  H
  H75      1.0000 0.13220  0.74370  0.56800  Biso   1.000  H
  H76      1.0000 0.09460  0.71250  0.63410  Biso   1.000  H
  H77      1.0000 0.27850  0.26910  0.52780  Biso   1.000  H
  H78      1.0000 0.17730  0.27660  0.52880  Biso   1.000  H
  H79      1.0000 0.23510  0.33730  0.55860  Biso   1.000  H
  H80      1.0000 0.28720  0.38340  0.46700  Biso   1.000  H
  H81      1.0000 0.24540  0.32220  0.36950  Biso   1.000  H
  H82      1.0000 0.20560  0.25120  0.40920  Biso   1.000  H
  H83      1.0000 0.36430  0.24520  0.36250  Biso   1.000  H
  H84      1.0000 0.39220  0.28890  0.42600  Biso   1.000  H
  Er9      1.0000 0.27510  0.06070  0.55740  Biso   1.000  Er
  Er10     1.0000 0.37330  0.86070  0.55630  Biso   1.000  Er
  Er11     1.0000 0.49860  0.02290  0.63890  Biso   1.000  Er
  Er12     1.0000 0.48250  0.01560  0.46210  Biso   1.000  Er
  O49      1.0000 0.06690  0.91650  0.05260  Biso   1.000  O
  O50      1.0000 0.14540  0.02870  0.12310  Biso   1.000  O
  O51      1.0000 0.99390  0.05920  0.05230  Biso   1.000  O
  O52      1.0000 0.15870  0.03240  0.99460  Biso   1.000  O
  N10      1.0000 0.95530  0.76690  0.24480  Biso   1.000  N
  O53      1.0000 0.03390  0.59250  0.31180  Biso   1.000  O
  O54      1.0000 0.94390  0.68480  0.35290  Biso   1.000  O
  O55      1.0000 0.20870  0.86470  0.14600  Biso   1.000  O
  O56      1.0000 0.06980  0.87220  0.18850  Biso   1.000  O
  C46      1.0000 0.99880  0.65740  0.31230  Biso   1.000  C
  C47      1.0000 0.02750  0.71010  0.25970  Biso   1.000  C
  C48      1.0000 0.11890  0.74760  0.27700  Biso   1.000  C
  C49      1.0000 0.17950  0.77540  0.22420  Biso   1.000  C
  C50      1.0000 0.14960  0.84610  0.18380  Biso   1.000  C
  N11      1.0000 0.47690  0.06580  0.16450  Biso   1.000  N
  O57      1.0000 0.33670  0.02710  0.09280  Biso   1.000  O
  O58      1.0000 0.27370  0.14480  0.09550  Biso   1.000  O
  O59      1.0000 0.53660  0.30400  0.01950  Biso   1.000  O
  O60      1.0000 0.46620  0.39590  0.07290  Biso   1.000  O
  C51      1.0000 0.33540  0.09810  0.10610  Biso   1.000  C
  C52      1.0000 0.41690  0.13200  0.14340  Biso   1.000  C
  C53      1.0000 0.47440  0.18810  0.10340  Biso   1.000  C
  C54      1.0000 0.42410  0.26630  0.09260  Biso   1.000  C
  C55      1.0000 0.47960  0.32590  0.05910  Biso   1.000  C
  N12      1.0000 0.26910  0.69690  0.02600  Biso   1.000  N
  O61      1.0000 0.37720  0.58720  0.90330  Biso   1.000  O
  O62      1.0000 0.38610  0.57850  0.00840  Biso   1.000  O
  O63      1.0000 0.07860  0.86740  0.92650  Biso   1.000  O
  O64      1.0000 0.20280  0.84060  0.98350  Biso   1.000  O
  C56      1.0000 0.35120  0.60310  0.95810  Biso   1.000  C
  C57      1.0000 0.26600  0.65300  0.96440  Biso   1.000  C
  C58      1.0000 0.24700  0.70770  0.90900  Biso   1.000  C
  C59      1.0000 0.15290  0.74720  0.90720  Biso   1.000  C
  C60      1.0000 0.14460  0.82440  0.94050  Biso   1.000  C
  H85      1.0000 0.05190  0.85990  0.05070  Biso   1.000  H
  H86      1.0000 0.17840  0.04070  0.16320  Biso   1.000  H
  H87      1.0000 0.93580  0.08970  0.05070  Biso   1.000  H
  H88      1.0000 0.19860  0.04610  0.95790  Biso   1.000  H
  H89      1.0000 0.97810  0.80380  0.21830  Biso   1.000  H
  H90      1.0000 0.93560  0.78990  0.28090  Biso   1.000  H
  H91      1.0000 0.90770  0.74220  0.22580  Biso   1.000  H
  H92      1.0000 0.03760  0.67730  0.22140  Biso   1.000  H
  H93      1.0000 0.10600  0.79250  0.30480  Biso   1.000  H
  H94      1.0000 0.15410  0.70950  0.30220  Biso   1.000  H
  H95      1.0000 0.18880  0.73110  0.19510  Biso   1.000  H
  H96      1.0000 0.23990  0.78790  0.24260  Biso   1.000  H
  H97      1.0000 0.52750  0.08500  0.18400  Biso   1.000  H
  H98      1.0000 0.49420  0.03720  0.13050  Biso   1.000  H
  H99      1.0000 0.44540  0.03510  0.19190  Biso   1.000  H
  H100     1.0000 0.39330  0.16020  0.18120  Biso   1.000  H
  H101     1.0000 0.48770  0.16370  0.06210  Biso   1.000  H
  H102     1.0000 0.53340  0.19800  0.12480  Biso   1.000  H
  H103     1.0000 0.36780  0.25630  0.06800  Biso   1.000  H
  H104     1.0000 0.40540  0.28750  0.13410  Biso   1.000  H
  H105     1.0000 0.22150  0.73090  0.02780  Biso   1.000  H
  H106     1.0000 0.32270  0.72340  0.02880  Biso   1.000  H
  H107     1.0000 0.26490  0.66270  0.05860  Biso   1.000  H
  H108     1.0000 0.21280  0.61660  0.96700  Biso   1.000  H
  H109     1.0000 0.25460  0.67780  0.86950  Biso   1.000  H
  H110     1.0000 0.29440  0.74880  0.90920  Biso   1.000  H
  H111     1.0000 0.13570  0.75480  0.86250  Biso   1.000  H
  H112     1.0000 0.10780  0.71110  0.92600  Biso   1.000  H
  Er13     1.0000 0.22490  0.93930  0.05740  Biso   1.000  Er
  Er14     1.0000 0.12670  0.13930  0.05630  Biso   1.000  Er
  Er15     1.0000 0.00140  0.97710  0.13890  Biso   1.000  Er
  Er16     1.0000 0.01750  0.98440  0.96210  Biso   1.000  Er
