data_image0
_cell_length_a       17.1161
_cell_length_b       38.6862
_cell_length_c       25.6467
_cell_angle_alpha    90
_cell_angle_beta     101.441
_cell_angle_gamma    90

_symmetry_space_group_name_H-M    "P 1"
_symmetry_int_tables_number       1

loop_
  _symmetry_equiv_pos_as_xyz
  'x, y, z'

loop_
  _atom_site_label
  _atom_site_occupancy
  _atom_site_fract_x
  _atom_site_fract_y
  _atom_site_fract_z
  _atom_site_thermal_displace_type
  _atom_site_B_iso_or_equiv
  _atom_site_type_symbol
  Cu1      1.0000 0.94020  0.26600  0.20506  Biso   1.000  Cu
  Cu2      1.0000 0.07217  0.25232  0.27420  Biso   1.000  Cu
  Cu3      1.0000 0.00609  0.96601  0.49967  Biso   1.000  Cu
  O1       1.0000 0.11504  0.97656  0.49088  Biso   1.000  O
  O2       1.0000 0.88430  0.78903  0.26432  Biso   1.000  O
  O3       1.0000 0.99500  0.79992  0.32421  Biso   1.000  O
  O4       1.0000 0.89470  0.23100  0.24423  Biso   1.000  O
  O5       1.0000 0.00880  0.21751  0.30243  Biso   1.000  O
  O6       1.0000 0.03870  0.97130  0.57630  Biso   1.000  O
  O7       1.0000 0.97900  0.22885  0.16429  Biso   1.000  O
  O8       1.0000 0.09170  0.21834  0.22207  Biso   1.000  O
  O9       1.0000 0.07790  0.80083  0.24328  Biso   1.000  O
  O10      1.0000 0.96740  0.78817  0.18361  Biso   1.000  O
  C1       1.0000 0.14140  0.00664  0.48752  Biso   1.000  C
  C2       1.0000 0.22390  0.00967  0.47529  Biso   1.000  C
  C3       1.0000 0.25630  0.04156  0.46990  Biso   1.000  C
  H1       1.0000 0.22820  0.06170  0.47510  Biso   1.000  H
  C4       1.0000 0.33250  0.04374  0.45660  Biso   1.000  C
  H2       1.0000 0.35510  0.06550  0.45250  Biso   1.000  H
  C5       1.0000 0.37310  0.01427  0.44960  Biso   1.000  C
  C6       1.0000 0.34080  0.98260  0.45630  Biso   1.000  C
  H3       1.0000 0.36990  0.96240  0.45260  Biso   1.000  H
  C7       1.0000 0.26490  0.97993  0.46880  Biso   1.000  C
  H4       1.0000 0.24240  0.95810  0.47270  Biso   1.000  H
  C8       1.0000 0.45050  0.01649  0.43520  Biso   1.000  C
  C9       1.0000 0.51670  0.01629  0.42240  Biso   1.000  C
  C10      1.0000 0.59120  0.01511  0.40848  Biso   1.000  C
  C11      1.0000 0.62670  0.98374  0.40344  Biso   1.000  C
  H5       1.0000 0.60120  0.96320  0.41010  Biso   1.000  H
  C12      1.0000 0.70170  0.98250  0.38819  Biso   1.000  C
  C13      1.0000 0.74010  0.01274  0.37970  Biso   1.000  C
  H6       1.0000 0.79110  0.01190  0.37120  Biso   1.000  H
  C14      1.0000 0.70370  0.04402  0.38360  Biso   1.000  C
  C15      1.0000 0.62880  0.04535  0.39817  Biso   1.000  C
  H7       1.0000 0.60410  0.06680  0.40090  Biso   1.000  H
  C16      1.0000 0.73910  0.94935  0.38190  Biso   1.000  C
  C17      1.0000 0.77100  0.92336  0.37240  Biso   1.000  C
  C18      1.0000 0.80800  0.89286  0.35940  Biso   1.000  C
  C19      1.0000 0.76590  0.87078  0.32100  Biso   1.000  C
  H8       1.0000 0.71160  0.87470  0.30700  Biso   1.000  H
  C20      1.0000 0.80530  0.84279  0.30380  Biso   1.000  C
  H9       1.0000 0.77740  0.82840  0.27680  Biso   1.000  H
  C21      1.0000 0.88250  0.83564  0.32460  Biso   1.000  C
  C22      1.0000 0.92250  0.85646  0.36350  Biso   1.000  C
  H10      1.0000 0.97560  0.85140  0.37940  Biso   1.000  H
  C23      1.0000 0.88550  0.88521  0.37990  Biso   1.000  C
  H11      1.0000 0.91480  0.89980  0.40590  Biso   1.000  H
  C24      1.0000 0.92320  0.80515  0.30280  Biso   1.000  C
  C25      1.0000 0.74270  0.07495  0.37150  Biso   1.000  C
  C26      1.0000 0.77570  0.09952  0.35960  Biso   1.000  C
  C27      1.0000 0.81600  0.12943  0.34290  Biso   1.000  C
  C28      1.0000 0.89670  0.13352  0.35820  Biso   1.000  C
  H12      1.0000 0.92610  0.11710  0.38110  Biso   1.000  H
  C29      1.0000 0.93650  0.16144  0.34070  Biso   1.000  C
  H13      1.0000 0.99180  0.16420  0.35230  Biso   1.000  H
  C30      1.0000 0.89240  0.18521  0.30570  Biso   1.000  C
  C31      1.0000 0.81160  0.18177  0.28990  Biso   1.000  C
  H14      1.0000 0.78270  0.19770  0.26590  Biso   1.000  H
  C32      1.0000 0.77090  0.15383  0.30990  Biso   1.000  C
  H15      1.0000 0.71510  0.15200  0.30100  Biso   1.000  H
  C33      1.0000 0.93340  0.21407  0.28170  Biso   1.000  C
  C34      1.0000 0.04250  0.00012  0.59874  Biso   1.000  C
  C35      1.0000 0.06230  0.99975  0.65900  Biso   1.000  C
  C36      1.0000 0.07220  0.96915  0.68710  Biso   1.000  C
  H16      1.0000 0.06950  0.94810  0.66860  Biso   1.000  H
  C37      1.0000 0.08590  0.96900  0.74160  Biso   1.000  C
  H17      1.0000 0.09280  0.94780  0.75990  Biso   1.000  H
  C38      1.0000 0.08970  0.99975  0.77010  Biso   1.000  C
  C39      1.0000 0.08590  0.03011  0.74250  Biso   1.000  C
  H18      1.0000 0.09320  0.05110  0.76120  Biso   1.000  H
  C40      1.0000 0.07130  0.03042  0.68690  Biso   1.000  C
  H19      1.0000 0.06760  0.05160  0.66860  Biso   1.000  H
  C41      1.0000 0.09850  0.00008  0.82690  Biso   1.000  C
  C42      1.0000 0.10300  0.00073  0.87320  Biso   1.000  C
  C43      1.0000 0.10440  0.00226  0.93040  Biso   1.000  C
  C44      1.0000 0.10260  0.03386  0.95470  Biso   1.000  C
  H20      1.0000 0.10130  0.05430  0.93480  Biso   1.000  H
  C45      1.0000 0.10280  0.03539  0.00840  Biso   1.000  C
  C46      1.0000 0.10440  0.00551  0.03710  Biso   1.000  C
  H21      1.0000 0.10460  0.00670  0.07380  Biso   1.000  H
  C47      1.0000 0.10580  0.97360  0.01300  Biso   1.000  C
  C48      1.0000 0.10390  0.97178  0.95950  Biso   1.000  C
  H22      1.0000 0.10230  0.95020  0.94240  Biso   1.000  H
  C49      1.0000 0.10030  0.06868  0.03420  Biso   1.000  C
  C50      1.0000 0.09290  0.09545  0.05710  Biso   1.000  C
  C51      1.0000 0.08270  0.12562  0.08570  Biso   1.000  C
  C52      1.0000 0.01840  0.14644  0.07010  Biso   1.000  C
  H23      1.0000 0.98220  0.14130  0.03840  Biso   1.000  H
  C53      1.0000 0.00440  0.17506  0.09950  Biso   1.000  C
  H24      1.0000 0.95890  0.18880  0.08830  Biso   1.000  H
  C54      1.0000 0.05830  0.18299  0.14530  Biso   1.000  C
  C55      1.0000 0.12490  0.16354  0.16130  Biso   1.000  C
  H25      1.0000 0.16270  0.16990  0.19160  Biso   1.000  H
  C56      1.0000 0.13690  0.13391  0.13220  Biso   1.000  C
  H26      1.0000 0.18140  0.11970  0.14410  Biso   1.000  H
  C57      1.0000 0.04270  0.21216  0.17980  Biso   1.000  C
  C58      1.0000 0.10080  0.94204  0.04410  Biso   1.000  C
  C59      1.0000 0.09020  0.91753  0.06870  Biso   1.000  C
  C60      1.0000 0.07740  0.88846  0.10000  Biso   1.000  C
  C61      1.0000 0.01110  0.86871  0.08530  Biso   1.000  C
  H27      1.0000 0.97480  0.87370  0.05360  Biso   1.000  H
  C62      1.0000 0.99660  0.84085  0.11740  Biso   1.000  C
  H28      1.0000 0.95110  0.82700  0.10670  Biso   1.000  H
  C63      1.0000 0.04850  0.83392  0.16410  Biso   1.000  C
  C64      1.0000 0.11460  0.85290  0.17880  Biso   1.000  C
  H29      1.0000 0.15020  0.84750  0.21060  Biso   1.000  H
  C65      1.0000 0.13200  0.88122  0.14690  Biso   1.000  C
  H30      1.0000 0.17860  0.89450  0.15720  Biso   1.000  H
  C66      1.0000 0.03040  0.80502  0.19890  Biso   1.000  C
  O11      1.0000 0.10507  0.03418  0.49134  Biso   1.000  O
  O12      1.0000 0.02957  0.02915  0.57670  Biso   1.000  O
  Cu4      1.0000 0.05980  0.76600  0.29494  Biso   1.000  Cu
  Cu5      1.0000 0.92783  0.75232  0.22580  Biso   1.000  Cu
  Cu6      1.0000 0.99391  0.46601  0.00033  Biso   1.000  Cu
  O13      1.0000 0.88496  0.47656  0.00912  Biso   1.000  O
  O14      1.0000 0.11570  0.28903  0.23568  Biso   1.000  O
  O15      1.0000 0.00500  0.29992  0.17579  Biso   1.000  O
  O16      1.0000 0.10530  0.73100  0.25577  Biso   1.000  O
  O17      1.0000 0.99120  0.71751  0.19757  Biso   1.000  O
  O18      1.0000 0.96130  0.47130  0.92370  Biso   1.000  O
  O19      1.0000 0.02100  0.72885  0.33571  Biso   1.000  O
  O20      1.0000 0.90830  0.71834  0.27793  Biso   1.000  O
  O21      1.0000 0.92210  0.30083  0.25672  Biso   1.000  O
  O22      1.0000 0.03260  0.28817  0.31639  Biso   1.000  O
  C67      1.0000 0.85860  0.50664  0.01248  Biso   1.000  C
  C68      1.0000 0.77610  0.50967  0.02471  Biso   1.000  C
  C69      1.0000 0.74370  0.54156  0.03010  Biso   1.000  C
  H31      1.0000 0.77180  0.56170  0.02490  Biso   1.000  H
  C70      1.0000 0.66750  0.54374  0.04340  Biso   1.000  C
  H32      1.0000 0.64490  0.56550  0.04750  Biso   1.000  H
  C71      1.0000 0.62690  0.51427  0.05040  Biso   1.000  C
  C72      1.0000 0.65920  0.48260  0.04370  Biso   1.000  C
  H33      1.0000 0.63010  0.46240  0.04740  Biso   1.000  H
  C73      1.0000 0.73510  0.47993  0.03120  Biso   1.000  C
  H34      1.0000 0.75760  0.45810  0.02730  Biso   1.000  H
  C74      1.0000 0.54950  0.51649  0.06480  Biso   1.000  C
  C75      1.0000 0.48330  0.51629  0.07760  Biso   1.000  C
  C76      1.0000 0.40880  0.51511  0.09152  Biso   1.000  C
  C77      1.0000 0.37330  0.48374  0.09656  Biso   1.000  C
  H35      1.0000 0.39880  0.46320  0.08990  Biso   1.000  H
  C78      1.0000 0.29830  0.48250  0.11181  Biso   1.000  C
  C79      1.0000 0.25990  0.51274  0.12030  Biso   1.000  C
  H36      1.0000 0.20890  0.51190  0.12880  Biso   1.000  H
  C80      1.0000 0.29630  0.54402  0.11640  Biso   1.000  C
  C81      1.0000 0.37120  0.54535  0.10183  Biso   1.000  C
  H37      1.0000 0.39590  0.56680  0.09910  Biso   1.000  H
  C82      1.0000 0.26090  0.44935  0.11810  Biso   1.000  C
  C83      1.0000 0.22900  0.42336  0.12760  Biso   1.000  C
  C84      1.0000 0.19200  0.39286  0.14060  Biso   1.000  C
  C85      1.0000 0.23410  0.37078  0.17900  Biso   1.000  C
  H38      1.0000 0.28840  0.37470  0.19300  Biso   1.000  H
  C86      1.0000 0.19470  0.34279  0.19620  Biso   1.000  C
  H39      1.0000 0.22260  0.32840  0.22320  Biso   1.000  H
  C87      1.0000 0.11750  0.33564  0.17540  Biso   1.000  C
  C88      1.0000 0.07750  0.35646  0.13650  Biso   1.000  C
  H40      1.0000 0.02440  0.35140  0.12060  Biso   1.000  H
  C89      1.0000 0.11450  0.38521  0.12010  Biso   1.000  C
  H41      1.0000 0.08520  0.39980  0.09410  Biso   1.000  H
  C90      1.0000 0.07680  0.30515  0.19720  Biso   1.000  C
  C91      1.0000 0.25730  0.57495  0.12850  Biso   1.000  C
  C92      1.0000 0.22430  0.59952  0.14040  Biso   1.000  C
  C93      1.0000 0.18400  0.62943  0.15710  Biso   1.000  C
  C94      1.0000 0.10330  0.63352  0.14180  Biso   1.000  C
  H42      1.0000 0.07390  0.61710  0.11890  Biso   1.000  H
  C95      1.0000 0.06350  0.66144  0.15930  Biso   1.000  C
  H43      1.0000 0.00820  0.66420  0.14770  Biso   1.000  H
  C96      1.0000 0.10760  0.68521  0.19430  Biso   1.000  C
  C97      1.0000 0.18840  0.68177  0.21010  Biso   1.000  C
  H44      1.0000 0.21730  0.69770  0.23410  Biso   1.000  H
  C98      1.0000 0.22910  0.65383  0.19010  Biso   1.000  C
  H45      1.0000 0.28490  0.65200  0.19900  Biso   1.000  H
  C99      1.0000 0.06660  0.71407  0.21830  Biso   1.000  C
  C100     1.0000 0.95750  0.50012  0.90126  Biso   1.000  C
  C101     1.0000 0.93770  0.49975  0.84100  Biso   1.000  C
  C102     1.0000 0.92780  0.46915  0.81290  Biso   1.000  C
  H46      1.0000 0.93050  0.44810  0.83140  Biso   1.000  H
  C103     1.0000 0.91410  0.46900  0.75840  Biso   1.000  C
  H47      1.0000 0.90720  0.44780  0.74010  Biso   1.000  H
  C104     1.0000 0.91030  0.49975  0.72990  Biso   1.000  C
  C105     1.0000 0.91410  0.53011  0.75750  Biso   1.000  C
  H48      1.0000 0.90680  0.55110  0.73880  Biso   1.000  H
  C106     1.0000 0.92870  0.53042  0.81310  Biso   1.000  C
  H49      1.0000 0.93240  0.55160  0.83140  Biso   1.000  H
  C107     1.0000 0.90150  0.50008  0.67310  Biso   1.000  C
  C108     1.0000 0.89700  0.50073  0.62680  Biso   1.000  C
  C109     1.0000 0.89560  0.50226  0.56960  Biso   1.000  C
  C110     1.0000 0.89740  0.53386  0.54530  Biso   1.000  C
  H50      1.0000 0.89870  0.55430  0.56520  Biso   1.000  H
  C111     1.0000 0.89720  0.53539  0.49160  Biso   1.000  C
  C112     1.0000 0.89560  0.50551  0.46290  Biso   1.000  C
  H51      1.0000 0.89540  0.50670  0.42620  Biso   1.000  H
  C113     1.0000 0.89420  0.47360  0.48700  Biso   1.000  C
  C114     1.0000 0.89610  0.47178  0.54050  Biso   1.000  C
  H52      1.0000 0.89770  0.45020  0.55760  Biso   1.000  H
  C115     1.0000 0.89970  0.56868  0.46580  Biso   1.000  C
  C116     1.0000 0.90710  0.59545  0.44290  Biso   1.000  C
  C117     1.0000 0.91730  0.62562  0.41430  Biso   1.000  C
  C118     1.0000 0.98160  0.64644  0.42990  Biso   1.000  C
  H53      1.0000 0.01780  0.64130  0.46160  Biso   1.000  H
  C119     1.0000 0.99560  0.67506  0.40050  Biso   1.000  C
  H54      1.0000 0.04110  0.68880  0.41170  Biso   1.000  H
  C120     1.0000 0.94170  0.68299  0.35470  Biso   1.000  C
  C121     1.0000 0.87510  0.66354  0.33870  Biso   1.000  C
  H55      1.0000 0.83730  0.66990  0.30840  Biso   1.000  H
  C122     1.0000 0.86310  0.63391  0.36780  Biso   1.000  C
  H56      1.0000 0.81860  0.61970  0.35590  Biso   1.000  H
  C123     1.0000 0.95730  0.71216  0.32020  Biso   1.000  C
  C124     1.0000 0.89920  0.44204  0.45590  Biso   1.000  C
  C125     1.0000 0.90980  0.41753  0.43130  Biso   1.000  C
  C126     1.0000 0.92260  0.38846  0.40000  Biso   1.000  C
  C127     1.0000 0.98890  0.36871  0.41470  Biso   1.000  C
  H57      1.0000 0.02520  0.37370  0.44640  Biso   1.000  H
  C128     1.0000 0.00340  0.34085  0.38260  Biso   1.000  C
  H58      1.0000 0.04890  0.32700  0.39330  Biso   1.000  H
  C129     1.0000 0.95150  0.33392  0.33590  Biso   1.000  C
  C130     1.0000 0.88540  0.35290  0.32120  Biso   1.000  C
  H59      1.0000 0.84980  0.34750  0.28940  Biso   1.000  H
  C131     1.0000 0.86800  0.38122  0.35310  Biso   1.000  C
  H60      1.0000 0.82140  0.39450  0.34280  Biso   1.000  H
  C132     1.0000 0.96960  0.30502  0.30110  Biso   1.000  C
  O23      1.0000 0.89493  0.53418  0.00866  Biso   1.000  O
  O24      1.0000 0.97043  0.52915  0.92330  Biso   1.000  O
  Cu7      1.0000 0.05980  0.73400  0.79494  Biso   1.000  Cu
  Cu8      1.0000 0.92783  0.74768  0.72580  Biso   1.000  Cu
  Cu9      1.0000 0.99391  0.03399  0.50033  Biso   1.000  Cu
  O25      1.0000 0.88496  0.02344  0.50912  Biso   1.000  O
  O26      1.0000 0.11570  0.21097  0.73568  Biso   1.000  O
  O27      1.0000 0.00500  0.20008  0.67579  Biso   1.000  O
  O28      1.0000 0.10530  0.76900  0.75577  Biso   1.000  O
  O29      1.0000 0.99120  0.78249  0.69757  Biso   1.000  O
  O30      1.0000 0.96130  0.02870  0.42370  Biso   1.000  O
  O31      1.0000 0.02100  0.77115  0.83571  Biso   1.000  O
  O32      1.0000 0.90830  0.78166  0.77793  Biso   1.000  O
  O33      1.0000 0.92210  0.19917  0.75672  Biso   1.000  O
  O34      1.0000 0.03260  0.21183  0.81639  Biso   1.000  O
  C133     1.0000 0.85860  0.99336  0.51248  Biso   1.000  C
  C134     1.0000 0.77610  0.99033  0.52471  Biso   1.000  C
  C135     1.0000 0.74370  0.95844  0.53010  Biso   1.000  C
  H61      1.0000 0.77180  0.93830  0.52490  Biso   1.000  H
  C136     1.0000 0.66750  0.95626  0.54340  Biso   1.000  C
  H62      1.0000 0.64490  0.93450  0.54750  Biso   1.000  H
  C137     1.0000 0.62690  0.98573  0.55040  Biso   1.000  C
  C138     1.0000 0.65920  0.01740  0.54370  Biso   1.000  C
  H63      1.0000 0.63010  0.03760  0.54740  Biso   1.000  H
  C139     1.0000 0.73510  0.02007  0.53120  Biso   1.000  C
  H64      1.0000 0.75760  0.04190  0.52730  Biso   1.000  H
  C140     1.0000 0.54950  0.98351  0.56480  Biso   1.000  C
  C141     1.0000 0.48330  0.98371  0.57760  Biso   1.000  C
  C142     1.0000 0.40880  0.98489  0.59152  Biso   1.000  C
  C143     1.0000 0.37330  0.01626  0.59656  Biso   1.000  C
  H65      1.0000 0.39880  0.03680  0.58990  Biso   1.000  H
  C144     1.0000 0.29830  0.01750  0.61181  Biso   1.000  C
  C145     1.0000 0.25990  0.98726  0.62030  Biso   1.000  C
  H66      1.0000 0.20890  0.98810  0.62880  Biso   1.000  H
  C146     1.0000 0.29630  0.95598  0.61640  Biso   1.000  C
  C147     1.0000 0.37120  0.95465  0.60183  Biso   1.000  C
  H67      1.0000 0.39590  0.93320  0.59910  Biso   1.000  H
  C148     1.0000 0.26090  0.05065  0.61810  Biso   1.000  C
  C149     1.0000 0.22900  0.07664  0.62760  Biso   1.000  C
  C150     1.0000 0.19200  0.10714  0.64060  Biso   1.000  C
  C151     1.0000 0.23410  0.12922  0.67900  Biso   1.000  C
  H68      1.0000 0.28840  0.12530  0.69300  Biso   1.000  H
  C152     1.0000 0.19470  0.15721  0.69620  Biso   1.000  C
  H69      1.0000 0.22260  0.17160  0.72320  Biso   1.000  H
  C153     1.0000 0.11750  0.16436  0.67540  Biso   1.000  C
  C154     1.0000 0.07750  0.14354  0.63650  Biso   1.000  C
  H70      1.0000 0.02440  0.14860  0.62060  Biso   1.000  H
  C155     1.0000 0.11450  0.11479  0.62010  Biso   1.000  C
  H71      1.0000 0.08520  0.10020  0.59410  Biso   1.000  H
  C156     1.0000 0.07680  0.19485  0.69720  Biso   1.000  C
  C157     1.0000 0.25730  0.92505  0.62850  Biso   1.000  C
  C158     1.0000 0.22430  0.90048  0.64040  Biso   1.000  C
  C159     1.0000 0.18400  0.87057  0.65710  Biso   1.000  C
  C160     1.0000 0.10330  0.86648  0.64180  Biso   1.000  C
  H72      1.0000 0.07390  0.88290  0.61890  Biso   1.000  H
  C161     1.0000 0.06350  0.83856  0.65930  Biso   1.000  C
  H73      1.0000 0.00820  0.83580  0.64770  Biso   1.000  H
  C162     1.0000 0.10760  0.81479  0.69430  Biso   1.000  C
  C163     1.0000 0.18840  0.81823  0.71010  Biso   1.000  C
  H74      1.0000 0.21730  0.80230  0.73410  Biso   1.000  H
  C164     1.0000 0.22910  0.84617  0.69010  Biso   1.000  C
  H75      1.0000 0.28490  0.84800  0.69900  Biso   1.000  H
  C165     1.0000 0.06660  0.78593  0.71830  Biso   1.000  C
  C166     1.0000 0.95750  0.99988  0.40126  Biso   1.000  C
  C167     1.0000 0.93770  0.00025  0.34100  Biso   1.000  C
  C168     1.0000 0.92780  0.03085  0.31290  Biso   1.000  C
  H76      1.0000 0.93050  0.05190  0.33140  Biso   1.000  H
  C169     1.0000 0.91410  0.03100  0.25840  Biso   1.000  C
  H77      1.0000 0.90720  0.05220  0.24010  Biso   1.000  H
  C170     1.0000 0.91030  0.00025  0.22990  Biso   1.000  C
  C171     1.0000 0.91410  0.96989  0.25750  Biso   1.000  C
  H78      1.0000 0.90680  0.94890  0.23880  Biso   1.000  H
  C172     1.0000 0.92870  0.96958  0.31310  Biso   1.000  C
  H79      1.0000 0.93240  0.94840  0.33140  Biso   1.000  H
  C173     1.0000 0.90150  0.99992  0.17310  Biso   1.000  C
  C174     1.0000 0.89700  0.99927  0.12680  Biso   1.000  C
  C175     1.0000 0.89560  0.99774  0.06960  Biso   1.000  C
  C176     1.0000 0.89740  0.96614  0.04530  Biso   1.000  C
  H80      1.0000 0.89870  0.94570  0.06520  Biso   1.000  H
  C177     1.0000 0.89720  0.96461  0.99160  Biso   1.000  C
  C178     1.0000 0.89560  0.99449  0.96290  Biso   1.000  C
  H81      1.0000 0.89540  0.99330  0.92620  Biso   1.000  H
  C179     1.0000 0.89420  0.02640  0.98700  Biso   1.000  C
  C180     1.0000 0.89610  0.02822  0.04050  Biso   1.000  C
  H82      1.0000 0.89770  0.04980  0.05760  Biso   1.000  H
  C181     1.0000 0.89970  0.93132  0.96580  Biso   1.000  C
  C182     1.0000 0.90710  0.90455  0.94290  Biso   1.000  C
  C183     1.0000 0.91730  0.87438  0.91430  Biso   1.000  C
  C184     1.0000 0.98160  0.85356  0.92990  Biso   1.000  C
  H83      1.0000 0.01780  0.85870  0.96160  Biso   1.000  H
  C185     1.0000 0.99560  0.82494  0.90050  Biso   1.000  C
  H84      1.0000 0.04110  0.81120  0.91170  Biso   1.000  H
  C186     1.0000 0.94170  0.81701  0.85470  Biso   1.000  C
  C187     1.0000 0.87510  0.83646  0.83870  Biso   1.000  C
  H85      1.0000 0.83730  0.83010  0.80840  Biso   1.000  H
  C188     1.0000 0.86310  0.86609  0.86780  Biso   1.000  C
  H86      1.0000 0.81860  0.88030  0.85590  Biso   1.000  H
  C189     1.0000 0.95730  0.78784  0.82020  Biso   1.000  C
  C190     1.0000 0.89920  0.05796  0.95590  Biso   1.000  C
  C191     1.0000 0.90980  0.08247  0.93130  Biso   1.000  C
  C192     1.0000 0.92260  0.11154  0.90000  Biso   1.000  C
  C193     1.0000 0.98890  0.13129  0.91470  Biso   1.000  C
  H87      1.0000 0.02520  0.12630  0.94640  Biso   1.000  H
  C194     1.0000 0.00340  0.15915  0.88260  Biso   1.000  C
  H88      1.0000 0.04890  0.17300  0.89330  Biso   1.000  H
  C195     1.0000 0.95150  0.16608  0.83590  Biso   1.000  C
  C196     1.0000 0.88540  0.14710  0.82120  Biso   1.000  C
  H89      1.0000 0.84980  0.15250  0.78940  Biso   1.000  H
  C197     1.0000 0.86800  0.11878  0.85310  Biso   1.000  C
  H90      1.0000 0.82140  0.10550  0.84280  Biso   1.000  H
  C198     1.0000 0.96960  0.19498  0.80110  Biso   1.000  C
  O35      1.0000 0.89493  0.96582  0.50866  Biso   1.000  O
  O36      1.0000 0.97043  0.97085  0.42330  Biso   1.000  O
  Cu10     1.0000 0.94020  0.23400  0.70506  Biso   1.000  Cu
  Cu11     1.0000 0.07217  0.24768  0.77420  Biso   1.000  Cu
  Cu12     1.0000 0.00609  0.53399  0.99967  Biso   1.000  Cu
  O37      1.0000 0.11504  0.52344  0.99088  Biso   1.000  O
  O38      1.0000 0.88430  0.71097  0.76432  Biso   1.000  O
  O39      1.0000 0.99500  0.70008  0.82421  Biso   1.000  O
  O40      1.0000 0.89470  0.26900  0.74423  Biso   1.000  O
  O41      1.0000 0.00880  0.28249  0.80243  Biso   1.000  O
  O42      1.0000 0.03870  0.52870  0.07630  Biso   1.000  O
  O43      1.0000 0.97900  0.27115  0.66429  Biso   1.000  O
  O44      1.0000 0.09170  0.28166  0.72207  Biso   1.000  O
  O45      1.0000 0.07790  0.69917  0.74328  Biso   1.000  O
  O46      1.0000 0.96740  0.71183  0.68361  Biso   1.000  O
  C199     1.0000 0.14140  0.49336  0.98752  Biso   1.000  C
  C200     1.0000 0.22390  0.49033  0.97529  Biso   1.000  C
  C201     1.0000 0.25630  0.45844  0.96990  Biso   1.000  C
  H91      1.0000 0.22820  0.43830  0.97510  Biso   1.000  H
  C202     1.0000 0.33250  0.45626  0.95660  Biso   1.000  C
  H92      1.0000 0.35510  0.43450  0.95250  Biso   1.000  H
  C203     1.0000 0.37310  0.48573  0.94960  Biso   1.000  C
  C204     1.0000 0.34080  0.51740  0.95630  Biso   1.000  C
  H93      1.0000 0.36990  0.53760  0.95260  Biso   1.000  H
  C205     1.0000 0.26490  0.52007  0.96880  Biso   1.000  C
  H94      1.0000 0.24240  0.54190  0.97270  Biso   1.000  H
  C206     1.0000 0.45050  0.48351  0.93520  Biso   1.000  C
  C207     1.0000 0.51670  0.48371  0.92240  Biso   1.000  C
  C208     1.0000 0.59120  0.48489  0.90848  Biso   1.000  C
  C209     1.0000 0.62670  0.51626  0.90344  Biso   1.000  C
  H95      1.0000 0.60120  0.53680  0.91010  Biso   1.000  H
  C210     1.0000 0.70170  0.51750  0.88819  Biso   1.000  C
  C211     1.0000 0.74010  0.48726  0.87970  Biso   1.000  C
  H96      1.0000 0.79110  0.48810  0.87120  Biso   1.000  H
  C212     1.0000 0.70370  0.45598  0.88360  Biso   1.000  C
  C213     1.0000 0.62880  0.45465  0.89817  Biso   1.000  C
  H97      1.0000 0.60410  0.43320  0.90090  Biso   1.000  H
  C214     1.0000 0.73910  0.55065  0.88190  Biso   1.000  C
  C215     1.0000 0.77100  0.57664  0.87240  Biso   1.000  C
  C216     1.0000 0.80800  0.60714  0.85940  Biso   1.000  C
  C217     1.0000 0.76590  0.62922  0.82100  Biso   1.000  C
  H98      1.0000 0.71160  0.62530  0.80700  Biso   1.000  H
  C218     1.0000 0.80530  0.65721  0.80380  Biso   1.000  C
  H99      1.0000 0.77740  0.67160  0.77680  Biso   1.000  H
  C219     1.0000 0.88250  0.66436  0.82460  Biso   1.000  C
  C220     1.0000 0.92250  0.64354  0.86350  Biso   1.000  C
  H100     1.0000 0.97560  0.64860  0.87940  Biso   1.000  H
  C221     1.0000 0.88550  0.61479  0.87990  Biso   1.000  C
  H101     1.0000 0.91480  0.60020  0.90590  Biso   1.000  H
  C222     1.0000 0.92320  0.69485  0.80280  Biso   1.000  C
  C223     1.0000 0.74270  0.42505  0.87150  Biso   1.000  C
  C224     1.0000 0.77570  0.40048  0.85960  Biso   1.000  C
  C225     1.0000 0.81600  0.37057  0.84290  Biso   1.000  C
  C226     1.0000 0.89670  0.36648  0.85820  Biso   1.000  C
  H102     1.0000 0.92610  0.38290  0.88110  Biso   1.000  H
  C227     1.0000 0.93650  0.33856  0.84070  Biso   1.000  C
  H103     1.0000 0.99180  0.33580  0.85230  Biso   1.000  H
  C228     1.0000 0.89240  0.31479  0.80570  Biso   1.000  C
  C229     1.0000 0.81160  0.31823  0.78990  Biso   1.000  C
  H104     1.0000 0.78270  0.30230  0.76590  Biso   1.000  H
  C230     1.0000 0.77090  0.34617  0.80990  Biso   1.000  C
  H105     1.0000 0.71510  0.34800  0.80100  Biso   1.000  H
  C231     1.0000 0.93340  0.28593  0.78170  Biso   1.000  C
  C232     1.0000 0.04250  0.49988  0.09874  Biso   1.000  C
  C233     1.0000 0.06230  0.50025  0.15900  Biso   1.000  C
  C234     1.0000 0.07220  0.53085  0.18710  Biso   1.000  C
  H106     1.0000 0.06950  0.55190  0.16860  Biso   1.000  H
  C235     1.0000 0.08590  0.53100  0.24160  Biso   1.000  C
  H107     1.0000 0.09280  0.55220  0.25990  Biso   1.000  H
  C236     1.0000 0.08970  0.50025  0.27010  Biso   1.000  C
  C237     1.0000 0.08590  0.46989  0.24250  Biso   1.000  C
  H108     1.0000 0.09320  0.44890  0.26120  Biso   1.000  H
  C238     1.0000 0.07130  0.46958  0.18690  Biso   1.000  C
  H109     1.0000 0.06760  0.44840  0.16860  Biso   1.000  H
  C239     1.0000 0.09850  0.49992  0.32690  Biso   1.000  C
  C240     1.0000 0.10300  0.49927  0.37320  Biso   1.000  C
  C241     1.0000 0.10440  0.49774  0.43040  Biso   1.000  C
  C242     1.0000 0.10260  0.46614  0.45470  Biso   1.000  C
  H110     1.0000 0.10130  0.44570  0.43480  Biso   1.000  H
  C243     1.0000 0.10280  0.46461  0.50840  Biso   1.000  C
  C244     1.0000 0.10440  0.49449  0.53710  Biso   1.000  C
  H111     1.0000 0.10460  0.49330  0.57380  Biso   1.000  H
  C245     1.0000 0.10580  0.52640  0.51300  Biso   1.000  C
  C246     1.0000 0.10390  0.52822  0.45950  Biso   1.000  C
  H112     1.0000 0.10230  0.54980  0.44240  Biso   1.000  H
  C247     1.0000 0.10030  0.43132  0.53420  Biso   1.000  C
  C248     1.0000 0.09290  0.40455  0.55710  Biso   1.000  C
  C249     1.0000 0.08270  0.37438  0.58570  Biso   1.000  C
  C250     1.0000 0.01840  0.35356  0.57010  Biso   1.000  C
  H113     1.0000 0.98220  0.35870  0.53840  Biso   1.000  H
  C251     1.0000 0.00440  0.32494  0.59950  Biso   1.000  C
  H114     1.0000 0.95890  0.31120  0.58830  Biso   1.000  H
  C252     1.0000 0.05830  0.31701  0.64530  Biso   1.000  C
  C253     1.0000 0.12490  0.33646  0.66130  Biso   1.000  C
  H115     1.0000 0.16270  0.33010  0.69160  Biso   1.000  H
  C254     1.0000 0.13690  0.36609  0.63220  Biso   1.000  C
  H116     1.0000 0.18140  0.38030  0.64410  Biso   1.000  H
  C255     1.0000 0.04270  0.28784  0.67980  Biso   1.000  C
  C256     1.0000 0.10080  0.55796  0.54410  Biso   1.000  C
  C257     1.0000 0.09020  0.58247  0.56870  Biso   1.000  C
  C258     1.0000 0.07740  0.61154  0.60000  Biso   1.000  C
  C259     1.0000 0.01110  0.63129  0.58530  Biso   1.000  C
  H117     1.0000 0.97480  0.62630  0.55360  Biso   1.000  H
  C260     1.0000 0.99660  0.65915  0.61740  Biso   1.000  C
  H118     1.0000 0.95110  0.67300  0.60670  Biso   1.000  H
  C261     1.0000 0.04850  0.66608  0.66410  Biso   1.000  C
  C262     1.0000 0.11460  0.64710  0.67880  Biso   1.000  C
  H119     1.0000 0.15020  0.65250  0.71060  Biso   1.000  H
  C263     1.0000 0.13200  0.61878  0.64690  Biso   1.000  C
  H120     1.0000 0.17860  0.60550  0.65720  Biso   1.000  H
  C264     1.0000 0.03040  0.69498  0.69890  Biso   1.000  C
  O47      1.0000 0.10507  0.46582  0.99134  Biso   1.000  O
  O48      1.0000 0.02957  0.47085  0.07670  Biso   1.000  O
