data_image0
_cell_length_a       18.465
_cell_length_b       9.367
_cell_length_c       10.059
_cell_angle_alpha    90
_cell_angle_beta     90
_cell_angle_gamma    90

_symmetry_space_group_name_H-M    "P 1"
_symmetry_int_tables_number       1

loop_
  _symmetry_equiv_pos_as_xyz
  'x, y, z'

loop_
  _atom_site_label
  _atom_site_occupancy
  _atom_site_fract_x
  _atom_site_fract_y
  _atom_site_fract_z
  _atom_site_thermal_displace_type
  _atom_site_B_iso_or_equiv
  _atom_site_type_symbol
  Ru1      1.0000 0.48476  0.05878  0.59411  Biso   1.000  Ru
  C1       1.0000 0.52890  0.76710  0.64320  Biso   1.000  C
  C2       1.0000 0.63720  0.08190  0.52860  Biso   1.000  C
  O1       1.0000 0.53590  0.76460  0.51570  Biso   1.000  O
  O2       1.0000 0.50510  0.88070  0.70350  Biso   1.000  O
  O3       1.0000 0.54630  0.65770  0.70850  Biso   1.000  O
  O4       1.0000 0.61920  0.00200  0.43010  Biso   1.000  O
  O5       1.0000 0.58840  0.11840  0.61710  Biso   1.000  O
  O6       1.0000 0.70220  0.12140  0.54280  Biso   1.000  O
  K1       1.0000 0.42920  0.50250  0.55480  Biso   1.000  K
  Ru2      1.0000 0.01524  0.44122  0.59411  Biso   1.000  Ru
  C3       1.0000 0.97110  0.73290  0.64320  Biso   1.000  C
  C4       1.0000 0.86280  0.41810  0.52860  Biso   1.000  C
  O7       1.0000 0.96410  0.73540  0.51570  Biso   1.000  O
  O8       1.0000 0.99490  0.61930  0.70350  Biso   1.000  O
  O9       1.0000 0.95370  0.84230  0.70850  Biso   1.000  O
  O10      1.0000 0.88080  0.49800  0.43010  Biso   1.000  O
  O11      1.0000 0.91160  0.38160  0.61710  Biso   1.000  O
  O12      1.0000 0.79780  0.37860  0.54280  Biso   1.000  O
  K2       1.0000 0.07080  0.99750  0.55480  Biso   1.000  K
  Ru3      1.0000 0.51524  0.55878  0.90589  Biso   1.000  Ru
  C5       1.0000 0.47110  0.26710  0.85680  Biso   1.000  C
  C6       1.0000 0.36280  0.58190  0.97140  Biso   1.000  C
  O13      1.0000 0.46410  0.26460  0.98430  Biso   1.000  O
  O14      1.0000 0.49490  0.38070  0.79650  Biso   1.000  O
  O15      1.0000 0.45370  0.15770  0.79150  Biso   1.000  O
  O16      1.0000 0.38080  0.50200  0.06990  Biso   1.000  O
  O17      1.0000 0.41160  0.61840  0.88290  Biso   1.000  O
  O18      1.0000 0.29780  0.62140  0.95720  Biso   1.000  O
  K3       1.0000 0.57080  0.00250  0.94520  Biso   1.000  K
  Ru4      1.0000 0.98476  0.94122  0.90589  Biso   1.000  Ru
  C7       1.0000 0.02890  0.23290  0.85680  Biso   1.000  C
  C8       1.0000 0.13720  0.91810  0.97140  Biso   1.000  C
  O19      1.0000 0.03590  0.23540  0.98430  Biso   1.000  O
  O20      1.0000 0.00510  0.11930  0.79650  Biso   1.000  O
  O21      1.0000 0.04630  0.34230  0.79150  Biso   1.000  O
  O22      1.0000 0.11920  0.99800  0.06990  Biso   1.000  O
  O23      1.0000 0.08840  0.88160  0.88290  Biso   1.000  O
  O24      1.0000 0.20220  0.87860  0.95720  Biso   1.000  O
  K4       1.0000 0.92920  0.49750  0.94520  Biso   1.000  K
  Ru5      1.0000 0.51524  0.94122  0.40589  Biso   1.000  Ru
  C9       1.0000 0.47110  0.23290  0.35680  Biso   1.000  C
  C10      1.0000 0.36280  0.91810  0.47140  Biso   1.000  C
  O25      1.0000 0.46410  0.23540  0.48430  Biso   1.000  O
  O26      1.0000 0.49490  0.11930  0.29650  Biso   1.000  O
  O27      1.0000 0.45370  0.34230  0.29150  Biso   1.000  O
  O28      1.0000 0.38080  0.99800  0.56990  Biso   1.000  O
  O29      1.0000 0.41160  0.88160  0.38290  Biso   1.000  O
  O30      1.0000 0.29780  0.87860  0.45720  Biso   1.000  O
  K5       1.0000 0.57080  0.49750  0.44520  Biso   1.000  K
  Ru6      1.0000 0.98476  0.55878  0.40589  Biso   1.000  Ru
  C11      1.0000 0.02890  0.26710  0.35680  Biso   1.000  C
  C12      1.0000 0.13720  0.58190  0.47140  Biso   1.000  C
  O31      1.0000 0.03590  0.26460  0.48430  Biso   1.000  O
  O32      1.0000 0.00510  0.38070  0.29650  Biso   1.000  O
  O33      1.0000 0.04630  0.15770  0.29150  Biso   1.000  O
  O34      1.0000 0.11920  0.50200  0.56990  Biso   1.000  O
  O35      1.0000 0.08840  0.61840  0.38290  Biso   1.000  O
  O36      1.0000 0.20220  0.62140  0.45720  Biso   1.000  O
  K6       1.0000 0.92920  0.00250  0.44520  Biso   1.000  K
  Ru7      1.0000 0.48476  0.44122  0.09411  Biso   1.000  Ru
  C13      1.0000 0.52890  0.73290  0.14320  Biso   1.000  C
  C14      1.0000 0.63720  0.41810  0.02860  Biso   1.000  C
  O37      1.0000 0.53590  0.73540  0.01570  Biso   1.000  O
  O38      1.0000 0.50510  0.61930  0.20350  Biso   1.000  O
  O39      1.0000 0.54630  0.84230  0.20850  Biso   1.000  O
  O40      1.0000 0.61920  0.49800  0.93010  Biso   1.000  O
  O41      1.0000 0.58840  0.38160  0.11710  Biso   1.000  O
  O42      1.0000 0.70220  0.37860  0.04280  Biso   1.000  O
  K7       1.0000 0.42920  0.99750  0.05480  Biso   1.000  K
  Ru8      1.0000 0.01524  0.05878  0.09411  Biso   1.000  Ru
  C15      1.0000 0.97110  0.76710  0.14320  Biso   1.000  C
  C16      1.0000 0.86280  0.08190  0.02860  Biso   1.000  C
  O43      1.0000 0.96410  0.76460  0.01570  Biso   1.000  O
  O44      1.0000 0.99490  0.88070  0.20350  Biso   1.000  O
  O45      1.0000 0.95370  0.65770  0.20850  Biso   1.000  O
  O46      1.0000 0.88080  0.00200  0.93010  Biso   1.000  O
  O47      1.0000 0.91160  0.11840  0.11710  Biso   1.000  O
  O48      1.0000 0.79780  0.12140  0.04280  Biso   1.000  O
  K8       1.0000 0.07080  0.50250  0.05480  Biso   1.000  K
  Mg1      1.0000 0.75000  0.25000  0.68520  Biso   1.000  Mg
  Mg2      1.0000 0.25000  0.75000  0.81480  Biso   1.000  Mg
  Mg3      1.0000 0.25000  0.75000  0.31480  Biso   1.000  Mg
  Mg4      1.0000 0.75000  0.25000  0.18520  Biso   1.000  Mg
