data_image0
_cell_length_a       19.953
_cell_length_b       9.495
_cell_length_c       25.805
_cell_angle_alpha    90
_cell_angle_beta     91.915
_cell_angle_gamma    90

_symmetry_space_group_name_H-M    "P 1"
_symmetry_int_tables_number       1

loop_
  _symmetry_equiv_pos_as_xyz
  'x, y, z'

loop_
  _atom_site_label
  _atom_site_occupancy
  _atom_site_fract_x
  _atom_site_fract_y
  _atom_site_fract_z
  _atom_site_thermal_displace_type
  _atom_site_B_iso_or_equiv
  _atom_site_type_symbol
  Zn1      1.0000 0.08473  0.45196  0.47275  Biso   1.000  Zn
  O1       1.0000 0.98763  0.42740  0.44848  Biso   1.000  O
  O2       1.0000 0.38160  0.95600  0.09849  Biso   1.000  O
  O3       1.0000 0.92117  0.70240  0.47769  Biso   1.000  O
  O4       1.0000 0.90482  0.35740  0.49685  Biso   1.000  O
  O5       1.0000 0.84362  0.85310  0.49971  Biso   1.000  O
  O6       1.0000 0.29270  0.91170  0.04968  Biso   1.000  O
  C1       1.0000 0.92090  0.07760  0.46773  Biso   1.000  C
  H1       1.0000 0.88740  0.09760  0.49080  Biso   1.000  H
  C2       1.0000 0.93380  0.93970  0.45401  Biso   1.000  C
  C3       1.0000 0.98130  0.90950  0.41852  Biso   1.000  C
  H2       1.0000 0.98950  0.81620  0.40970  Biso   1.000  H
  C4       1.0000 0.01810  0.01820  0.39525  Biso   1.000  C
  C5       1.0000 0.00410  0.15730  0.41155  Biso   1.000  C
  H3       1.0000 0.02750  0.23180  0.39730  Biso   1.000  H
  C6       1.0000 0.95780  0.18500  0.44719  Biso   1.000  C
  C7       1.0000 0.06830  0.99040  0.35600  Biso   1.000  C
  C8       1.0000 0.06040  0.88170  0.32030  Biso   1.000  C
  H4       1.0000 0.02520  0.81860  0.32360  Biso   1.000  H
  C9       1.0000 0.10350  0.86470  0.28000  Biso   1.000  C
  H5       1.0000 0.09640  0.79110  0.25670  Biso   1.000  H
  C10      1.0000 0.15710  0.95500  0.27370  Biso   1.000  C
  C11      1.0000 0.16600  0.06330  0.31060  Biso   1.000  C
  H6       1.0000 0.20190  0.12500  0.30780  Biso   1.000  H
  C12      1.0000 0.12310  0.07970  0.35040  Biso   1.000  C
  H7       1.0000 0.13070  0.15180  0.37430  Biso   1.000  H
  C13      1.0000 0.19970  0.94660  0.22860  Biso   1.000  C
  C14      1.0000 0.17330  0.89860  0.18150  Biso   1.000  C
  H8       1.0000 0.12910  0.86790  0.17880  Biso   1.000  H
  C15      1.0000 0.21290  0.89660  0.13860  Biso   1.000  C
  H9       1.0000 0.19380  0.86850  0.10690  Biso   1.000  H
  C16      1.0000 0.27960  0.93460  0.14090  Biso   1.000  C
  C17      1.0000 0.30530  0.98240  0.18750  Biso   1.000  C
  H10      1.0000 0.34990  0.01120  0.19020  Biso   1.000  H
  C18      1.0000 0.26620  0.98850  0.23050  Biso   1.000  C
  H11      1.0000 0.28500  0.02180  0.26160  Biso   1.000  H
  C19      1.0000 0.89450  0.82180  0.47917  Biso   1.000  C
  C20      1.0000 0.94900  0.33400  0.46505  Biso   1.000  C
  C21      1.0000 0.31970  0.93270  0.09390  Biso   1.000  C
  Zn2      1.0000 0.58473  0.95196  0.47275  Biso   1.000  Zn
  O7       1.0000 0.48763  0.92740  0.44848  Biso   1.000  O
  O8       1.0000 0.88160  0.45600  0.09849  Biso   1.000  O
  O9       1.0000 0.42117  0.20240  0.47769  Biso   1.000  O
  O10      1.0000 0.40482  0.85740  0.49685  Biso   1.000  O
  O11      1.0000 0.34362  0.35310  0.49971  Biso   1.000  O
  O12      1.0000 0.79270  0.41170  0.04968  Biso   1.000  O
  C22      1.0000 0.42090  0.57760  0.46773  Biso   1.000  C
  H12      1.0000 0.38740  0.59760  0.49080  Biso   1.000  H
  C23      1.0000 0.43380  0.43970  0.45401  Biso   1.000  C
  C24      1.0000 0.48130  0.40950  0.41852  Biso   1.000  C
  H13      1.0000 0.48950  0.31620  0.40970  Biso   1.000  H
  C25      1.0000 0.51810  0.51820  0.39525  Biso   1.000  C
  C26      1.0000 0.50410  0.65730  0.41155  Biso   1.000  C
  H14      1.0000 0.52750  0.73180  0.39730  Biso   1.000  H
  C27      1.0000 0.45780  0.68500  0.44719  Biso   1.000  C
  C28      1.0000 0.56830  0.49040  0.35600  Biso   1.000  C
  C29      1.0000 0.56040  0.38170  0.32030  Biso   1.000  C
  H15      1.0000 0.52520  0.31860  0.32360  Biso   1.000  H
  C30      1.0000 0.60350  0.36470  0.28000  Biso   1.000  C
  H16      1.0000 0.59640  0.29110  0.25670  Biso   1.000  H
  C31      1.0000 0.65710  0.45500  0.27370  Biso   1.000  C
  C32      1.0000 0.66600  0.56330  0.31060  Biso   1.000  C
  H17      1.0000 0.70190  0.62500  0.30780  Biso   1.000  H
  C33      1.0000 0.62310  0.57970  0.35040  Biso   1.000  C
  H18      1.0000 0.63070  0.65180  0.37430  Biso   1.000  H
  C34      1.0000 0.69970  0.44660  0.22860  Biso   1.000  C
  C35      1.0000 0.67330  0.39860  0.18150  Biso   1.000  C
  H19      1.0000 0.62910  0.36790  0.17880  Biso   1.000  H
  C36      1.0000 0.71290  0.39660  0.13860  Biso   1.000  C
  H20      1.0000 0.69380  0.36850  0.10690  Biso   1.000  H
  C37      1.0000 0.77960  0.43460  0.14090  Biso   1.000  C
  C38      1.0000 0.80530  0.48240  0.18750  Biso   1.000  C
  H21      1.0000 0.84990  0.51120  0.19020  Biso   1.000  H
  C39      1.0000 0.76620  0.48850  0.23050  Biso   1.000  C
  H22      1.0000 0.78500  0.52180  0.26160  Biso   1.000  H
  C40      1.0000 0.39450  0.32180  0.47917  Biso   1.000  C
  C41      1.0000 0.44900  0.83400  0.46505  Biso   1.000  C
  C42      1.0000 0.81970  0.43270  0.09390  Biso   1.000  C
  Zn3      1.0000 0.91527  0.45196  0.02725  Biso   1.000  Zn
  O13      1.0000 0.01237  0.42740  0.05152  Biso   1.000  O
  O14      1.0000 0.61840  0.95600  0.40151  Biso   1.000  O
  O15      1.0000 0.07883  0.70240  0.02231  Biso   1.000  O
  O16      1.0000 0.09518  0.35740  0.00315  Biso   1.000  O
  O17      1.0000 0.15638  0.85310  0.00029  Biso   1.000  O
  O18      1.0000 0.70730  0.91170  0.45032  Biso   1.000  O
  C43      1.0000 0.07910  0.07760  0.03227  Biso   1.000  C
  H23      1.0000 0.11260  0.09760  0.00920  Biso   1.000  H
  C44      1.0000 0.06620  0.93970  0.04599  Biso   1.000  C
  C45      1.0000 0.01870  0.90950  0.08148  Biso   1.000  C
  H24      1.0000 0.01050  0.81620  0.09030  Biso   1.000  H
  C46      1.0000 0.98190  0.01820  0.10475  Biso   1.000  C
  C47      1.0000 0.99590  0.15730  0.08845  Biso   1.000  C
  H25      1.0000 0.97250  0.23180  0.10270  Biso   1.000  H
  C48      1.0000 0.04220  0.18500  0.05281  Biso   1.000  C
  C49      1.0000 0.93170  0.99040  0.14400  Biso   1.000  C
  C50      1.0000 0.93960  0.88170  0.17970  Biso   1.000  C
  H26      1.0000 0.97480  0.81860  0.17640  Biso   1.000  H
  C51      1.0000 0.89650  0.86470  0.22000  Biso   1.000  C
  H27      1.0000 0.90360  0.79110  0.24330  Biso   1.000  H
  C52      1.0000 0.84290  0.95500  0.22630  Biso   1.000  C
  C53      1.0000 0.83400  0.06330  0.18940  Biso   1.000  C
  H28      1.0000 0.79810  0.12500  0.19220  Biso   1.000  H
  C54      1.0000 0.87690  0.07970  0.14960  Biso   1.000  C
  H29      1.0000 0.86930  0.15180  0.12570  Biso   1.000  H
  C55      1.0000 0.80030  0.94660  0.27140  Biso   1.000  C
  C56      1.0000 0.82670  0.89860  0.31850  Biso   1.000  C
  H30      1.0000 0.87090  0.86790  0.32120  Biso   1.000  H
  C57      1.0000 0.78710  0.89660  0.36140  Biso   1.000  C
  H31      1.0000 0.80620  0.86850  0.39310  Biso   1.000  H
  C58      1.0000 0.72040  0.93460  0.35910  Biso   1.000  C
  C59      1.0000 0.69470  0.98240  0.31250  Biso   1.000  C
  H32      1.0000 0.65010  0.01120  0.30980  Biso   1.000  H
  C60      1.0000 0.73380  0.98850  0.26950  Biso   1.000  C
  H33      1.0000 0.71500  0.02180  0.23840  Biso   1.000  H
  C61      1.0000 0.10550  0.82180  0.02083  Biso   1.000  C
  C62      1.0000 0.05100  0.33400  0.03495  Biso   1.000  C
  C63      1.0000 0.68030  0.93270  0.40610  Biso   1.000  C
  Zn4      1.0000 0.41527  0.95196  0.02725  Biso   1.000  Zn
  O19      1.0000 0.51237  0.92740  0.05152  Biso   1.000  O
  O20      1.0000 0.11840  0.45600  0.40151  Biso   1.000  O
  O21      1.0000 0.57883  0.20240  0.02231  Biso   1.000  O
  O22      1.0000 0.59518  0.85740  0.00315  Biso   1.000  O
  O23      1.0000 0.65638  0.35310  0.00029  Biso   1.000  O
  O24      1.0000 0.20730  0.41170  0.45032  Biso   1.000  O
  C64      1.0000 0.57910  0.57760  0.03227  Biso   1.000  C
  H34      1.0000 0.61260  0.59760  0.00920  Biso   1.000  H
  C65      1.0000 0.56620  0.43970  0.04599  Biso   1.000  C
  C66      1.0000 0.51870  0.40950  0.08148  Biso   1.000  C
  H35      1.0000 0.51050  0.31620  0.09030  Biso   1.000  H
  C67      1.0000 0.48190  0.51820  0.10475  Biso   1.000  C
  C68      1.0000 0.49590  0.65730  0.08845  Biso   1.000  C
  H36      1.0000 0.47250  0.73180  0.10270  Biso   1.000  H
  C69      1.0000 0.54220  0.68500  0.05281  Biso   1.000  C
  C70      1.0000 0.43170  0.49040  0.14400  Biso   1.000  C
  C71      1.0000 0.43960  0.38170  0.17970  Biso   1.000  C
  H37      1.0000 0.47480  0.31860  0.17640  Biso   1.000  H
  C72      1.0000 0.39650  0.36470  0.22000  Biso   1.000  C
  H38      1.0000 0.40360  0.29110  0.24330  Biso   1.000  H
  C73      1.0000 0.34290  0.45500  0.22630  Biso   1.000  C
  C74      1.0000 0.33400  0.56330  0.18940  Biso   1.000  C
  H39      1.0000 0.29810  0.62500  0.19220  Biso   1.000  H
  C75      1.0000 0.37690  0.57970  0.14960  Biso   1.000  C
  H40      1.0000 0.36930  0.65180  0.12570  Biso   1.000  H
  C76      1.0000 0.30030  0.44660  0.27140  Biso   1.000  C
  C77      1.0000 0.32670  0.39860  0.31850  Biso   1.000  C
  H41      1.0000 0.37090  0.36790  0.32120  Biso   1.000  H
  C78      1.0000 0.28710  0.39660  0.36140  Biso   1.000  C
  H42      1.0000 0.30620  0.36850  0.39310  Biso   1.000  H
  C79      1.0000 0.22040  0.43460  0.35910  Biso   1.000  C
  C80      1.0000 0.19470  0.48240  0.31250  Biso   1.000  C
  H43      1.0000 0.15010  0.51120  0.30980  Biso   1.000  H
  C81      1.0000 0.23380  0.48850  0.26950  Biso   1.000  C
  H44      1.0000 0.21500  0.52180  0.23840  Biso   1.000  H
  C82      1.0000 0.60550  0.32180  0.02083  Biso   1.000  C
  C83      1.0000 0.55100  0.83400  0.03495  Biso   1.000  C
  C84      1.0000 0.18030  0.43270  0.40610  Biso   1.000  C
  Zn5      1.0000 0.91527  0.54804  0.52725  Biso   1.000  Zn
  O25      1.0000 0.01237  0.57260  0.55152  Biso   1.000  O
  O26      1.0000 0.61840  0.04400  0.90151  Biso   1.000  O
  O27      1.0000 0.07883  0.29760  0.52231  Biso   1.000  O
  O28      1.0000 0.09518  0.64260  0.50315  Biso   1.000  O
  O29      1.0000 0.15638  0.14690  0.50029  Biso   1.000  O
  O30      1.0000 0.70730  0.08830  0.95032  Biso   1.000  O
  C85      1.0000 0.07910  0.92240  0.53227  Biso   1.000  C
  H45      1.0000 0.11260  0.90240  0.50920  Biso   1.000  H
  C86      1.0000 0.06620  0.06030  0.54599  Biso   1.000  C
  C87      1.0000 0.01870  0.09050  0.58148  Biso   1.000  C
  H46      1.0000 0.01050  0.18380  0.59030  Biso   1.000  H
  C88      1.0000 0.98190  0.98180  0.60475  Biso   1.000  C
  C89      1.0000 0.99590  0.84270  0.58845  Biso   1.000  C
  H47      1.0000 0.97250  0.76820  0.60270  Biso   1.000  H
  C90      1.0000 0.04220  0.81500  0.55281  Biso   1.000  C
  C91      1.0000 0.93170  0.00960  0.64400  Biso   1.000  C
  C92      1.0000 0.93960  0.11830  0.67970  Biso   1.000  C
  H48      1.0000 0.97480  0.18140  0.67640  Biso   1.000  H
  C93      1.0000 0.89650  0.13530  0.72000  Biso   1.000  C
  H49      1.0000 0.90360  0.20890  0.74330  Biso   1.000  H
  C94      1.0000 0.84290  0.04500  0.72630  Biso   1.000  C
  C95      1.0000 0.83400  0.93670  0.68940  Biso   1.000  C
  H50      1.0000 0.79810  0.87500  0.69220  Biso   1.000  H
  C96      1.0000 0.87690  0.92030  0.64960  Biso   1.000  C
  H51      1.0000 0.86930  0.84820  0.62570  Biso   1.000  H
  C97      1.0000 0.80030  0.05340  0.77140  Biso   1.000  C
  C98      1.0000 0.82670  0.10140  0.81850  Biso   1.000  C
  H52      1.0000 0.87090  0.13210  0.82120  Biso   1.000  H
  C99      1.0000 0.78710  0.10340  0.86140  Biso   1.000  C
  H53      1.0000 0.80620  0.13150  0.89310  Biso   1.000  H
  C100     1.0000 0.72040  0.06540  0.85910  Biso   1.000  C
  C101     1.0000 0.69470  0.01760  0.81250  Biso   1.000  C
  H54      1.0000 0.65010  0.98880  0.80980  Biso   1.000  H
  C102     1.0000 0.73380  0.01150  0.76950  Biso   1.000  C
  H55      1.0000 0.71500  0.97820  0.73840  Biso   1.000  H
  C103     1.0000 0.10550  0.17820  0.52083  Biso   1.000  C
  C104     1.0000 0.05100  0.66600  0.53495  Biso   1.000  C
  C105     1.0000 0.68030  0.06730  0.90610  Biso   1.000  C
  Zn6      1.0000 0.41527  0.04804  0.52725  Biso   1.000  Zn
  O31      1.0000 0.51237  0.07260  0.55152  Biso   1.000  O
  O32      1.0000 0.11840  0.54400  0.90151  Biso   1.000  O
  O33      1.0000 0.57883  0.79760  0.52231  Biso   1.000  O
  O34      1.0000 0.59518  0.14260  0.50315  Biso   1.000  O
  O35      1.0000 0.65638  0.64690  0.50029  Biso   1.000  O
  O36      1.0000 0.20730  0.58830  0.95032  Biso   1.000  O
  C106     1.0000 0.57910  0.42240  0.53227  Biso   1.000  C
  H56      1.0000 0.61260  0.40240  0.50920  Biso   1.000  H
  C107     1.0000 0.56620  0.56030  0.54599  Biso   1.000  C
  C108     1.0000 0.51870  0.59050  0.58148  Biso   1.000  C
  H57      1.0000 0.51050  0.68380  0.59030  Biso   1.000  H
  C109     1.0000 0.48190  0.48180  0.60475  Biso   1.000  C
  C110     1.0000 0.49590  0.34270  0.58845  Biso   1.000  C
  H58      1.0000 0.47250  0.26820  0.60270  Biso   1.000  H
  C111     1.0000 0.54220  0.31500  0.55281  Biso   1.000  C
  C112     1.0000 0.43170  0.50960  0.64400  Biso   1.000  C
  C113     1.0000 0.43960  0.61830  0.67970  Biso   1.000  C
  H59      1.0000 0.47480  0.68140  0.67640  Biso   1.000  H
  C114     1.0000 0.39650  0.63530  0.72000  Biso   1.000  C
  H60      1.0000 0.40360  0.70890  0.74330  Biso   1.000  H
  C115     1.0000 0.34290  0.54500  0.72630  Biso   1.000  C
  C116     1.0000 0.33400  0.43670  0.68940  Biso   1.000  C
  H61      1.0000 0.29810  0.37500  0.69220  Biso   1.000  H
  C117     1.0000 0.37690  0.42030  0.64960  Biso   1.000  C
  H62      1.0000 0.36930  0.34820  0.62570  Biso   1.000  H
  C118     1.0000 0.30030  0.55340  0.77140  Biso   1.000  C
  C119     1.0000 0.32670  0.60140  0.81850  Biso   1.000  C
  H63      1.0000 0.37090  0.63210  0.82120  Biso   1.000  H
  C120     1.0000 0.28710  0.60340  0.86140  Biso   1.000  C
  H64      1.0000 0.30620  0.63150  0.89310  Biso   1.000  H
  C121     1.0000 0.22040  0.56540  0.85910  Biso   1.000  C
  C122     1.0000 0.19470  0.51760  0.81250  Biso   1.000  C
  H65      1.0000 0.15010  0.48880  0.80980  Biso   1.000  H
  C123     1.0000 0.23380  0.51150  0.76950  Biso   1.000  C
  H66      1.0000 0.21500  0.47820  0.73840  Biso   1.000  H
  C124     1.0000 0.60550  0.67820  0.52083  Biso   1.000  C
  C125     1.0000 0.55100  0.16600  0.53495  Biso   1.000  C
  C126     1.0000 0.18030  0.56730  0.90610  Biso   1.000  C
  Zn7      1.0000 0.08473  0.54804  0.97275  Biso   1.000  Zn
  O37      1.0000 0.98763  0.57260  0.94848  Biso   1.000  O
  O38      1.0000 0.38160  0.04400  0.59849  Biso   1.000  O
  O39      1.0000 0.92117  0.29760  0.97769  Biso   1.000  O
  O40      1.0000 0.90482  0.64260  0.99685  Biso   1.000  O
  O41      1.0000 0.84362  0.14690  0.99971  Biso   1.000  O
  O42      1.0000 0.29270  0.08830  0.54968  Biso   1.000  O
  C127     1.0000 0.92090  0.92240  0.96773  Biso   1.000  C
  H67      1.0000 0.88740  0.90240  0.99080  Biso   1.000  H
  C128     1.0000 0.93380  0.06030  0.95401  Biso   1.000  C
  C129     1.0000 0.98130  0.09050  0.91852  Biso   1.000  C
  H68      1.0000 0.98950  0.18380  0.90970  Biso   1.000  H
  C130     1.0000 0.01810  0.98180  0.89525  Biso   1.000  C
  C131     1.0000 0.00410  0.84270  0.91155  Biso   1.000  C
  H69      1.0000 0.02750  0.76820  0.89730  Biso   1.000  H
  C132     1.0000 0.95780  0.81500  0.94719  Biso   1.000  C
  C133     1.0000 0.06830  0.00960  0.85600  Biso   1.000  C
  C134     1.0000 0.06040  0.11830  0.82030  Biso   1.000  C
  H70      1.0000 0.02520  0.18140  0.82360  Biso   1.000  H
  C135     1.0000 0.10350  0.13530  0.78000  Biso   1.000  C
  H71      1.0000 0.09640  0.20890  0.75670  Biso   1.000  H
  C136     1.0000 0.15710  0.04500  0.77370  Biso   1.000  C
  C137     1.0000 0.16600  0.93670  0.81060  Biso   1.000  C
  H72      1.0000 0.20190  0.87500  0.80780  Biso   1.000  H
  C138     1.0000 0.12310  0.92030  0.85040  Biso   1.000  C
  H73      1.0000 0.13070  0.84820  0.87430  Biso   1.000  H
  C139     1.0000 0.19970  0.05340  0.72860  Biso   1.000  C
  C140     1.0000 0.17330  0.10140  0.68150  Biso   1.000  C
  H74      1.0000 0.12910  0.13210  0.67880  Biso   1.000  H
  C141     1.0000 0.21290  0.10340  0.63860  Biso   1.000  C
  H75      1.0000 0.19380  0.13150  0.60690  Biso   1.000  H
  C142     1.0000 0.27960  0.06540  0.64090  Biso   1.000  C
  C143     1.0000 0.30530  0.01760  0.68750  Biso   1.000  C
  H76      1.0000 0.34990  0.98880  0.69020  Biso   1.000  H
  C144     1.0000 0.26620  0.01150  0.73050  Biso   1.000  C
  H77      1.0000 0.28500  0.97820  0.76160  Biso   1.000  H
  C145     1.0000 0.89450  0.17820  0.97917  Biso   1.000  C
  C146     1.0000 0.94900  0.66600  0.96505  Biso   1.000  C
  C147     1.0000 0.31970  0.06730  0.59390  Biso   1.000  C
  Zn8      1.0000 0.58473  0.04804  0.97275  Biso   1.000  Zn
  O43      1.0000 0.48763  0.07260  0.94848  Biso   1.000  O
  O44      1.0000 0.88160  0.54400  0.59849  Biso   1.000  O
  O45      1.0000 0.42117  0.79760  0.97769  Biso   1.000  O
  O46      1.0000 0.40482  0.14260  0.99685  Biso   1.000  O
  O47      1.0000 0.34362  0.64690  0.99971  Biso   1.000  O
  O48      1.0000 0.79270  0.58830  0.54968  Biso   1.000  O
  C148     1.0000 0.42090  0.42240  0.96773  Biso   1.000  C
  H78      1.0000 0.38740  0.40240  0.99080  Biso   1.000  H
  C149     1.0000 0.43380  0.56030  0.95401  Biso   1.000  C
  C150     1.0000 0.48130  0.59050  0.91852  Biso   1.000  C
  H79      1.0000 0.48950  0.68380  0.90970  Biso   1.000  H
  C151     1.0000 0.51810  0.48180  0.89525  Biso   1.000  C
  C152     1.0000 0.50410  0.34270  0.91155  Biso   1.000  C
  H80      1.0000 0.52750  0.26820  0.89730  Biso   1.000  H
  C153     1.0000 0.45780  0.31500  0.94719  Biso   1.000  C
  C154     1.0000 0.56830  0.50960  0.85600  Biso   1.000  C
  C155     1.0000 0.56040  0.61830  0.82030  Biso   1.000  C
  H81      1.0000 0.52520  0.68140  0.82360  Biso   1.000  H
  C156     1.0000 0.60350  0.63530  0.78000  Biso   1.000  C
  H82      1.0000 0.59640  0.70890  0.75670  Biso   1.000  H
  C157     1.0000 0.65710  0.54500  0.77370  Biso   1.000  C
  C158     1.0000 0.66600  0.43670  0.81060  Biso   1.000  C
  H83      1.0000 0.70190  0.37500  0.80780  Biso   1.000  H
  C159     1.0000 0.62310  0.42030  0.85040  Biso   1.000  C
  H84      1.0000 0.63070  0.34820  0.87430  Biso   1.000  H
  C160     1.0000 0.69970  0.55340  0.72860  Biso   1.000  C
  C161     1.0000 0.67330  0.60140  0.68150  Biso   1.000  C
  H85      1.0000 0.62910  0.63210  0.67880  Biso   1.000  H
  C162     1.0000 0.71290  0.60340  0.63860  Biso   1.000  C
  H86      1.0000 0.69380  0.63150  0.60690  Biso   1.000  H
  C163     1.0000 0.77960  0.56540  0.64090  Biso   1.000  C
  C164     1.0000 0.80530  0.51760  0.68750  Biso   1.000  C
  H87      1.0000 0.84990  0.48880  0.69020  Biso   1.000  H
  C165     1.0000 0.76620  0.51150  0.73050  Biso   1.000  C
  H88      1.0000 0.78500  0.47820  0.76160  Biso   1.000  H
  C166     1.0000 0.39450  0.67820  0.97917  Biso   1.000  C
  C167     1.0000 0.44900  0.16600  0.96505  Biso   1.000  C
  C168     1.0000 0.81970  0.56730  0.59390  Biso   1.000  C
  Zn9      1.0000 0.75000  0.75000  0.50000  Biso   1.000  Zn
  Zn10     1.0000 0.25000  0.75000  0.00000  Biso   1.000  Zn
  Zn11     1.0000 0.25000  0.25000  0.50000  Biso   1.000  Zn
  Zn12     1.0000 0.75000  0.25000  0.00000  Biso   1.000  Zn
