data_FAHGAY_clean
_audit_creation_date              2014-07-02
_audit_creation_method            'Materials Studio'
_symmetry_space_group_name_H-M    'P1'
_symmetry_Int_Tables_number       1
_symmetry_cell_setting            triclinic
loop_
_symmetry_equiv_pos_as_xyz
  x,y,z
_cell_length_a                    16.7186
_cell_length_b                    16.7186
_cell_length_c                    16.7186
_cell_angle_alpha                 109.4710
_cell_angle_beta                  109.4710
_cell_angle_gamma                 109.4710
loop_
_atom_site_label
_atom_site_type_symbol
_atom_site_fract_x
_atom_site_fract_y
_atom_site_fract_z
_atom_site_U_iso_or_equiv
_atom_site_adp_type
_atom_site_occupancy
Be1    Be    0.62500   0.37500   0.25000   0.01267  Uiso   1.00
Be2    Be    0.87500   0.12500   0.75000   0.01267  Uiso   1.00
Be3    Be    0.25000   0.87500   0.62500   0.01267  Uiso   1.00
Be4    Be    0.75000   0.62500   0.87500   0.01267  Uiso   1.00
Be5    Be    0.37500   0.75000   0.12500   0.01267  Uiso   1.00
Be6    Be    0.12500   0.25000   0.37500   0.01267  Uiso   1.00
H1     H     0.66220   0.51350   0.01710   0.01267  Uiso   1.00
H2     H     0.99640   0.64510   0.48290   0.01267  Uiso   1.00
H3     H     0.50360   0.98650   0.64870   0.01267  Uiso   1.00
H4     H     0.83780   0.85490   0.85130   0.01267  Uiso   1.00
H5     H     0.14870   0.50360   0.48650   0.01267  Uiso   1.00
H6     H     0.35130   0.83780   0.35490   0.01267  Uiso   1.00
H7     H     0.51710   0.66220   0.01350   0.01267  Uiso   1.00
H8     H     0.98290   0.99640   0.14510   0.01267  Uiso   1.00
H9     H     0.64510   0.98290   0.49640   0.01267  Uiso   1.00
H10    H     0.51350   0.51710   0.16220   0.01267  Uiso   1.00
H11    H     0.85490   0.35130   0.33780   0.01267  Uiso   1.00
H12    H     0.98650   0.14870   0.00360   0.01267  Uiso   1.00
H13    H     0.14510   0.49640   0.98290   0.01267  Uiso   1.00
H14    H     0.01350   0.16220   0.51710   0.01267  Uiso   1.00
H15    H     0.35490   0.33780   0.35130   0.01267  Uiso   1.00
H16    H     0.48650   0.00360   0.14870   0.01267  Uiso   1.00
H17    H     0.16220   0.01710   0.51350   0.01267  Uiso   1.00
H18    H     0.49640   0.48290   0.64510   0.01267  Uiso   1.00
H19    H     0.00360   0.64870   0.98650   0.01267  Uiso   1.00
H20    H     0.33780   0.85130   0.85490   0.01267  Uiso   1.00
H21    H     0.64870   0.48650   0.50360   0.01267  Uiso   1.00
H22    H     0.85130   0.35490   0.83780   0.01267  Uiso   1.00
H23    H     0.01710   0.01350   0.66220   0.01267  Uiso   1.00
H24    H     0.48290   0.14510   0.99640   0.01267  Uiso   1.00
C1     C     0.62319   0.53418   0.03629   0.01267  Uiso   1.00
C2     C     0.59299   0.50583   0.09542   0.01267  Uiso   1.00
C3     C     0.62700   0.44490   0.13170   0.01267  Uiso   1.00
C4     C     0.99789   0.58690   0.46371   0.01267  Uiso   1.00
C5     C     0.91041   0.49757   0.40458   0.01267  Uiso   1.00
C6     C     0.81320   0.49530   0.36830   0.01267  Uiso   1.00
C7     C     0.50211   0.96582   0.58901   0.01267  Uiso   1.00
C8     C     0.58959   0.99417   0.58716   0.01267  Uiso   1.00
C9     C     0.68680   0.05510   0.68210   0.01267  Uiso   1.00
C10    C     0.87681   0.91310   0.91099   0.01267  Uiso   1.00
C11    C     0.90701   0.00243   0.91284   0.01267  Uiso   1.00
C12    C     0.87300   0.00470   0.81790   0.01267  Uiso   1.00
C13    C     0.08901   0.50211   0.46582   0.01267  Uiso   1.00
C14    C     0.08716   0.58959   0.49417   0.01267  Uiso   1.00
C15    C     0.18210   0.68680   0.55510   0.01267  Uiso   1.00
C16    C     0.41099   0.87681   0.41310   0.01267  Uiso   1.00
C17    C     0.41284   0.90701   0.50243   0.01267  Uiso   1.00
C18    C     0.31790   0.87300   0.50470   0.01267  Uiso   1.00
C19    C     0.53629   0.62319   0.03418   0.01267  Uiso   1.00
C20    C     0.59542   0.59299   0.00583   0.01267  Uiso   1.00
C21    C     0.63170   0.62700   0.94490   0.01267  Uiso   1.00
C22    C     0.96371   0.99789   0.08690   0.01267  Uiso   1.00
C23    C     0.90458   0.91041   0.99757   0.01267  Uiso   1.00
C24    C     0.86830   0.81320   0.99530   0.01267  Uiso   1.00
C25    C     0.58690   0.96371   0.49789   0.01267  Uiso   1.00
C26    C     0.49757   0.90458   0.41041   0.01267  Uiso   1.00
C27    C     0.49530   0.86830   0.31320   0.01267  Uiso   1.00
C28    C     0.53418   0.53629   0.12319   0.01267  Uiso   1.00
C29    C     0.50583   0.59542   0.09299   0.01267  Uiso   1.00
C30    C     0.44490   0.63170   0.12700   0.01267  Uiso   1.00
C31    C     0.91310   0.41099   0.37681   0.01267  Uiso   1.00
C32    C     0.00243   0.41284   0.40701   0.01267  Uiso   1.00
C33    C     0.00470   0.31790   0.37300   0.01267  Uiso   1.00
C34    C     0.96582   0.08901   0.00211   0.01267  Uiso   1.00
C35    C     0.99417   0.08716   0.08959   0.01267  Uiso   1.00
C36    C     0.05510   0.18210   0.18680   0.01267  Uiso   1.00
C37    C     0.08690   0.49789   0.96371   0.01267  Uiso   1.00
C38    C     0.99757   0.41041   0.90458   0.01267  Uiso   1.00
C39    C     0.99530   0.31320   0.86830   0.01267  Uiso   1.00
C40    C     0.03418   0.12319   0.53629   0.01267  Uiso   1.00
C41    C     0.00583   0.09299   0.59542   0.01267  Uiso   1.00
C42    C     0.94490   0.12700   0.63170   0.01267  Uiso   1.00
C43    C     0.41310   0.37681   0.41099   0.01267  Uiso   1.00
C44    C     0.50243   0.40701   0.41284   0.01267  Uiso   1.00
C45    C     0.50470   0.37300   0.31790   0.01267  Uiso   1.00
C46    C     0.46582   0.00211   0.08901   0.01267  Uiso   1.00
C47    C     0.49417   0.08959   0.08716   0.01267  Uiso   1.00
C48    C     0.55510   0.18680   0.18210   0.01267  Uiso   1.00
C49    C     0.12319   0.03629   0.53418   0.01267  Uiso   1.00
C50    C     0.09299   0.09542   0.50583   0.01267  Uiso   1.00
C51    C     0.12700   0.13170   0.44490   0.01267  Uiso   1.00
C52    C     0.49789   0.46371   0.58690   0.01267  Uiso   1.00
C53    C     0.41041   0.40458   0.49757   0.01267  Uiso   1.00
C54    C     0.31320   0.36830   0.49530   0.01267  Uiso   1.00
C55    C     0.00211   0.58901   0.96582   0.01267  Uiso   1.00
C56    C     0.08959   0.58716   0.99417   0.01267  Uiso   1.00
C57    C     0.18680   0.68210   0.05510   0.01267  Uiso   1.00
C58    C     0.37681   0.91099   0.91310   0.01267  Uiso   1.00
C59    C     0.40701   0.91284   0.00243   0.01267  Uiso   1.00
C60    C     0.37300   0.81790   0.00470   0.01267  Uiso   1.00
C61    C     0.58901   0.46582   0.50211   0.01267  Uiso   1.00
C62    C     0.58716   0.49417   0.58959   0.01267  Uiso   1.00
C63    C     0.68210   0.55510   0.68680   0.01267  Uiso   1.00
C64    C     0.91099   0.41310   0.87681   0.01267  Uiso   1.00
C65    C     0.91284   0.50243   0.90701   0.01267  Uiso   1.00
C66    C     0.81790   0.50470   0.87300   0.01267  Uiso   1.00
C67    C     0.03629   0.03418   0.62319   0.01267  Uiso   1.00
C68    C     0.09542   0.00583   0.59299   0.01267  Uiso   1.00
C69    C     0.13170   0.94490   0.62700   0.01267  Uiso   1.00
C70    C     0.46371   0.08690   0.99789   0.01267  Uiso   1.00
C71    C     0.40458   0.99757   0.91041   0.01267  Uiso   1.00
C72    C     0.36830   0.99530   0.81320   0.01267  Uiso   1.00
O1     O     0.60125   0.43072   0.19045   0.01267  Uiso   1.00
O2     O     0.67120   0.41090   0.09810   0.01267  Uiso   1.00
O3     O     0.74027   0.41080   0.30955   0.01267  Uiso   1.00
O4     O     0.81280   0.57310   0.40190   0.01267  Uiso   1.00
O5     O     0.75973   0.06928   0.67053   0.01267  Uiso   1.00
O6     O     0.68720   0.08910   0.76030   0.01267  Uiso   1.00
O7     O     0.89875   0.08920   0.82947   0.01267  Uiso   1.00
O8     O     0.82880   0.92690   0.73970   0.01267  Uiso   1.00
O9     O     0.17053   0.75973   0.56928   0.01267  Uiso   1.00
O10    O     0.26030   0.68720   0.58910   0.01267  Uiso   1.00
O11    O     0.32947   0.89875   0.58920   0.01267  Uiso   1.00
O12    O     0.23970   0.82880   0.42690   0.01267  Uiso   1.00
O13    O     0.69045   0.60125   0.93072   0.01267  Uiso   1.00
O14    O     0.59810   0.67120   0.91090   0.01267  Uiso   1.00
O15    O     0.80955   0.74027   0.91080   0.01267  Uiso   1.00
O16    O     0.90190   0.81280   0.07310   0.01267  Uiso   1.00
O17    O     0.41080   0.80955   0.24027   0.01267  Uiso   1.00
O18    O     0.57310   0.90190   0.31280   0.01267  Uiso   1.00
O19    O     0.43072   0.69045   0.10125   0.01267  Uiso   1.00
O20    O     0.41090   0.59810   0.17120   0.01267  Uiso   1.00
O21    O     0.08920   0.32947   0.39875   0.01267  Uiso   1.00
O22    O     0.92690   0.23970   0.32880   0.01267  Uiso   1.00
O23    O     0.06928   0.17053   0.25973   0.01267  Uiso   1.00
O24    O     0.08910   0.26030   0.18720   0.01267  Uiso   1.00
O25    O     0.91080   0.24027   0.80955   0.01267  Uiso   1.00
O26    O     0.07310   0.31280   0.90190   0.01267  Uiso   1.00
O27    O     0.93072   0.10125   0.69045   0.01267  Uiso   1.00
O28    O     0.91090   0.17120   0.59810   0.01267  Uiso   1.00
O29    O     0.58920   0.39875   0.32947   0.01267  Uiso   1.00
O30    O     0.42690   0.32880   0.23970   0.01267  Uiso   1.00
O31    O     0.56928   0.25973   0.17053   0.01267  Uiso   1.00
O32    O     0.58910   0.18720   0.26030   0.01267  Uiso   1.00
O33    O     0.10125   0.19045   0.43072   0.01267  Uiso   1.00
O34    O     0.17120   0.09810   0.41090   0.01267  Uiso   1.00
O35    O     0.24027   0.30955   0.41080   0.01267  Uiso   1.00
O36    O     0.31280   0.40190   0.57310   0.01267  Uiso   1.00
O37    O     0.25973   0.67053   0.06928   0.01267  Uiso   1.00
O38    O     0.18720   0.76030   0.08910   0.01267  Uiso   1.00
O39    O     0.39875   0.82947   0.08920   0.01267  Uiso   1.00
O40    O     0.32880   0.73970   0.92690   0.01267  Uiso   1.00
O41    O     0.67053   0.56928   0.75973   0.01267  Uiso   1.00
O42    O     0.76030   0.58910   0.68720   0.01267  Uiso   1.00
O43    O     0.82947   0.58920   0.89875   0.01267  Uiso   1.00
O44    O     0.73970   0.42690   0.82880   0.01267  Uiso   1.00
O45    O     0.19045   0.93072   0.60125   0.01267  Uiso   1.00
O46    O     0.09810   0.91090   0.67120   0.01267  Uiso   1.00
O47    O     0.30955   0.91080   0.74027   0.01267  Uiso   1.00
O48    O     0.40190   0.07310   0.81280   0.01267  Uiso   1.00
