data_image0
_cell_length_a       20.6
_cell_length_b       10.4271
_cell_length_c       29.646
_cell_angle_alpha    90
_cell_angle_beta     113.51
_cell_angle_gamma    90

_symmetry_space_group_name_H-M    "P 1"
_symmetry_int_tables_number       1

loop_
  _symmetry_equiv_pos_as_xyz
  'x, y, z'

loop_
  _atom_site_label
  _atom_site_occupancy
  _atom_site_fract_x
  _atom_site_fract_y
  _atom_site_fract_z
  _atom_site_thermal_displace_type
  _atom_site_B_iso_or_equiv
  _atom_site_type_symbol
  Co1      1.0000 0.16514  0.82583  0.33702  Biso   1.000  Co
  O1       1.0000 0.04020  0.80530  0.21925  Biso   1.000  O
  O2       1.0000 0.15520  0.84410  0.26513  Biso   1.000  O
  O3       1.0000 0.30220  0.01750  0.17280  Biso   1.000  O
  O4       1.0000 0.24960  0.20880  0.14893  Biso   1.000  O
  O5       1.0000 0.08500  0.32920  0.90100  Biso   1.000  O
  O6       1.0000 0.16940  0.18750  0.90838  Biso   1.000  O
  O7       1.0000 0.09040  0.66230  0.31578  Biso   1.000  O
  N1       1.0000 0.05030  0.51370  0.22200  Biso   1.000  N
  N2       1.0000 0.23850  0.97920  0.36280  Biso   1.000  N
  C1       1.0000 0.10060  0.85060  0.22570  Biso   1.000  C
  C2       1.0000 0.10730  0.91330  0.18320  Biso   1.000  C
  C3       1.0000 0.17040  0.96920  0.18710  Biso   1.000  C
  H1       1.0000 0.20910  0.96480  0.21720  Biso   1.000  H
  C4       1.0000 0.17860  0.03120  0.14850  Biso   1.000  C
  C5       1.0000 0.24920  0.08960  0.15750  Biso   1.000  C
  C6       1.0000 0.12080  0.03940  0.10260  Biso   1.000  C
  C7       1.0000 0.05880  0.98170  0.09880  Biso   1.000  C
  H2       1.0000 0.02030  0.98290  0.06860  Biso   1.000  H
  C8       1.0000 0.05120  0.92290  0.13760  Biso   1.000  C
  H3       1.0000 0.00750  0.88840  0.13340  Biso   1.000  H
  C9       1.0000 0.12550  0.10140  0.05890  Biso   1.000  C
  C10      1.0000 0.18210  0.07160  0.04640  Biso   1.000  C
  H4       1.0000 0.21840  0.01860  0.06650  Biso   1.000  H
  C11      1.0000 0.18400  0.12220  0.00330  Biso   1.000  C
  H5       1.0000 0.22180  0.10240  0.99500  Biso   1.000  H
  C12      1.0000 0.12990  0.20210  0.97230  Biso   1.000  C
  C13      1.0000 0.12890  0.24470  0.92390  Biso   1.000  C
  C14      1.0000 0.07710  0.23360  0.98660  Biso   1.000  C
  H6       1.0000 0.04160  0.28910  0.96710  Biso   1.000  H
  C15      1.0000 0.07410  0.18550  0.02990  Biso   1.000  C
  H7       1.0000 0.03760  0.21010  0.03900  Biso   1.000  H
  C16      1.0000 0.07280  0.40740  0.24320  Biso   1.000  C
  H8       1.0000 0.06560  0.38720  0.27140  Biso   1.000  H
  C17      1.0000 0.11110  0.31250  0.22400  Biso   1.000  C
  H9       1.0000 0.12530  0.23210  0.23810  Biso   1.000  H
  C18      1.0000 0.12240  0.35130  0.18670  Biso   1.000  C
  H10      1.0000 0.14800  0.29810  0.17470  Biso   1.000  H
  C19      1.0000 0.10100  0.45600  0.16550  Biso   1.000  C
  H11      1.0000 0.10690  0.47880  0.13700  Biso   1.000  H
  C20      1.0000 0.06850  0.53550  0.18650  Biso   1.000  C
  H12      1.0000 0.05820  0.61730  0.17300  Biso   1.000  H
  C21      1.0000 0.29250  0.96950  0.40570  Biso   1.000  C
  H13      1.0000 0.30050  0.89260  0.42290  Biso   1.000  H
  C22      1.0000 0.33830  0.07370  0.42580  Biso   1.000  C
  H14      1.0000 0.37550  0.06750  0.45650  Biso   1.000  H
  C23      1.0000 0.32650  0.18560  0.39860  Biso   1.000  C
  H15      1.0000 0.35830  0.25350  0.40940  Biso   1.000  H
  C24      1.0000 0.26940  0.19490  0.35700  Biso   1.000  C
  H16      1.0000 0.25740  0.27200  0.34000  Biso   1.000  H
  C25      1.0000 0.22880  0.08840  0.34000  Biso   1.000  C
  H17      1.0000 0.19100  0.09420  0.30950  Biso   1.000  H
  H18      1.0000 0.08300  0.66800  0.34230  Biso   1.000  H
  H19      1.0000 0.12300  0.60900  0.31600  Biso   1.000  H
  Co2      1.0000 0.66514  0.32583  0.33702  Biso   1.000  Co
  O8       1.0000 0.54020  0.30530  0.21925  Biso   1.000  O
  O9       1.0000 0.65520  0.34410  0.26513  Biso   1.000  O
  O10      1.0000 0.80220  0.51750  0.17280  Biso   1.000  O
  O11      1.0000 0.74960  0.70880  0.14893  Biso   1.000  O
  O12      1.0000 0.58500  0.82920  0.90100  Biso   1.000  O
  O13      1.0000 0.66940  0.68750  0.90838  Biso   1.000  O
  O14      1.0000 0.59040  0.16230  0.31578  Biso   1.000  O
  N3       1.0000 0.55030  0.01370  0.22200  Biso   1.000  N
  N4       1.0000 0.73850  0.47920  0.36280  Biso   1.000  N
  C26      1.0000 0.60060  0.35060  0.22570  Biso   1.000  C
  C27      1.0000 0.60730  0.41330  0.18320  Biso   1.000  C
  C28      1.0000 0.67040  0.46920  0.18710  Biso   1.000  C
  H20      1.0000 0.70910  0.46480  0.21720  Biso   1.000  H
  C29      1.0000 0.67860  0.53120  0.14850  Biso   1.000  C
  C30      1.0000 0.74920  0.58960  0.15750  Biso   1.000  C
  C31      1.0000 0.62080  0.53940  0.10260  Biso   1.000  C
  C32      1.0000 0.55880  0.48170  0.09880  Biso   1.000  C
  H21      1.0000 0.52030  0.48290  0.06860  Biso   1.000  H
  C33      1.0000 0.55120  0.42290  0.13760  Biso   1.000  C
  H22      1.0000 0.50750  0.38840  0.13340  Biso   1.000  H
  C34      1.0000 0.62550  0.60140  0.05890  Biso   1.000  C
  C35      1.0000 0.68210  0.57160  0.04640  Biso   1.000  C
  H23      1.0000 0.71840  0.51860  0.06650  Biso   1.000  H
  C36      1.0000 0.68400  0.62220  0.00330  Biso   1.000  C
  H24      1.0000 0.72180  0.60240  0.99500  Biso   1.000  H
  C37      1.0000 0.62990  0.70210  0.97230  Biso   1.000  C
  C38      1.0000 0.62890  0.74470  0.92390  Biso   1.000  C
  C39      1.0000 0.57710  0.73360  0.98660  Biso   1.000  C
  H25      1.0000 0.54160  0.78910  0.96710  Biso   1.000  H
  C40      1.0000 0.57410  0.68550  0.02990  Biso   1.000  C
  H26      1.0000 0.53760  0.71010  0.03900  Biso   1.000  H
  C41      1.0000 0.57280  0.90740  0.24320  Biso   1.000  C
  H27      1.0000 0.56560  0.88720  0.27140  Biso   1.000  H
  C42      1.0000 0.61110  0.81250  0.22400  Biso   1.000  C
  H28      1.0000 0.62530  0.73210  0.23810  Biso   1.000  H
  C43      1.0000 0.62240  0.85130  0.18670  Biso   1.000  C
  H29      1.0000 0.64800  0.79810  0.17470  Biso   1.000  H
  C44      1.0000 0.60100  0.95600  0.16550  Biso   1.000  C
  H30      1.0000 0.60690  0.97880  0.13700  Biso   1.000  H
  C45      1.0000 0.56850  0.03550  0.18650  Biso   1.000  C
  H31      1.0000 0.55820  0.11730  0.17300  Biso   1.000  H
  C46      1.0000 0.79250  0.46950  0.40570  Biso   1.000  C
  H32      1.0000 0.80050  0.39260  0.42290  Biso   1.000  H
  C47      1.0000 0.83830  0.57370  0.42580  Biso   1.000  C
  H33      1.0000 0.87550  0.56750  0.45650  Biso   1.000  H
  C48      1.0000 0.82650  0.68560  0.39860  Biso   1.000  C
  H34      1.0000 0.85830  0.75350  0.40940  Biso   1.000  H
  C49      1.0000 0.76940  0.69490  0.35700  Biso   1.000  C
  H35      1.0000 0.75740  0.77200  0.34000  Biso   1.000  H
  C50      1.0000 0.72880  0.58840  0.34000  Biso   1.000  C
  H36      1.0000 0.69100  0.59420  0.30950  Biso   1.000  H
  H37      1.0000 0.58300  0.16800  0.34230  Biso   1.000  H
  H38      1.0000 0.62300  0.10900  0.31600  Biso   1.000  H
  Co3      1.0000 0.83486  0.82583  0.16298  Biso   1.000  Co
  O15      1.0000 0.95980  0.80530  0.28075  Biso   1.000  O
  O16      1.0000 0.84480  0.84410  0.23487  Biso   1.000  O
  O17      1.0000 0.69780  0.01750  0.32720  Biso   1.000  O
  O18      1.0000 0.75040  0.20880  0.35107  Biso   1.000  O
  O19      1.0000 0.91500  0.32920  0.59900  Biso   1.000  O
  O20      1.0000 0.83060  0.18750  0.59162  Biso   1.000  O
  O21      1.0000 0.90960  0.66230  0.18422  Biso   1.000  O
  N5       1.0000 0.94970  0.51370  0.27800  Biso   1.000  N
  N6       1.0000 0.76150  0.97920  0.13720  Biso   1.000  N
  C51      1.0000 0.89940  0.85060  0.27430  Biso   1.000  C
  C52      1.0000 0.89270  0.91330  0.31680  Biso   1.000  C
  C53      1.0000 0.82960  0.96920  0.31290  Biso   1.000  C
  H39      1.0000 0.79090  0.96480  0.28280  Biso   1.000  H
  C54      1.0000 0.82140  0.03120  0.35150  Biso   1.000  C
  C55      1.0000 0.75080  0.08960  0.34250  Biso   1.000  C
  C56      1.0000 0.87920  0.03940  0.39740  Biso   1.000  C
  C57      1.0000 0.94120  0.98170  0.40120  Biso   1.000  C
  H40      1.0000 0.97970  0.98290  0.43140  Biso   1.000  H
  C58      1.0000 0.94880  0.92290  0.36240  Biso   1.000  C
  H41      1.0000 0.99250  0.88840  0.36660  Biso   1.000  H
  C59      1.0000 0.87450  0.10140  0.44110  Biso   1.000  C
  C60      1.0000 0.81790  0.07160  0.45360  Biso   1.000  C
  H42      1.0000 0.78160  0.01860  0.43350  Biso   1.000  H
  C61      1.0000 0.81600  0.12220  0.49670  Biso   1.000  C
  H43      1.0000 0.77820  0.10240  0.50500  Biso   1.000  H
  C62      1.0000 0.87010  0.20210  0.52770  Biso   1.000  C
  C63      1.0000 0.87110  0.24470  0.57610  Biso   1.000  C
  C64      1.0000 0.92290  0.23360  0.51340  Biso   1.000  C
  H44      1.0000 0.95840  0.28910  0.53290  Biso   1.000  H
  C65      1.0000 0.92590  0.18550  0.47010  Biso   1.000  C
  H45      1.0000 0.96240  0.21010  0.46100  Biso   1.000  H
  C66      1.0000 0.92720  0.40740  0.25680  Biso   1.000  C
  H46      1.0000 0.93440  0.38720  0.22860  Biso   1.000  H
  C67      1.0000 0.88890  0.31250  0.27600  Biso   1.000  C
  H47      1.0000 0.87470  0.23210  0.26190  Biso   1.000  H
  C68      1.0000 0.87760  0.35130  0.31330  Biso   1.000  C
  H48      1.0000 0.85200  0.29810  0.32530  Biso   1.000  H
  C69      1.0000 0.89900  0.45600  0.33450  Biso   1.000  C
  H49      1.0000 0.89310  0.47880  0.36300  Biso   1.000  H
  C70      1.0000 0.93150  0.53550  0.31350  Biso   1.000  C
  H50      1.0000 0.94180  0.61730  0.32700  Biso   1.000  H
  C71      1.0000 0.70750  0.96950  0.09430  Biso   1.000  C
  H51      1.0000 0.69950  0.89260  0.07710  Biso   1.000  H
  C72      1.0000 0.66170  0.07370  0.07420  Biso   1.000  C
  H52      1.0000 0.62450  0.06750  0.04350  Biso   1.000  H
  C73      1.0000 0.67350  0.18560  0.10140  Biso   1.000  C
  H53      1.0000 0.64170  0.25350  0.09060  Biso   1.000  H
  C74      1.0000 0.73060  0.19490  0.14300  Biso   1.000  C
  H54      1.0000 0.74260  0.27200  0.16000  Biso   1.000  H
  C75      1.0000 0.77120  0.08840  0.16000  Biso   1.000  C
  H55      1.0000 0.80900  0.09420  0.19050  Biso   1.000  H
  H56      1.0000 0.91700  0.66800  0.15770  Biso   1.000  H
  H57      1.0000 0.87700  0.60900  0.18400  Biso   1.000  H
  Co4      1.0000 0.33486  0.32583  0.16298  Biso   1.000  Co
  O22      1.0000 0.45980  0.30530  0.28075  Biso   1.000  O
  O23      1.0000 0.34480  0.34410  0.23487  Biso   1.000  O
  O24      1.0000 0.19780  0.51750  0.32720  Biso   1.000  O
  O25      1.0000 0.25040  0.70880  0.35107  Biso   1.000  O
  O26      1.0000 0.41500  0.82920  0.59900  Biso   1.000  O
  O27      1.0000 0.33060  0.68750  0.59162  Biso   1.000  O
  O28      1.0000 0.40960  0.16230  0.18422  Biso   1.000  O
  N7       1.0000 0.44970  0.01370  0.27800  Biso   1.000  N
  N8       1.0000 0.26150  0.47920  0.13720  Biso   1.000  N
  C76      1.0000 0.39940  0.35060  0.27430  Biso   1.000  C
  C77      1.0000 0.39270  0.41330  0.31680  Biso   1.000  C
  C78      1.0000 0.32960  0.46920  0.31290  Biso   1.000  C
  H58      1.0000 0.29090  0.46480  0.28280  Biso   1.000  H
  C79      1.0000 0.32140  0.53120  0.35150  Biso   1.000  C
  C80      1.0000 0.25080  0.58960  0.34250  Biso   1.000  C
  C81      1.0000 0.37920  0.53940  0.39740  Biso   1.000  C
  C82      1.0000 0.44120  0.48170  0.40120  Biso   1.000  C
  H59      1.0000 0.47970  0.48290  0.43140  Biso   1.000  H
  C83      1.0000 0.44880  0.42290  0.36240  Biso   1.000  C
  H60      1.0000 0.49250  0.38840  0.36660  Biso   1.000  H
  C84      1.0000 0.37450  0.60140  0.44110  Biso   1.000  C
  C85      1.0000 0.31790  0.57160  0.45360  Biso   1.000  C
  H61      1.0000 0.28160  0.51860  0.43350  Biso   1.000  H
  C86      1.0000 0.31600  0.62220  0.49670  Biso   1.000  C
  H62      1.0000 0.27820  0.60240  0.50500  Biso   1.000  H
  C87      1.0000 0.37010  0.70210  0.52770  Biso   1.000  C
  C88      1.0000 0.37110  0.74470  0.57610  Biso   1.000  C
  C89      1.0000 0.42290  0.73360  0.51340  Biso   1.000  C
  H63      1.0000 0.45840  0.78910  0.53290  Biso   1.000  H
  C90      1.0000 0.42590  0.68550  0.47010  Biso   1.000  C
  H64      1.0000 0.46240  0.71010  0.46100  Biso   1.000  H
  C91      1.0000 0.42720  0.90740  0.25680  Biso   1.000  C
  H65      1.0000 0.43440  0.88720  0.22860  Biso   1.000  H
  C92      1.0000 0.38890  0.81250  0.27600  Biso   1.000  C
  H66      1.0000 0.37470  0.73210  0.26190  Biso   1.000  H
  C93      1.0000 0.37760  0.85130  0.31330  Biso   1.000  C
  H67      1.0000 0.35200  0.79810  0.32530  Biso   1.000  H
  C94      1.0000 0.39900  0.95600  0.33450  Biso   1.000  C
  H68      1.0000 0.39310  0.97880  0.36300  Biso   1.000  H
  C95      1.0000 0.43150  0.03550  0.31350  Biso   1.000  C
  H69      1.0000 0.44180  0.11730  0.32700  Biso   1.000  H
  C96      1.0000 0.20750  0.46950  0.09430  Biso   1.000  C
  H70      1.0000 0.19950  0.39260  0.07710  Biso   1.000  H
  C97      1.0000 0.16170  0.57370  0.07420  Biso   1.000  C
  H71      1.0000 0.12450  0.56750  0.04350  Biso   1.000  H
  C98      1.0000 0.17350  0.68560  0.10140  Biso   1.000  C
  H72      1.0000 0.14170  0.75350  0.09060  Biso   1.000  H
  C99      1.0000 0.23060  0.69490  0.14300  Biso   1.000  C
  H73      1.0000 0.24260  0.77200  0.16000  Biso   1.000  H
  C100     1.0000 0.27120  0.58840  0.16000  Biso   1.000  C
  H74      1.0000 0.30900  0.59420  0.19050  Biso   1.000  H
  H75      1.0000 0.41700  0.16800  0.15770  Biso   1.000  H
  H76      1.0000 0.37700  0.10900  0.18400  Biso   1.000  H
  Co5      1.0000 0.83486  0.17417  0.66298  Biso   1.000  Co
  O29      1.0000 0.95980  0.19470  0.78075  Biso   1.000  O
  O30      1.0000 0.84480  0.15590  0.73487  Biso   1.000  O
  O31      1.0000 0.69780  0.98250  0.82720  Biso   1.000  O
  O32      1.0000 0.75040  0.79120  0.85107  Biso   1.000  O
  O33      1.0000 0.91500  0.67080  0.09900  Biso   1.000  O
  O34      1.0000 0.83060  0.81250  0.09162  Biso   1.000  O
  O35      1.0000 0.90960  0.33770  0.68422  Biso   1.000  O
  N9       1.0000 0.94970  0.48630  0.77800  Biso   1.000  N
  N10      1.0000 0.76150  0.02080  0.63720  Biso   1.000  N
  C101     1.0000 0.89940  0.14940  0.77430  Biso   1.000  C
  C102     1.0000 0.89270  0.08670  0.81680  Biso   1.000  C
  C103     1.0000 0.82960  0.03080  0.81290  Biso   1.000  C
  H77      1.0000 0.79090  0.03520  0.78280  Biso   1.000  H
  C104     1.0000 0.82140  0.96880  0.85150  Biso   1.000  C
  C105     1.0000 0.75080  0.91040  0.84250  Biso   1.000  C
  C106     1.0000 0.87920  0.96060  0.89740  Biso   1.000  C
  C107     1.0000 0.94120  0.01830  0.90120  Biso   1.000  C
  H78      1.0000 0.97970  0.01710  0.93140  Biso   1.000  H
  C108     1.0000 0.94880  0.07710  0.86240  Biso   1.000  C
  H79      1.0000 0.99250  0.11160  0.86660  Biso   1.000  H
  C109     1.0000 0.87450  0.89860  0.94110  Biso   1.000  C
  C110     1.0000 0.81790  0.92840  0.95360  Biso   1.000  C
  H80      1.0000 0.78160  0.98140  0.93350  Biso   1.000  H
  C111     1.0000 0.81600  0.87780  0.99670  Biso   1.000  C
  H81      1.0000 0.77820  0.89760  0.00500  Biso   1.000  H
  C112     1.0000 0.87010  0.79790  0.02770  Biso   1.000  C
  C113     1.0000 0.87110  0.75530  0.07610  Biso   1.000  C
  C114     1.0000 0.92290  0.76640  0.01340  Biso   1.000  C
  H82      1.0000 0.95840  0.71090  0.03290  Biso   1.000  H
  C115     1.0000 0.92590  0.81450  0.97010  Biso   1.000  C
  H83      1.0000 0.96240  0.78990  0.96100  Biso   1.000  H
  C116     1.0000 0.92720  0.59260  0.75680  Biso   1.000  C
  H84      1.0000 0.93440  0.61280  0.72860  Biso   1.000  H
  C117     1.0000 0.88890  0.68750  0.77600  Biso   1.000  C
  H85      1.0000 0.87470  0.76790  0.76190  Biso   1.000  H
  C118     1.0000 0.87760  0.64870  0.81330  Biso   1.000  C
  H86      1.0000 0.85200  0.70190  0.82530  Biso   1.000  H
  C119     1.0000 0.89900  0.54400  0.83450  Biso   1.000  C
  H87      1.0000 0.89310  0.52120  0.86300  Biso   1.000  H
  C120     1.0000 0.93150  0.46450  0.81350  Biso   1.000  C
  H88      1.0000 0.94180  0.38270  0.82700  Biso   1.000  H
  C121     1.0000 0.70750  0.03050  0.59430  Biso   1.000  C
  H89      1.0000 0.69950  0.10740  0.57710  Biso   1.000  H
  C122     1.0000 0.66170  0.92630  0.57420  Biso   1.000  C
  H90      1.0000 0.62450  0.93250  0.54350  Biso   1.000  H
  C123     1.0000 0.67350  0.81440  0.60140  Biso   1.000  C
  H91      1.0000 0.64170  0.74650  0.59060  Biso   1.000  H
  C124     1.0000 0.73060  0.80510  0.64300  Biso   1.000  C
  H92      1.0000 0.74260  0.72800  0.66000  Biso   1.000  H
  C125     1.0000 0.77120  0.91160  0.66000  Biso   1.000  C
  H93      1.0000 0.80900  0.90580  0.69050  Biso   1.000  H
  H94      1.0000 0.91700  0.33200  0.65770  Biso   1.000  H
  H95      1.0000 0.87700  0.39100  0.68400  Biso   1.000  H
  Co6      1.0000 0.33486  0.67417  0.66298  Biso   1.000  Co
  O36      1.0000 0.45980  0.69470  0.78075  Biso   1.000  O
  O37      1.0000 0.34480  0.65590  0.73487  Biso   1.000  O
  O38      1.0000 0.19780  0.48250  0.82720  Biso   1.000  O
  O39      1.0000 0.25040  0.29120  0.85107  Biso   1.000  O
  O40      1.0000 0.41500  0.17080  0.09900  Biso   1.000  O
  O41      1.0000 0.33060  0.31250  0.09162  Biso   1.000  O
  O42      1.0000 0.40960  0.83770  0.68422  Biso   1.000  O
  N11      1.0000 0.44970  0.98630  0.77800  Biso   1.000  N
  N12      1.0000 0.26150  0.52080  0.63720  Biso   1.000  N
  C126     1.0000 0.39940  0.64940  0.77430  Biso   1.000  C
  C127     1.0000 0.39270  0.58670  0.81680  Biso   1.000  C
  C128     1.0000 0.32960  0.53080  0.81290  Biso   1.000  C
  H96      1.0000 0.29090  0.53520  0.78280  Biso   1.000  H
  C129     1.0000 0.32140  0.46880  0.85150  Biso   1.000  C
  C130     1.0000 0.25080  0.41040  0.84250  Biso   1.000  C
  C131     1.0000 0.37920  0.46060  0.89740  Biso   1.000  C
  C132     1.0000 0.44120  0.51830  0.90120  Biso   1.000  C
  H97      1.0000 0.47970  0.51710  0.93140  Biso   1.000  H
  C133     1.0000 0.44880  0.57710  0.86240  Biso   1.000  C
  H98      1.0000 0.49250  0.61160  0.86660  Biso   1.000  H
  C134     1.0000 0.37450  0.39860  0.94110  Biso   1.000  C
  C135     1.0000 0.31790  0.42840  0.95360  Biso   1.000  C
  H99      1.0000 0.28160  0.48140  0.93350  Biso   1.000  H
  C136     1.0000 0.31600  0.37780  0.99670  Biso   1.000  C
  H100     1.0000 0.27820  0.39760  0.00500  Biso   1.000  H
  C137     1.0000 0.37010  0.29790  0.02770  Biso   1.000  C
  C138     1.0000 0.37110  0.25530  0.07610  Biso   1.000  C
  C139     1.0000 0.42290  0.26640  0.01340  Biso   1.000  C
  H101     1.0000 0.45840  0.21090  0.03290  Biso   1.000  H
  C140     1.0000 0.42590  0.31450  0.97010  Biso   1.000  C
  H102     1.0000 0.46240  0.28990  0.96100  Biso   1.000  H
  C141     1.0000 0.42720  0.09260  0.75680  Biso   1.000  C
  H103     1.0000 0.43440  0.11280  0.72860  Biso   1.000  H
  C142     1.0000 0.38890  0.18750  0.77600  Biso   1.000  C
  H104     1.0000 0.37470  0.26790  0.76190  Biso   1.000  H
  C143     1.0000 0.37760  0.14870  0.81330  Biso   1.000  C
  H105     1.0000 0.35200  0.20190  0.82530  Biso   1.000  H
  C144     1.0000 0.39900  0.04400  0.83450  Biso   1.000  C
  H106     1.0000 0.39310  0.02120  0.86300  Biso   1.000  H
  C145     1.0000 0.43150  0.96450  0.81350  Biso   1.000  C
  H107     1.0000 0.44180  0.88270  0.82700  Biso   1.000  H
  C146     1.0000 0.20750  0.53050  0.59430  Biso   1.000  C
  H108     1.0000 0.19950  0.60740  0.57710  Biso   1.000  H
  C147     1.0000 0.16170  0.42630  0.57420  Biso   1.000  C
  H109     1.0000 0.12450  0.43250  0.54350  Biso   1.000  H
  C148     1.0000 0.17350  0.31440  0.60140  Biso   1.000  C
  H110     1.0000 0.14170  0.24650  0.59060  Biso   1.000  H
  C149     1.0000 0.23060  0.30510  0.64300  Biso   1.000  C
  H111     1.0000 0.24260  0.22800  0.66000  Biso   1.000  H
  C150     1.0000 0.27120  0.41160  0.66000  Biso   1.000  C
  H112     1.0000 0.30900  0.40580  0.69050  Biso   1.000  H
  H113     1.0000 0.41700  0.83200  0.65770  Biso   1.000  H
  H114     1.0000 0.37700  0.89100  0.68400  Biso   1.000  H
  Co7      1.0000 0.16514  0.17417  0.83702  Biso   1.000  Co
  O43      1.0000 0.04020  0.19470  0.71925  Biso   1.000  O
  O44      1.0000 0.15520  0.15590  0.76513  Biso   1.000  O
  O45      1.0000 0.30220  0.98250  0.67280  Biso   1.000  O
  O46      1.0000 0.24960  0.79120  0.64893  Biso   1.000  O
  O47      1.0000 0.08500  0.67080  0.40100  Biso   1.000  O
  O48      1.0000 0.16940  0.81250  0.40838  Biso   1.000  O
  O49      1.0000 0.09040  0.33770  0.81578  Biso   1.000  O
  N13      1.0000 0.05030  0.48630  0.72200  Biso   1.000  N
  N14      1.0000 0.23850  0.02080  0.86280  Biso   1.000  N
  C151     1.0000 0.10060  0.14940  0.72570  Biso   1.000  C
  C152     1.0000 0.10730  0.08670  0.68320  Biso   1.000  C
  C153     1.0000 0.17040  0.03080  0.68710  Biso   1.000  C
  H115     1.0000 0.20910  0.03520  0.71720  Biso   1.000  H
  C154     1.0000 0.17860  0.96880  0.64850  Biso   1.000  C
  C155     1.0000 0.24920  0.91040  0.65750  Biso   1.000  C
  C156     1.0000 0.12080  0.96060  0.60260  Biso   1.000  C
  C157     1.0000 0.05880  0.01830  0.59880  Biso   1.000  C
  H116     1.0000 0.02030  0.01710  0.56860  Biso   1.000  H
  C158     1.0000 0.05120  0.07710  0.63760  Biso   1.000  C
  H117     1.0000 0.00750  0.11160  0.63340  Biso   1.000  H
  C159     1.0000 0.12550  0.89860  0.55890  Biso   1.000  C
  C160     1.0000 0.18210  0.92840  0.54640  Biso   1.000  C
  H118     1.0000 0.21840  0.98140  0.56650  Biso   1.000  H
  C161     1.0000 0.18400  0.87780  0.50330  Biso   1.000  C
  H119     1.0000 0.22180  0.89760  0.49500  Biso   1.000  H
  C162     1.0000 0.12990  0.79790  0.47230  Biso   1.000  C
  C163     1.0000 0.12890  0.75530  0.42390  Biso   1.000  C
  C164     1.0000 0.07710  0.76640  0.48660  Biso   1.000  C
  H120     1.0000 0.04160  0.71090  0.46710  Biso   1.000  H
  C165     1.0000 0.07410  0.81450  0.52990  Biso   1.000  C
  H121     1.0000 0.03760  0.78990  0.53900  Biso   1.000  H
  C166     1.0000 0.07280  0.59260  0.74320  Biso   1.000  C
  H122     1.0000 0.06560  0.61280  0.77140  Biso   1.000  H
  C167     1.0000 0.11110  0.68750  0.72400  Biso   1.000  C
  H123     1.0000 0.12530  0.76790  0.73810  Biso   1.000  H
  C168     1.0000 0.12240  0.64870  0.68670  Biso   1.000  C
  H124     1.0000 0.14800  0.70190  0.67470  Biso   1.000  H
  C169     1.0000 0.10100  0.54400  0.66550  Biso   1.000  C
  H125     1.0000 0.10690  0.52120  0.63700  Biso   1.000  H
  C170     1.0000 0.06850  0.46450  0.68650  Biso   1.000  C
  H126     1.0000 0.05820  0.38270  0.67300  Biso   1.000  H
  C171     1.0000 0.29250  0.03050  0.90570  Biso   1.000  C
  H127     1.0000 0.30050  0.10740  0.92290  Biso   1.000  H
  C172     1.0000 0.33830  0.92630  0.92580  Biso   1.000  C
  H128     1.0000 0.37550  0.93250  0.95650  Biso   1.000  H
  C173     1.0000 0.32650  0.81440  0.89860  Biso   1.000  C
  H129     1.0000 0.35830  0.74650  0.90940  Biso   1.000  H
  C174     1.0000 0.26940  0.80510  0.85700  Biso   1.000  C
  H130     1.0000 0.25740  0.72800  0.84000  Biso   1.000  H
  C175     1.0000 0.22880  0.91160  0.84000  Biso   1.000  C
  H131     1.0000 0.19100  0.90580  0.80950  Biso   1.000  H
  H132     1.0000 0.08300  0.33200  0.84230  Biso   1.000  H
  H133     1.0000 0.12300  0.39100  0.81600  Biso   1.000  H
  Co8      1.0000 0.66514  0.67417  0.83702  Biso   1.000  Co
  O50      1.0000 0.54020  0.69470  0.71925  Biso   1.000  O
  O51      1.0000 0.65520  0.65590  0.76513  Biso   1.000  O
  O52      1.0000 0.80220  0.48250  0.67280  Biso   1.000  O
  O53      1.0000 0.74960  0.29120  0.64893  Biso   1.000  O
  O54      1.0000 0.58500  0.17080  0.40100  Biso   1.000  O
  O55      1.0000 0.66940  0.31250  0.40838  Biso   1.000  O
  O56      1.0000 0.59040  0.83770  0.81578  Biso   1.000  O
  N15      1.0000 0.55030  0.98630  0.72200  Biso   1.000  N
  N16      1.0000 0.73850  0.52080  0.86280  Biso   1.000  N
  C176     1.0000 0.60060  0.64940  0.72570  Biso   1.000  C
  C177     1.0000 0.60730  0.58670  0.68320  Biso   1.000  C
  C178     1.0000 0.67040  0.53080  0.68710  Biso   1.000  C
  H134     1.0000 0.70910  0.53520  0.71720  Biso   1.000  H
  C179     1.0000 0.67860  0.46880  0.64850  Biso   1.000  C
  C180     1.0000 0.74920  0.41040  0.65750  Biso   1.000  C
  C181     1.0000 0.62080  0.46060  0.60260  Biso   1.000  C
  C182     1.0000 0.55880  0.51830  0.59880  Biso   1.000  C
  H135     1.0000 0.52030  0.51710  0.56860  Biso   1.000  H
  C183     1.0000 0.55120  0.57710  0.63760  Biso   1.000  C
  H136     1.0000 0.50750  0.61160  0.63340  Biso   1.000  H
  C184     1.0000 0.62550  0.39860  0.55890  Biso   1.000  C
  C185     1.0000 0.68210  0.42840  0.54640  Biso   1.000  C
  H137     1.0000 0.71840  0.48140  0.56650  Biso   1.000  H
  C186     1.0000 0.68400  0.37780  0.50330  Biso   1.000  C
  H138     1.0000 0.72180  0.39760  0.49500  Biso   1.000  H
  C187     1.0000 0.62990  0.29790  0.47230  Biso   1.000  C
  C188     1.0000 0.62890  0.25530  0.42390  Biso   1.000  C
  C189     1.0000 0.57710  0.26640  0.48660  Biso   1.000  C
  H139     1.0000 0.54160  0.21090  0.46710  Biso   1.000  H
  C190     1.0000 0.57410  0.31450  0.52990  Biso   1.000  C
  H140     1.0000 0.53760  0.28990  0.53900  Biso   1.000  H
  C191     1.0000 0.57280  0.09260  0.74320  Biso   1.000  C
  H141     1.0000 0.56560  0.11280  0.77140  Biso   1.000  H
  C192     1.0000 0.61110  0.18750  0.72400  Biso   1.000  C
  H142     1.0000 0.62530  0.26790  0.73810  Biso   1.000  H
  C193     1.0000 0.62240  0.14870  0.68670  Biso   1.000  C
  H143     1.0000 0.64800  0.20190  0.67470  Biso   1.000  H
  C194     1.0000 0.60100  0.04400  0.66550  Biso   1.000  C
  H144     1.0000 0.60690  0.02120  0.63700  Biso   1.000  H
  C195     1.0000 0.56850  0.96450  0.68650  Biso   1.000  C
  H145     1.0000 0.55820  0.88270  0.67300  Biso   1.000  H
  C196     1.0000 0.79250  0.53050  0.90570  Biso   1.000  C
  H146     1.0000 0.80050  0.60740  0.92290  Biso   1.000  H
  C197     1.0000 0.83830  0.42630  0.92580  Biso   1.000  C
  H147     1.0000 0.87550  0.43250  0.95650  Biso   1.000  H
  C198     1.0000 0.82650  0.31440  0.89860  Biso   1.000  C
  H148     1.0000 0.85830  0.24650  0.90940  Biso   1.000  H
  C199     1.0000 0.76940  0.30510  0.85700  Biso   1.000  C
  H149     1.0000 0.75740  0.22800  0.84000  Biso   1.000  H
  C200     1.0000 0.72880  0.41160  0.84000  Biso   1.000  C
  H150     1.0000 0.69100  0.40580  0.80950  Biso   1.000  H
  H151     1.0000 0.58300  0.83200  0.84230  Biso   1.000  H
  H152     1.0000 0.62300  0.89100  0.81600  Biso   1.000  H
  Co9      1.0000 0.00000  0.65927  0.25000  Biso   1.000  Co
  Co10     1.0000 0.50000  0.15927  0.25000  Biso   1.000  Co
  Co11     1.0000 0.00000  0.34073  0.75000  Biso   1.000  Co
  Co12     1.0000 0.50000  0.84073  0.75000  Biso   1.000  Co
