data_FAHVAM_clean
_audit_creation_date              2014-07-02
_audit_creation_method            'Materials Studio'
_symmetry_space_group_name_H-M    'P1'
_symmetry_Int_Tables_number       1
_symmetry_cell_setting            triclinic
loop_
_symmetry_equiv_pos_as_xyz
  x,y,z
_cell_length_a                    15.3510
_cell_length_b                    15.3510
_cell_length_c                    15.8120
_cell_angle_alpha                 90.0000
_cell_angle_beta                  90.0000
_cell_angle_gamma                 120.0000
loop_
_atom_site_label
_atom_site_type_symbol
_atom_site_fract_x
_atom_site_fract_y
_atom_site_fract_z
_atom_site_U_iso_or_equiv
_atom_site_adp_type
_atom_site_occupancy
Tb1    Tb    0.33333   0.66666   0.75000   0.01267  Uiso   1.00
Tb2    Tb    0.66667   0.33334   0.75000   0.01267  Uiso   1.00
Tb3    Tb    0.66667   0.33334   0.25000   0.01267  Uiso   1.00
Tb4    Tb    0.33333   0.66666   0.25000   0.01267  Uiso   1.00
Mn1    Mn    0.50000   0.00000   0.00000   0.01267  Uiso   1.00
Mn2    Mn    0.50000   0.50000   0.00000   0.01267  Uiso   1.00
Mn3    Mn    0.00000   0.50000   0.00000   0.01267  Uiso   1.00
Mn4    Mn    0.50000   0.00000   0.50000   0.01267  Uiso   1.00
Mn5    Mn    0.00000   0.50000   0.50000   0.01267  Uiso   1.00
Mn6    Mn    0.50000   0.50000   0.50000   0.01267  Uiso   1.00
H1     H     0.70870   0.94220   0.84380   0.01267  Uiso   1.00
H2     H     0.23350   0.29130   0.84380   0.01267  Uiso   1.00
H3     H     0.05780   0.76650   0.84380   0.01267  Uiso   1.00
H4     H     0.29130   0.05780   0.84380   0.01267  Uiso   1.00
H5     H     0.76650   0.70870   0.84380   0.01267  Uiso   1.00
H6     H     0.94220   0.23350   0.84380   0.01267  Uiso   1.00
H7     H     0.76650   0.05780   0.65620   0.01267  Uiso   1.00
H8     H     0.94220   0.70870   0.65620   0.01267  Uiso   1.00
H9     H     0.29130   0.23350   0.65620   0.01267  Uiso   1.00
H10    H     0.23350   0.94220   0.65620   0.01267  Uiso   1.00
H11    H     0.05780   0.29130   0.65620   0.01267  Uiso   1.00
H12    H     0.70870   0.76650   0.65620   0.01267  Uiso   1.00
H13    H     0.29130   0.05780   0.15620   0.01267  Uiso   1.00
H14    H     0.76650   0.70870   0.15620   0.01267  Uiso   1.00
H15    H     0.94220   0.23350   0.15620   0.01267  Uiso   1.00
H16    H     0.70870   0.94220   0.15620   0.01267  Uiso   1.00
H17    H     0.23350   0.29130   0.15620   0.01267  Uiso   1.00
H18    H     0.05780   0.76650   0.15620   0.01267  Uiso   1.00
H19    H     0.23350   0.94220   0.34380   0.01267  Uiso   1.00
H20    H     0.05780   0.29130   0.34380   0.01267  Uiso   1.00
H21    H     0.70870   0.76650   0.34380   0.01267  Uiso   1.00
H22    H     0.76650   0.05780   0.34380   0.01267  Uiso   1.00
H23    H     0.94220   0.70870   0.34380   0.01267  Uiso   1.00
H24    H     0.29130   0.23350   0.34380   0.01267  Uiso   1.00
H25    H     0.79750   0.89875   0.75000   0.01267  Uiso   1.00
H26    H     0.10125   0.20250   0.75000   0.01267  Uiso   1.00
H27    H     0.10125   0.89875   0.75000   0.01267  Uiso   1.00
H28    H     0.20250   0.10125   0.75000   0.01267  Uiso   1.00
H29    H     0.89875   0.79750   0.75000   0.01267  Uiso   1.00
H30    H     0.89875   0.10125   0.75000   0.01267  Uiso   1.00
H31    H     0.20250   0.10125   0.25000   0.01267  Uiso   1.00
H32    H     0.89875   0.79750   0.25000   0.01267  Uiso   1.00
H33    H     0.89875   0.10125   0.25000   0.01267  Uiso   1.00
H34    H     0.79750   0.89875   0.25000   0.01267  Uiso   1.00
H35    H     0.10125   0.20250   0.25000   0.01267  Uiso   1.00
H36    H     0.10125   0.89875   0.25000   0.01267  Uiso   1.00
C1     C     0.50615   0.85880   0.86001   0.01267  Uiso   1.00
C2     C     0.57250   0.83794   0.80261   0.01267  Uiso   1.00
C3     C     0.67487   0.89000   0.80536   0.01267  Uiso   1.00
C4     C     0.35265   0.49385   0.86001   0.01267  Uiso   1.00
C5     C     0.26544   0.42750   0.80261   0.01267  Uiso   1.00
C6     C     0.21513   0.32513   0.80536   0.01267  Uiso   1.00
C7     C     0.14120   0.64735   0.86001   0.01267  Uiso   1.00
C8     C     0.16206   0.73456   0.80261   0.01267  Uiso   1.00
C9     C     0.11000   0.78487   0.80536   0.01267  Uiso   1.00
C10    C     0.49385   0.14120   0.86001   0.01267  Uiso   1.00
C11    C     0.42750   0.16206   0.80261   0.01267  Uiso   1.00
C12    C     0.32513   0.11000   0.80536   0.01267  Uiso   1.00
C13    C     0.64735   0.50615   0.86001   0.01267  Uiso   1.00
C14    C     0.73456   0.57250   0.80261   0.01267  Uiso   1.00
C15    C     0.78487   0.67487   0.80536   0.01267  Uiso   1.00
C16    C     0.85880   0.35265   0.86001   0.01267  Uiso   1.00
C17    C     0.83794   0.26544   0.80261   0.01267  Uiso   1.00
C18    C     0.89000   0.21513   0.80536   0.01267  Uiso   1.00
C19    C     0.64735   0.14120   0.63999   0.01267  Uiso   1.00
C20    C     0.73456   0.16206   0.69739   0.01267  Uiso   1.00
C21    C     0.78487   0.11000   0.69464   0.01267  Uiso   1.00
C22    C     0.85880   0.50615   0.63999   0.01267  Uiso   1.00
C23    C     0.83794   0.57250   0.69739   0.01267  Uiso   1.00
C24    C     0.89000   0.67487   0.69464   0.01267  Uiso   1.00
C25    C     0.49385   0.35265   0.63999   0.01267  Uiso   1.00
C26    C     0.42750   0.26544   0.69739   0.01267  Uiso   1.00
C27    C     0.32513   0.21513   0.69464   0.01267  Uiso   1.00
C28    C     0.35265   0.85880   0.63999   0.01267  Uiso   1.00
C29    C     0.26544   0.83794   0.69739   0.01267  Uiso   1.00
C30    C     0.21513   0.89000   0.69464   0.01267  Uiso   1.00
C31    C     0.14120   0.49385   0.63999   0.01267  Uiso   1.00
C32    C     0.16206   0.42750   0.69739   0.01267  Uiso   1.00
C33    C     0.11000   0.32513   0.69464   0.01267  Uiso   1.00
C34    C     0.50615   0.64735   0.63999   0.01267  Uiso   1.00
C35    C     0.57250   0.73456   0.69739   0.01267  Uiso   1.00
C36    C     0.67487   0.78487   0.69464   0.01267  Uiso   1.00
C37    C     0.49385   0.14120   0.13999   0.01267  Uiso   1.00
C38    C     0.42750   0.16206   0.19739   0.01267  Uiso   1.00
C39    C     0.32513   0.11000   0.19464   0.01267  Uiso   1.00
C40    C     0.64735   0.50615   0.13999   0.01267  Uiso   1.00
C41    C     0.73456   0.57250   0.19739   0.01267  Uiso   1.00
C42    C     0.78487   0.67487   0.19464   0.01267  Uiso   1.00
C43    C     0.85880   0.35265   0.13999   0.01267  Uiso   1.00
C44    C     0.83794   0.26544   0.19739   0.01267  Uiso   1.00
C45    C     0.89000   0.21513   0.19464   0.01267  Uiso   1.00
C46    C     0.50615   0.85880   0.13999   0.01267  Uiso   1.00
C47    C     0.57250   0.83794   0.19739   0.01267  Uiso   1.00
C48    C     0.67487   0.89000   0.19464   0.01267  Uiso   1.00
C49    C     0.35265   0.49385   0.13999   0.01267  Uiso   1.00
C50    C     0.26544   0.42750   0.19739   0.01267  Uiso   1.00
C51    C     0.21513   0.32513   0.19464   0.01267  Uiso   1.00
C52    C     0.14120   0.64735   0.13999   0.01267  Uiso   1.00
C53    C     0.16206   0.73456   0.19739   0.01267  Uiso   1.00
C54    C     0.11000   0.78487   0.19464   0.01267  Uiso   1.00
C55    C     0.35265   0.85880   0.36001   0.01267  Uiso   1.00
C56    C     0.26544   0.83794   0.30261   0.01267  Uiso   1.00
C57    C     0.21513   0.89000   0.30536   0.01267  Uiso   1.00
C58    C     0.14120   0.49385   0.36001   0.01267  Uiso   1.00
C59    C     0.16206   0.42750   0.30261   0.01267  Uiso   1.00
C60    C     0.11000   0.32513   0.30536   0.01267  Uiso   1.00
C61    C     0.50615   0.64735   0.36001   0.01267  Uiso   1.00
C62    C     0.57250   0.73456   0.30261   0.01267  Uiso   1.00
C63    C     0.67487   0.78487   0.30536   0.01267  Uiso   1.00
C64    C     0.64735   0.14120   0.36001   0.01267  Uiso   1.00
C65    C     0.73456   0.16206   0.30261   0.01267  Uiso   1.00
C66    C     0.78487   0.11000   0.30536   0.01267  Uiso   1.00
C67    C     0.85880   0.50615   0.36001   0.01267  Uiso   1.00
C68    C     0.83794   0.57250   0.30261   0.01267  Uiso   1.00
C69    C     0.89000   0.67487   0.30536   0.01267  Uiso   1.00
C70    C     0.49385   0.35265   0.36001   0.01267  Uiso   1.00
C71    C     0.42750   0.26544   0.30261   0.01267  Uiso   1.00
C72    C     0.32513   0.21513   0.30536   0.01267  Uiso   1.00
C73    C     0.72756   0.86378   0.75000   0.01267  Uiso   1.00
C74    C     0.13622   0.27244   0.75000   0.01267  Uiso   1.00
C75    C     0.13622   0.86378   0.75000   0.01267  Uiso   1.00
C76    C     0.27244   0.13622   0.75000   0.01267  Uiso   1.00
C77    C     0.86378   0.72756   0.75000   0.01267  Uiso   1.00
C78    C     0.86378   0.13622   0.75000   0.01267  Uiso   1.00
C79    C     0.27244   0.13622   0.25000   0.01267  Uiso   1.00
C80    C     0.86378   0.72756   0.25000   0.01267  Uiso   1.00
C81    C     0.86378   0.13622   0.25000   0.01267  Uiso   1.00
C82    C     0.72756   0.86378   0.25000   0.01267  Uiso   1.00
C83    C     0.13622   0.27244   0.25000   0.01267  Uiso   1.00
C84    C     0.13622   0.86378   0.25000   0.01267  Uiso   1.00
N1     N     0.52077   0.76039   0.75000   0.01267  Uiso   1.00
N2     N     0.23962   0.47924   0.75000   0.01267  Uiso   1.00
N3     N     0.23962   0.76039   0.75000   0.01267  Uiso   1.00
N4     N     0.47923   0.23961   0.75000   0.01267  Uiso   1.00
N5     N     0.76038   0.52076   0.75000   0.01267  Uiso   1.00
N6     N     0.76038   0.23961   0.75000   0.01267  Uiso   1.00
N7     N     0.47923   0.23961   0.25000   0.01267  Uiso   1.00
N8     N     0.76038   0.52076   0.25000   0.01267  Uiso   1.00
N9     N     0.76038   0.23961   0.25000   0.01267  Uiso   1.00
N10    N     0.52077   0.76039   0.25000   0.01267  Uiso   1.00
N11    N     0.23962   0.47924   0.25000   0.01267  Uiso   1.00
N12    N     0.23962   0.76039   0.25000   0.01267  Uiso   1.00
O1     O     0.55078   0.93500   0.90669   0.01267  Uiso   1.00
O2     O     0.41280   0.80038   0.85542   0.01267  Uiso   1.00
O3     O     0.38422   0.44922   0.90669   0.01267  Uiso   1.00
O4     O     0.38758   0.58720   0.85542   0.01267  Uiso   1.00
O5     O     0.06500   0.61578   0.90669   0.01267  Uiso   1.00
O6     O     0.19962   0.61242   0.85542   0.01267  Uiso   1.00
O7     O     0.44922   0.06500   0.90669   0.01267  Uiso   1.00
O8     O     0.58720   0.19962   0.85542   0.01267  Uiso   1.00
O9     O     0.61578   0.55078   0.90669   0.01267  Uiso   1.00
O10    O     0.61242   0.41280   0.85542   0.01267  Uiso   1.00
O11    O     0.93500   0.38422   0.90669   0.01267  Uiso   1.00
O12    O     0.80038   0.38758   0.85542   0.01267  Uiso   1.00
O13    O     0.61578   0.06500   0.59331   0.01267  Uiso   1.00
O14    O     0.61242   0.19962   0.64458   0.01267  Uiso   1.00
O15    O     0.93500   0.55078   0.59331   0.01267  Uiso   1.00
O16    O     0.80038   0.41280   0.64458   0.01267  Uiso   1.00
O17    O     0.44922   0.38422   0.59331   0.01267  Uiso   1.00
O18    O     0.58720   0.38758   0.64458   0.01267  Uiso   1.00
O19    O     0.38422   0.93500   0.59331   0.01267  Uiso   1.00
O20    O     0.38758   0.80038   0.64458   0.01267  Uiso   1.00
O21    O     0.06500   0.44922   0.59331   0.01267  Uiso   1.00
O22    O     0.19962   0.58720   0.64458   0.01267  Uiso   1.00
O23    O     0.55078   0.61578   0.59331   0.01267  Uiso   1.00
O24    O     0.41280   0.61242   0.64458   0.01267  Uiso   1.00
O25    O     0.44922   0.06500   0.09331   0.01267  Uiso   1.00
O26    O     0.58720   0.19962   0.14458   0.01267  Uiso   1.00
O27    O     0.61578   0.55078   0.09331   0.01267  Uiso   1.00
O28    O     0.61242   0.41280   0.14458   0.01267  Uiso   1.00
O29    O     0.93500   0.38422   0.09331   0.01267  Uiso   1.00
O30    O     0.80038   0.38758   0.14458   0.01267  Uiso   1.00
O31    O     0.55078   0.93500   0.09331   0.01267  Uiso   1.00
O32    O     0.41280   0.80038   0.14458   0.01267  Uiso   1.00
O33    O     0.38422   0.44922   0.09331   0.01267  Uiso   1.00
O34    O     0.38758   0.58720   0.14458   0.01267  Uiso   1.00
O35    O     0.06500   0.61578   0.09331   0.01267  Uiso   1.00
O36    O     0.19962   0.61242   0.14458   0.01267  Uiso   1.00
O37    O     0.38422   0.93500   0.40669   0.01267  Uiso   1.00
O38    O     0.38758   0.80038   0.35542   0.01267  Uiso   1.00
O39    O     0.06500   0.44922   0.40669   0.01267  Uiso   1.00
O40    O     0.19962   0.58720   0.35542   0.01267  Uiso   1.00
O41    O     0.55078   0.61578   0.40669   0.01267  Uiso   1.00
O42    O     0.41280   0.61242   0.35542   0.01267  Uiso   1.00
O43    O     0.61578   0.06500   0.40669   0.01267  Uiso   1.00
O44    O     0.61242   0.19962   0.35542   0.01267  Uiso   1.00
O45    O     0.93500   0.55078   0.40669   0.01267  Uiso   1.00
O46    O     0.80038   0.41280   0.35542   0.01267  Uiso   1.00
O47    O     0.44922   0.38422   0.40669   0.01267  Uiso   1.00
O48    O     0.58720   0.38758   0.35542   0.01267  Uiso   1.00
