data_FAJYAS_clean
_audit_creation_date              2014-07-02
_audit_creation_method            'Materials Studio'
_symmetry_space_group_name_H-M    'P1'
_symmetry_Int_Tables_number       1
_symmetry_cell_setting            triclinic
loop_
_symmetry_equiv_pos_as_xyz
  x,y,z
_cell_length_a                    13.8773
_cell_length_b                    21.6080
_cell_length_c                    34.9221
_cell_angle_alpha                 90.0000
_cell_angle_beta                  96.2360
_cell_angle_gamma                 90.0000
loop_
_atom_site_label
_atom_site_type_symbol
_atom_site_fract_x
_atom_site_fract_y
_atom_site_fract_z
_atom_site_U_iso_or_equiv
_atom_site_adp_type
_atom_site_occupancy
Co1    Co    0.47836   0.50654   0.85135   0.01267  Uiso   1.00
Co2    Co    0.29978   0.58416   0.81219   0.01267  Uiso   1.00
Co3    Co    0.27171   0.43149   0.83774   0.01267  Uiso   1.00
Co4    Co    0.97836   0.99346   0.35135   0.01267  Uiso   1.00
Co5    Co    0.79978   0.91584   0.31219   0.01267  Uiso   1.00
Co6    Co    0.77171   0.06851   0.33774   0.01267  Uiso   1.00
H1     H     0.74260   0.03390   0.08930   0.01267  Uiso   1.00
H2     H     0.52280   0.12510   0.93180   0.01267  Uiso   1.00
H3     H     0.60840   0.90550   0.01240   0.01267  Uiso   1.00
H4     H     0.59300   0.03530   0.92830   0.01267  Uiso   1.00
H5     H     0.65800   0.08430   0.03990   0.01267  Uiso   1.00
H6     H     0.64740   0.85530   0.95890   0.01267  Uiso   1.00
H7     H     0.10500   0.10660   0.94730   0.01267  Uiso   1.00
H8     H     0.09370   0.82730   0.98930   0.01267  Uiso   1.00
H9     H     0.15000   0.01680   0.12060   0.01267  Uiso   1.00
H10    H     0.08200   0.88690   0.03320   0.01267  Uiso   1.00
H11    H     0.42540   0.18640   0.89100   0.01267  Uiso   1.00
H12    H     0.14890   0.01230   0.95460   0.01267  Uiso   1.00
H13    H     0.39520   0.27910   0.86020   0.01267  Uiso   1.00
H14    H     0.66000   0.91900   0.14800   0.01267  Uiso   1.00
H15    H     0.66320   0.92550   0.21330   0.01267  Uiso   1.00
H16    H     0.13040   0.06610   0.06480   0.01267  Uiso   1.00
H17    H     0.63510   0.35130   0.91870   0.01267  Uiso   1.00
H18    H     0.75640   0.09520   0.14460   0.01267  Uiso   1.00
H19    H     0.14290   0.00990   0.24980   0.01267  Uiso   1.00
H20    H     0.76640   0.10010   0.21170   0.01267  Uiso   1.00
H21    H     0.64050   0.66440   0.90680   0.01267  Uiso   1.00
H22    H     0.16530   0.72760   0.99080   0.01267  Uiso   1.00
H23    H     0.12620   0.82150   0.89120   0.01267  Uiso   1.00
H24    H     0.69220   0.75720   0.93660   0.01267  Uiso   1.00
H25    H     0.16310   0.73330   0.85830   0.01267  Uiso   1.00
H26    H     0.16040   0.23850   0.85800   0.01267  Uiso   1.00
H27    H     0.43530   0.83550   0.89670   0.01267  Uiso   1.00
H28    H     0.39110   0.74310   0.86610   0.01267  Uiso   1.00
H29    H     0.66390   0.25880   0.95090   0.01267  Uiso   1.00
H30    H     0.12340   0.15400   0.89210   0.01267  Uiso   1.00
H31    H     0.21540   0.23720   0.98940   0.01267  Uiso   1.00
H32    H     0.20800   0.64110   0.95710   0.01267  Uiso   1.00
H33    H     0.19490   0.01390   0.18900   0.01267  Uiso   1.00
H34    H     0.93370   0.95620   0.14230   0.01267  Uiso   1.00
H35    H     0.24630   0.32630   0.95540   0.01267  Uiso   1.00
H36    H     0.88410   0.94890   0.20430   0.01267  Uiso   1.00
H37    H     0.24260   0.46610   0.58930   0.01267  Uiso   1.00
H38    H     0.02280   0.37490   0.43180   0.01267  Uiso   1.00
H39    H     0.10840   0.59450   0.51240   0.01267  Uiso   1.00
H40    H     0.09300   0.46470   0.42830   0.01267  Uiso   1.00
H41    H     0.15800   0.41570   0.53990   0.01267  Uiso   1.00
H42    H     0.14740   0.64470   0.45890   0.01267  Uiso   1.00
H43    H     0.60500   0.39340   0.44730   0.01267  Uiso   1.00
H44    H     0.59370   0.67270   0.48930   0.01267  Uiso   1.00
H45    H     0.65000   0.48320   0.62060   0.01267  Uiso   1.00
H46    H     0.58200   0.61310   0.53320   0.01267  Uiso   1.00
H47    H     0.92540   0.31360   0.39100   0.01267  Uiso   1.00
H48    H     0.64890   0.48770   0.45460   0.01267  Uiso   1.00
H49    H     0.89520   0.22090   0.36020   0.01267  Uiso   1.00
H50    H     0.16000   0.58100   0.64800   0.01267  Uiso   1.00
H51    H     0.16320   0.57450   0.71330   0.01267  Uiso   1.00
H52    H     0.63040   0.43390   0.56480   0.01267  Uiso   1.00
H53    H     0.13510   0.14870   0.41870   0.01267  Uiso   1.00
H54    H     0.25640   0.40480   0.64460   0.01267  Uiso   1.00
H55    H     0.64290   0.49010   0.74980   0.01267  Uiso   1.00
H56    H     0.26640   0.39990   0.71170   0.01267  Uiso   1.00
H57    H     0.14050   0.83560   0.40680   0.01267  Uiso   1.00
H58    H     0.66530   0.77240   0.49080   0.01267  Uiso   1.00
H59    H     0.62620   0.67850   0.39120   0.01267  Uiso   1.00
H60    H     0.19220   0.74280   0.43660   0.01267  Uiso   1.00
H61    H     0.66310   0.76670   0.35830   0.01267  Uiso   1.00
H62    H     0.66040   0.26150   0.35800   0.01267  Uiso   1.00
H63    H     0.93530   0.66450   0.39670   0.01267  Uiso   1.00
H64    H     0.89110   0.75690   0.36610   0.01267  Uiso   1.00
H65    H     0.16390   0.24120   0.45090   0.01267  Uiso   1.00
H66    H     0.62340   0.34600   0.39210   0.01267  Uiso   1.00
H67    H     0.71540   0.26280   0.48940   0.01267  Uiso   1.00
H68    H     0.70800   0.85890   0.45710   0.01267  Uiso   1.00
H69    H     0.69490   0.48610   0.68900   0.01267  Uiso   1.00
H70    H     0.43370   0.54380   0.64230   0.01267  Uiso   1.00
H71    H     0.74630   0.17370   0.45540   0.01267  Uiso   1.00
H72    H     0.38410   0.55110   0.70430   0.01267  Uiso   1.00
C1     C     0.62560   0.07031   0.98172   0.01267  Uiso   1.00
C2     C     0.61350   0.94737   0.00456   0.01267  Uiso   1.00
C3     C     0.64490   0.97226   0.07350   0.01267  Uiso   1.00
C4     C     0.60400   0.02445   0.95481   0.01267  Uiso   1.00
C5     C     0.63630   0.99290   0.03204   0.01267  Uiso   1.00
C6     C     0.64230   0.05332   0.02099   0.01267  Uiso   1.00
C7     C     0.59810   0.96254   0.96544   0.01267  Uiso   1.00
C8     C     0.09790   0.92816   0.02681   0.01267  Uiso   1.00
C9     C     0.56240   0.91646   0.93559   0.01267  Uiso   1.00
C10    C     0.12790   0.89490   0.95831   0.01267  Uiso   1.00
C11    C     0.46790   0.22030   0.89710   0.01267  Uiso   1.00
C12    C     0.13830   0.00280   0.98034   0.01267  Uiso   1.00
C13    C     0.11940   0.94280   0.98963   0.01267  Uiso   1.00
C14    C     0.16690   0.11410   0.99865   0.01267  Uiso   1.00
C15    C     0.70530   0.00673   0.13916   0.01267  Uiso   1.00
C16    C     0.14250   0.05040   0.00736   0.01267  Uiso   1.00
C17    C     0.97470   0.97250   0.27219   0.01267  Uiso   1.00
C18    C     0.56810   0.80494   0.91989   0.01267  Uiso   1.00
C19    C     0.54810   0.21283   0.92455   0.01267  Uiso   1.00
C20    C     0.71470   0.01390   0.21951   0.01267  Uiso   1.00
C21    C     0.10020   0.97510   0.05438   0.01267  Uiso   1.00
C22    C     0.62910   0.13649   0.97158   0.01267  Uiso   1.00
C23    C     0.13650   0.78270   0.94417   0.01267  Uiso   1.00
C24    C     0.48540   0.38740   0.86798   0.01267  Uiso   1.00
C25    C     0.72160   0.01610   0.26275   0.01267  Uiso   1.00
C26    C     0.44980   0.27560   0.87894   0.01267  Uiso   1.00
C27    C     0.00880   0.97770   0.23294   0.01267  Uiso   1.00
C28    C     0.67990   0.95650   0.16069   0.01267  Uiso   1.00
C29    C     0.68300   0.96020   0.19937   0.01267  Uiso   1.00
C30    C     0.12510   0.03520   0.04538   0.01267  Uiso   1.00
C31    C     0.59090   0.31800   0.91363   0.01267  Uiso   1.00
C32    C     0.51160   0.69550   0.88302   0.01267  Uiso   1.00
C33    C     0.48020   0.63450   0.86352   0.01267  Uiso   1.00
C34    C     0.06370   0.95930   0.09188   0.01267  Uiso   1.00
C35    C     0.16810   0.18690   0.94357   0.01267  Uiso   1.00
C36    C     0.06940   0.98490   0.16013   0.01267  Uiso   1.00
C37    C     0.73780   0.06050   0.15874   0.01267  Uiso   1.00
C38    C     0.10000   0.99780   0.22800   0.01267  Uiso   1.00
C39    C     0.50820   0.32650   0.88697   0.01267  Uiso   1.00
C40    C     0.74310   0.06350   0.19872   0.01267  Uiso   1.00
C41    C     0.18490   0.67800   0.90431   0.01267  Uiso   1.00
C42    C     0.20900   0.29140   0.90313   0.01267  Uiso   1.00
C43    C     0.59930   0.69960   0.90434   0.01267  Uiso   1.00
C44    C     0.16360   0.72920   0.96353   0.01267  Uiso   1.00
C45    C     0.13990   0.78400   0.90490   0.01267  Uiso   1.00
C46    C     0.62980   0.75440   0.92252   0.01267  Uiso   1.00
C47    C     0.16280   0.73180   0.88542   0.01267  Uiso   1.00
C48    C     0.17190   0.23930   0.88533   0.01267  Uiso   1.00
C49    C     0.47820   0.80110   0.89876   0.01267  Uiso   1.00
C50    C     0.45280   0.74600   0.88080   0.01267  Uiso   1.00
C51    C     0.60890   0.26280   0.93235   0.01267  Uiso   1.00
C52    C     0.23130   0.34670   0.88066   0.01267  Uiso   1.00
C53    C     0.15110   0.18910   0.90550   0.01267  Uiso   1.00
C54    C     0.20350   0.23740   0.96213   0.01267  Uiso   1.00
C55    C     0.18820   0.67770   0.94339   0.01267  Uiso   1.00
C56    C     0.13070   0.00070   0.19190   0.01267  Uiso   1.00
C57    C     0.97740   0.96640   0.16429   0.01267  Uiso   1.00
C58    C     0.21820   0.62300   0.88233   0.01267  Uiso   1.00
C59    C     0.22290   0.29030   0.94177   0.01267  Uiso   1.00
C60    C     0.94790   0.96250   0.20128   0.01267  Uiso   1.00
C61    C     0.12560   0.42969   0.48172   0.01267  Uiso   1.00
C62    C     0.11350   0.55263   0.50456   0.01267  Uiso   1.00
C63    C     0.14490   0.52774   0.57350   0.01267  Uiso   1.00
C64    C     0.10400   0.47555   0.45481   0.01267  Uiso   1.00
C65    C     0.13630   0.50710   0.53204   0.01267  Uiso   1.00
C66    C     0.14230   0.44668   0.52099   0.01267  Uiso   1.00
C67    C     0.09810   0.53746   0.46544   0.01267  Uiso   1.00
C68    C     0.59790   0.57184   0.52681   0.01267  Uiso   1.00
C69    C     0.06240   0.58354   0.43559   0.01267  Uiso   1.00
C70    C     0.62790   0.60510   0.45831   0.01267  Uiso   1.00
C71    C     0.96790   0.27970   0.39710   0.01267  Uiso   1.00
C72    C     0.63830   0.49720   0.48034   0.01267  Uiso   1.00
C73    C     0.61940   0.55720   0.48963   0.01267  Uiso   1.00
C74    C     0.66690   0.38590   0.49865   0.01267  Uiso   1.00
C75    C     0.20530   0.49327   0.63916   0.01267  Uiso   1.00
C76    C     0.64250   0.44960   0.50736   0.01267  Uiso   1.00
C77    C     0.47470   0.52750   0.77219   0.01267  Uiso   1.00
C78    C     0.06810   0.69506   0.41989   0.01267  Uiso   1.00
C79    C     0.04810   0.28717   0.42455   0.01267  Uiso   1.00
C80    C     0.21470   0.48610   0.71951   0.01267  Uiso   1.00
C81    C     0.60020   0.52490   0.55438   0.01267  Uiso   1.00
C82    C     0.12910   0.36351   0.47158   0.01267  Uiso   1.00
C83    C     0.63650   0.71730   0.44417   0.01267  Uiso   1.00
C84    C     0.98540   0.11260   0.36798   0.01267  Uiso   1.00
C85    C     0.22160   0.48390   0.76275   0.01267  Uiso   1.00
C86    C     0.94980   0.22440   0.37894   0.01267  Uiso   1.00
C87    C     0.50880   0.52230   0.73294   0.01267  Uiso   1.00
C88    C     0.17990   0.54350   0.66069   0.01267  Uiso   1.00
C89    C     0.18300   0.53980   0.69937   0.01267  Uiso   1.00
C90    C     0.62510   0.46480   0.54538   0.01267  Uiso   1.00
C91    C     0.09090   0.18200   0.41363   0.01267  Uiso   1.00
C92    C     0.01160   0.80450   0.38302   0.01267  Uiso   1.00
C93    C     0.98020   0.86550   0.36352   0.01267  Uiso   1.00
C94    C     0.56370   0.54070   0.59188   0.01267  Uiso   1.00
C95    C     0.66810   0.31310   0.44357   0.01267  Uiso   1.00
C96    C     0.56940   0.51510   0.66013   0.01267  Uiso   1.00
C97    C     0.23780   0.43950   0.65874   0.01267  Uiso   1.00
C98    C     0.60000   0.50220   0.72800   0.01267  Uiso   1.00
C99    C     0.00820   0.17350   0.38697   0.01267  Uiso   1.00
C100   C     0.24310   0.43650   0.69872   0.01267  Uiso   1.00
C101   C     0.68490   0.82200   0.40431   0.01267  Uiso   1.00
C102   C     0.70900   0.20860   0.40313   0.01267  Uiso   1.00
C103   C     0.09930   0.80040   0.40434   0.01267  Uiso   1.00
C104   C     0.66360   0.77080   0.46353   0.01267  Uiso   1.00
C105   C     0.63990   0.71600   0.40490   0.01267  Uiso   1.00
C106   C     0.12980   0.74560   0.42252   0.01267  Uiso   1.00
C107   C     0.66280   0.76820   0.38542   0.01267  Uiso   1.00
C108   C     0.67190   0.26070   0.38533   0.01267  Uiso   1.00
C109   C     0.97820   0.69890   0.39876   0.01267  Uiso   1.00
C110   C     0.95280   0.75400   0.38080   0.01267  Uiso   1.00
C111   C     0.10890   0.23720   0.43235   0.01267  Uiso   1.00
C112   C     0.73130   0.15330   0.38066   0.01267  Uiso   1.00
C113   C     0.65110   0.31090   0.40550   0.01267  Uiso   1.00
C114   C     0.70350   0.26260   0.46213   0.01267  Uiso   1.00
C115   C     0.68820   0.82230   0.44339   0.01267  Uiso   1.00
C116   C     0.63070   0.49930   0.69190   0.01267  Uiso   1.00
C117   C     0.47740   0.53360   0.66429   0.01267  Uiso   1.00
C118   C     0.71820   0.87700   0.38233   0.01267  Uiso   1.00
C119   C     0.72290   0.20970   0.44177   0.01267  Uiso   1.00
C120   C     0.44790   0.53750   0.70128   0.01267  Uiso   1.00
N1     N     0.70300   0.00787   0.09910   0.01267  Uiso   1.00
N2     N     0.56210   0.15436   0.94160   0.01267  Uiso   1.00
N3     N     0.59880   0.85957   0.94064   0.01267  Uiso   1.00
N4     N     0.14220   0.13231   0.96176   0.01267  Uiso   1.00
N5     N     0.11610   0.83515   0.96717   0.01267  Uiso   1.00
N6     N     0.10210   0.99102   0.12326   0.01267  Uiso   1.00
N7     N     0.20300   0.49213   0.59910   0.01267  Uiso   1.00
N8     N     0.06210   0.34564   0.44160   0.01267  Uiso   1.00
N9     N     0.09880   0.64043   0.44064   0.01267  Uiso   1.00
N10    N     0.64220   0.36769   0.46176   0.01267  Uiso   1.00
N11    N     0.61610   0.66485   0.46717   0.01267  Uiso   1.00
N12    N     0.60210   0.50898   0.62326   0.01267  Uiso   1.00
O1     O     0.60130   0.92656   0.08309   0.01267  Uiso   1.00
O2     O     0.50120   0.93068   0.90969   0.01267  Uiso   1.00
O3     O     0.14840   0.91130   0.92679   0.01267  Uiso   1.00
O4     O     0.33710   0.51153   0.85052   0.01267  Uiso   1.00
O5     O     0.00030   0.91989   0.09250   0.01267  Uiso   1.00
O6     O     0.68590   0.17217   0.98844   0.01267  Uiso   1.00
O7     O     0.75720   0.06356   0.27921   0.01267  Uiso   1.00
O8     O     0.52440   0.58612   0.87391   0.01267  Uiso   1.00
O9     O     0.02470   0.99616   0.30032   0.01267  Uiso   1.00
O10    O     0.20830   0.14925   0.02311   0.01267  Uiso   1.00
O11    O     0.69520   0.96783   0.27952   0.01267  Uiso   1.00
O12    O     0.53150   0.43425   0.88114   0.01267  Uiso   1.00
O13    O     0.40400   0.63935   0.84057   0.01267  Uiso   1.00
O14    O     0.41880   0.39134   0.84034   0.01267  Uiso   1.00
O15    O     0.89510   0.94529   0.27401   0.01267  Uiso   1.00
O16    O     0.26560   0.39380   0.89701   0.01267  Uiso   1.00
O17    O     0.21890   0.34462   0.84430   0.01267  Uiso   1.00
O18    O     0.20260   0.62392   0.84666   0.01267  Uiso   1.00
O19    O     0.26010   0.58020   0.90359   0.01267  Uiso   1.00
O20    O     0.10130   0.57344   0.58309   0.01267  Uiso   1.00
O21    O     0.00120   0.56932   0.40969   0.01267  Uiso   1.00
O22    O     0.64840   0.58870   0.42679   0.01267  Uiso   1.00
O23    O     0.83710   0.98847   0.35052   0.01267  Uiso   1.00
O24    O     0.50030   0.58011   0.59250   0.01267  Uiso   1.00
O25    O     0.18590   0.32783   0.48844   0.01267  Uiso   1.00
O26    O     0.25720   0.43644   0.77921   0.01267  Uiso   1.00
O27    O     0.02440   0.91388   0.37391   0.01267  Uiso   1.00
O28    O     0.52470   0.50384   0.80032   0.01267  Uiso   1.00
O29    O     0.70830   0.35075   0.52311   0.01267  Uiso   1.00
O30    O     0.19520   0.53217   0.77952   0.01267  Uiso   1.00
O31    O     0.03150   0.06575   0.38114   0.01267  Uiso   1.00
O32    O     0.90400   0.86065   0.34057   0.01267  Uiso   1.00
O33    O     0.91880   0.10866   0.34034   0.01267  Uiso   1.00
O34    O     0.39510   0.55471   0.77401   0.01267  Uiso   1.00
O35    O     0.76560   0.10620   0.39701   0.01267  Uiso   1.00
O36    O     0.71890   0.15538   0.34430   0.01267  Uiso   1.00
O37    O     0.70260   0.87608   0.34666   0.01267  Uiso   1.00
O38    O     0.76010   0.91980   0.40359   0.01267  Uiso   1.00
Co7    Co    0.02164   0.00654   0.64865   0.01267  Uiso   1.00
Co8    Co    0.20022   0.08416   0.68781   0.01267  Uiso   1.00
Co9    Co    0.22829   0.93149   0.66226   0.01267  Uiso   1.00
Co10   Co    0.52164   0.49346   0.14865   0.01267  Uiso   1.00
Co11   Co    0.70022   0.41584   0.18781   0.01267  Uiso   1.00
Co12   Co    0.72829   0.56851   0.16226   0.01267  Uiso   1.00
H73    H     0.75740   0.53390   0.41070   0.01267  Uiso   1.00
H74    H     0.97720   0.62510   0.56820   0.01267  Uiso   1.00
H75    H     0.89160   0.40550   0.48760   0.01267  Uiso   1.00
H76    H     0.90700   0.53530   0.57170   0.01267  Uiso   1.00
H77    H     0.84200   0.58430   0.46010   0.01267  Uiso   1.00
H78    H     0.85260   0.35530   0.54110   0.01267  Uiso   1.00
H79    H     0.39500   0.60660   0.55270   0.01267  Uiso   1.00
H80    H     0.40630   0.32730   0.51070   0.01267  Uiso   1.00
H81    H     0.35000   0.51680   0.37940   0.01267  Uiso   1.00
H82    H     0.41800   0.38690   0.46680   0.01267  Uiso   1.00
H83    H     0.07460   0.68640   0.60900   0.01267  Uiso   1.00
H84    H     0.35110   0.51230   0.54540   0.01267  Uiso   1.00
H85    H     0.10480   0.77910   0.63980   0.01267  Uiso   1.00
H86    H     0.84000   0.41900   0.35200   0.01267  Uiso   1.00
H87    H     0.83680   0.42550   0.28670   0.01267  Uiso   1.00
H88    H     0.36960   0.56610   0.43520   0.01267  Uiso   1.00
H89    H     0.86490   0.85130   0.58130   0.01267  Uiso   1.00
H90    H     0.74360   0.59520   0.35540   0.01267  Uiso   1.00
H91    H     0.35710   0.50990   0.25020   0.01267  Uiso   1.00
H92    H     0.73360   0.60010   0.28830   0.01267  Uiso   1.00
H93    H     0.85950   0.16440   0.59320   0.01267  Uiso   1.00
H94    H     0.33470   0.22760   0.50920   0.01267  Uiso   1.00
H95    H     0.37380   0.32150   0.60880   0.01267  Uiso   1.00
H96    H     0.80780   0.25720   0.56340   0.01267  Uiso   1.00
H97    H     0.33690   0.23330   0.64170   0.01267  Uiso   1.00
H98    H     0.33960   0.73850   0.64200   0.01267  Uiso   1.00
H99    H     0.06470   0.33550   0.60330   0.01267  Uiso   1.00
H100   H     0.10890   0.24310   0.63390   0.01267  Uiso   1.00
H101   H     0.83610   0.75880   0.54910   0.01267  Uiso   1.00
H102   H     0.37660   0.65400   0.60790   0.01267  Uiso   1.00
H103   H     0.28460   0.73720   0.51060   0.01267  Uiso   1.00
H104   H     0.29200   0.14110   0.54290   0.01267  Uiso   1.00
H105   H     0.30510   0.51390   0.31100   0.01267  Uiso   1.00
H106   H     0.56630   0.45620   0.35770   0.01267  Uiso   1.00
H107   H     0.25370   0.82630   0.54460   0.01267  Uiso   1.00
H108   H     0.61590   0.44890   0.29570   0.01267  Uiso   1.00
H109   H     0.25740   0.96610   0.91070   0.01267  Uiso   1.00
H110   H     0.47720   0.87490   0.06820   0.01267  Uiso   1.00
H111   H     0.39160   0.09450   0.98760   0.01267  Uiso   1.00
H112   H     0.40700   0.96470   0.07170   0.01267  Uiso   1.00
H113   H     0.34200   0.91570   0.96010   0.01267  Uiso   1.00
H114   H     0.35260   0.14470   0.04110   0.01267  Uiso   1.00
H115   H     0.89500   0.89340   0.05270   0.01267  Uiso   1.00
H116   H     0.90630   0.17270   0.01070   0.01267  Uiso   1.00
H117   H     0.85000   0.98320   0.87940   0.01267  Uiso   1.00
H118   H     0.91800   0.11310   0.96680   0.01267  Uiso   1.00
H119   H     0.57460   0.81360   0.10900   0.01267  Uiso   1.00
H120   H     0.85110   0.98770   0.04540   0.01267  Uiso   1.00
H121   H     0.60480   0.72090   0.13980   0.01267  Uiso   1.00
H122   H     0.34000   0.08100   0.85200   0.01267  Uiso   1.00
H123   H     0.33680   0.07450   0.78670   0.01267  Uiso   1.00
H124   H     0.86960   0.93390   0.93520   0.01267  Uiso   1.00
H125   H     0.36490   0.64870   0.08130   0.01267  Uiso   1.00
H126   H     0.24360   0.90480   0.85540   0.01267  Uiso   1.00
H127   H     0.85710   0.99010   0.75020   0.01267  Uiso   1.00
H128   H     0.23360   0.89990   0.78830   0.01267  Uiso   1.00
H129   H     0.35950   0.33560   0.09320   0.01267  Uiso   1.00
H130   H     0.83470   0.27240   0.00920   0.01267  Uiso   1.00
H131   H     0.87380   0.17850   0.10880   0.01267  Uiso   1.00
H132   H     0.30780   0.24280   0.06340   0.01267  Uiso   1.00
H133   H     0.83690   0.26670   0.14170   0.01267  Uiso   1.00
H134   H     0.83960   0.76150   0.14200   0.01267  Uiso   1.00
H135   H     0.56470   0.16450   0.10330   0.01267  Uiso   1.00
H136   H     0.60890   0.25690   0.13390   0.01267  Uiso   1.00
H137   H     0.33610   0.74120   0.04910   0.01267  Uiso   1.00
H138   H     0.87660   0.84600   0.10790   0.01267  Uiso   1.00
H139   H     0.78460   0.76280   0.01060   0.01267  Uiso   1.00
H140   H     0.79200   0.35890   0.04290   0.01267  Uiso   1.00
H141   H     0.80510   0.98610   0.81100   0.01267  Uiso   1.00
H142   H     0.06630   0.04380   0.85770   0.01267  Uiso   1.00
H143   H     0.75370   0.67370   0.04460   0.01267  Uiso   1.00
H144   H     0.11590   0.05110   0.79570   0.01267  Uiso   1.00
C121   C     0.87440   0.57031   0.51828   0.01267  Uiso   1.00
C122   C     0.88650   0.44737   0.49544   0.01267  Uiso   1.00
C123   C     0.85510   0.47226   0.42650   0.01267  Uiso   1.00
C124   C     0.89600   0.52445   0.54519   0.01267  Uiso   1.00
C125   C     0.86370   0.49290   0.46796   0.01267  Uiso   1.00
C126   C     0.85770   0.55332   0.47901   0.01267  Uiso   1.00
C127   C     0.90190   0.46254   0.53456   0.01267  Uiso   1.00
C128   C     0.40210   0.42816   0.47319   0.01267  Uiso   1.00
C129   C     0.93760   0.41646   0.56441   0.01267  Uiso   1.00
C130   C     0.37210   0.39490   0.54169   0.01267  Uiso   1.00
C131   C     0.03210   0.72030   0.60290   0.01267  Uiso   1.00
C132   C     0.36170   0.50280   0.51966   0.01267  Uiso   1.00
C133   C     0.38060   0.44280   0.51037   0.01267  Uiso   1.00
C134   C     0.33310   0.61410   0.50135   0.01267  Uiso   1.00
C135   C     0.79470   0.50673   0.36084   0.01267  Uiso   1.00
C136   C     0.35750   0.55040   0.49264   0.01267  Uiso   1.00
C137   C     0.52530   0.47250   0.22781   0.01267  Uiso   1.00
C138   C     0.93190   0.30494   0.58011   0.01267  Uiso   1.00
C139   C     0.95190   0.71283   0.57545   0.01267  Uiso   1.00
C140   C     0.78530   0.51390   0.28049   0.01267  Uiso   1.00
C141   C     0.39980   0.47510   0.44562   0.01267  Uiso   1.00
C142   C     0.87090   0.63649   0.52842   0.01267  Uiso   1.00
C143   C     0.36350   0.28270   0.55583   0.01267  Uiso   1.00
C144   C     0.01460   0.88740   0.63202   0.01267  Uiso   1.00
C145   C     0.77840   0.51610   0.23725   0.01267  Uiso   1.00
C146   C     0.05020   0.77560   0.62106   0.01267  Uiso   1.00
C147   C     0.49120   0.47770   0.26706   0.01267  Uiso   1.00
C148   C     0.82010   0.45650   0.33931   0.01267  Uiso   1.00
C149   C     0.81700   0.46020   0.30063   0.01267  Uiso   1.00
C150   C     0.37490   0.53520   0.45462   0.01267  Uiso   1.00
C151   C     0.90910   0.81800   0.58637   0.01267  Uiso   1.00
C152   C     0.98840   0.19550   0.61698   0.01267  Uiso   1.00
C153   C     0.01980   0.13450   0.63648   0.01267  Uiso   1.00
C154   C     0.43630   0.45930   0.40812   0.01267  Uiso   1.00
C155   C     0.33190   0.68690   0.55643   0.01267  Uiso   1.00
C156   C     0.43060   0.48490   0.33987   0.01267  Uiso   1.00
C157   C     0.76220   0.56050   0.34126   0.01267  Uiso   1.00
C158   C     0.40000   0.49780   0.27200   0.01267  Uiso   1.00
C159   C     0.99180   0.82650   0.61303   0.01267  Uiso   1.00
C160   C     0.75690   0.56350   0.30128   0.01267  Uiso   1.00
C161   C     0.31510   0.17800   0.59569   0.01267  Uiso   1.00
C162   C     0.29100   0.79140   0.59687   0.01267  Uiso   1.00
C163   C     0.90070   0.19960   0.59566   0.01267  Uiso   1.00
C164   C     0.33640   0.22920   0.53647   0.01267  Uiso   1.00
C165   C     0.36010   0.28400   0.59510   0.01267  Uiso   1.00
C166   C     0.87020   0.25440   0.57748   0.01267  Uiso   1.00
C167   C     0.33720   0.23180   0.61458   0.01267  Uiso   1.00
C168   C     0.32810   0.73930   0.61467   0.01267  Uiso   1.00
C169   C     0.02180   0.30110   0.60124   0.01267  Uiso   1.00
C170   C     0.04720   0.24600   0.61920   0.01267  Uiso   1.00
C171   C     0.89110   0.76280   0.56765   0.01267  Uiso   1.00
C172   C     0.26870   0.84670   0.61934   0.01267  Uiso   1.00
C173   C     0.34890   0.68910   0.59450   0.01267  Uiso   1.00
C174   C     0.29650   0.73740   0.53787   0.01267  Uiso   1.00
C175   C     0.31180   0.17770   0.55661   0.01267  Uiso   1.00
C176   C     0.36930   0.50070   0.30810   0.01267  Uiso   1.00
C177   C     0.52260   0.46640   0.33571   0.01267  Uiso   1.00
C178   C     0.28180   0.12300   0.61767   0.01267  Uiso   1.00
C179   C     0.27710   0.79030   0.55823   0.01267  Uiso   1.00
C180   C     0.55210   0.46250   0.29872   0.01267  Uiso   1.00
C181   C     0.37440   0.92969   0.01828   0.01267  Uiso   1.00
C182   C     0.38650   0.05263   0.99544   0.01267  Uiso   1.00
C183   C     0.35510   0.02774   0.92650   0.01267  Uiso   1.00
C184   C     0.39600   0.97555   0.04519   0.01267  Uiso   1.00
C185   C     0.36370   0.00710   0.96796   0.01267  Uiso   1.00
C186   C     0.35770   0.94668   0.97901   0.01267  Uiso   1.00
C187   C     0.40190   0.03746   0.03456   0.01267  Uiso   1.00
C188   C     0.90210   0.07184   0.97319   0.01267  Uiso   1.00
C189   C     0.43760   0.08354   0.06441   0.01267  Uiso   1.00
C190   C     0.87210   0.10510   0.04169   0.01267  Uiso   1.00
C191   C     0.53210   0.77970   0.10290   0.01267  Uiso   1.00
C192   C     0.86170   0.99720   0.01966   0.01267  Uiso   1.00
C193   C     0.88060   0.05720   0.01037   0.01267  Uiso   1.00
C194   C     0.83310   0.88590   0.00135   0.01267  Uiso   1.00
C195   C     0.29470   0.99327   0.86084   0.01267  Uiso   1.00
C196   C     0.85750   0.94960   0.99264   0.01267  Uiso   1.00
C197   C     0.02530   0.02750   0.72781   0.01267  Uiso   1.00
C198   C     0.43190   0.19506   0.08011   0.01267  Uiso   1.00
C199   C     0.45190   0.78717   0.07545   0.01267  Uiso   1.00
C200   C     0.28530   0.98610   0.78049   0.01267  Uiso   1.00
C201   C     0.89980   0.02490   0.94562   0.01267  Uiso   1.00
C202   C     0.37090   0.86351   0.02842   0.01267  Uiso   1.00
C203   C     0.86350   0.21730   0.05583   0.01267  Uiso   1.00
C204   C     0.51460   0.61260   0.13202   0.01267  Uiso   1.00
C205   C     0.27840   0.98390   0.73725   0.01267  Uiso   1.00
C206   C     0.55020   0.72440   0.12106   0.01267  Uiso   1.00
C207   C     0.99120   0.02230   0.76706   0.01267  Uiso   1.00
C208   C     0.32010   0.04350   0.83931   0.01267  Uiso   1.00
C209   C     0.31700   0.03980   0.80063   0.01267  Uiso   1.00
C210   C     0.87490   0.96480   0.95462   0.01267  Uiso   1.00
C211   C     0.40910   0.68200   0.08637   0.01267  Uiso   1.00
C212   C     0.48840   0.30450   0.11698   0.01267  Uiso   1.00
C213   C     0.51980   0.36550   0.13648   0.01267  Uiso   1.00
C214   C     0.93630   0.04070   0.90812   0.01267  Uiso   1.00
C215   C     0.83190   0.81310   0.05643   0.01267  Uiso   1.00
C216   C     0.93060   0.01510   0.83987   0.01267  Uiso   1.00
C217   C     0.26220   0.93950   0.84126   0.01267  Uiso   1.00
C218   C     0.90000   0.00220   0.77200   0.01267  Uiso   1.00
C219   C     0.49180   0.67350   0.11303   0.01267  Uiso   1.00
C220   C     0.25690   0.93650   0.80128   0.01267  Uiso   1.00
C221   C     0.81510   0.32200   0.09569   0.01267  Uiso   1.00
C222   C     0.79100   0.70860   0.09687   0.01267  Uiso   1.00
C223   C     0.40070   0.30040   0.09566   0.01267  Uiso   1.00
C224   C     0.83640   0.27080   0.03647   0.01267  Uiso   1.00
C225   C     0.86010   0.21600   0.09510   0.01267  Uiso   1.00
C226   C     0.37020   0.24560   0.07748   0.01267  Uiso   1.00
C227   C     0.83720   0.26820   0.11458   0.01267  Uiso   1.00
C228   C     0.82810   0.76070   0.11467   0.01267  Uiso   1.00
C229   C     0.52180   0.19890   0.10124   0.01267  Uiso   1.00
C230   C     0.54720   0.25400   0.11920   0.01267  Uiso   1.00
C231   C     0.39110   0.73720   0.06765   0.01267  Uiso   1.00
C232   C     0.76870   0.65330   0.11934   0.01267  Uiso   1.00
C233   C     0.84890   0.81090   0.09450   0.01267  Uiso   1.00
C234   C     0.79650   0.76260   0.03787   0.01267  Uiso   1.00
C235   C     0.81180   0.32230   0.05661   0.01267  Uiso   1.00
C236   C     0.86930   0.99930   0.80810   0.01267  Uiso   1.00
C237   C     0.02260   0.03360   0.83571   0.01267  Uiso   1.00
C238   C     0.78180   0.37700   0.11767   0.01267  Uiso   1.00
C239   C     0.77710   0.70970   0.05823   0.01267  Uiso   1.00
C240   C     0.05210   0.03750   0.79872   0.01267  Uiso   1.00
N13    N     0.79700   0.50787   0.40090   0.01267  Uiso   1.00
N14    N     0.93790   0.65436   0.55840   0.01267  Uiso   1.00
N15    N     0.90120   0.35957   0.55936   0.01267  Uiso   1.00
N16    N     0.35780   0.63231   0.53824   0.01267  Uiso   1.00
N17    N     0.38390   0.33515   0.53283   0.01267  Uiso   1.00
N18    N     0.39790   0.49102   0.37674   0.01267  Uiso   1.00
N19    N     0.29700   0.99213   0.90090   0.01267  Uiso   1.00
N20    N     0.43790   0.84564   0.05840   0.01267  Uiso   1.00
N21    N     0.40120   0.14043   0.05936   0.01267  Uiso   1.00
N22    N     0.85780   0.86769   0.03824   0.01267  Uiso   1.00
N23    N     0.88390   0.16485   0.03283   0.01267  Uiso   1.00
N24    N     0.89790   0.00898   0.87674   0.01267  Uiso   1.00
O39    O     0.89870   0.42656   0.41691   0.01267  Uiso   1.00
O40    O     0.99880   0.43068   0.59031   0.01267  Uiso   1.00
O41    O     0.35160   0.41130   0.57321   0.01267  Uiso   1.00
O42    O     0.16290   0.01153   0.64948   0.01267  Uiso   1.00
O43    O     0.49970   0.41989   0.40750   0.01267  Uiso   1.00
O44    O     0.81410   0.67217   0.51156   0.01267  Uiso   1.00
O45    O     0.74280   0.56356   0.22079   0.01267  Uiso   1.00
O46    O     0.97560   0.08612   0.62609   0.01267  Uiso   1.00
O47    O     0.47530   0.49616   0.19968   0.01267  Uiso   1.00
O48    O     0.29170   0.64925   0.47689   0.01267  Uiso   1.00
O49    O     0.80480   0.46783   0.22048   0.01267  Uiso   1.00
O50    O     0.96850   0.93425   0.61886   0.01267  Uiso   1.00
O51    O     0.09600   0.13935   0.65943   0.01267  Uiso   1.00
O52    O     0.08120   0.89134   0.65966   0.01267  Uiso   1.00
O53    O     0.60490   0.44529   0.22599   0.01267  Uiso   1.00
O54    O     0.23440   0.89380   0.60299   0.01267  Uiso   1.00
O55    O     0.28110   0.84462   0.65570   0.01267  Uiso   1.00
O56    O     0.29740   0.12392   0.65334   0.01267  Uiso   1.00
O57    O     0.23990   0.08020   0.59641   0.01267  Uiso   1.00
O58    O     0.39870   0.07344   0.91691   0.01267  Uiso   1.00
O59    O     0.49880   0.06932   0.09031   0.01267  Uiso   1.00
O60    O     0.85160   0.08870   0.07321   0.01267  Uiso   1.00
O61    O     0.66290   0.48847   0.14948   0.01267  Uiso   1.00
O62    O     0.99970   0.08011   0.90750   0.01267  Uiso   1.00
O63    O     0.31410   0.82783   0.01156   0.01267  Uiso   1.00
O64    O     0.24280   0.93644   0.72079   0.01267  Uiso   1.00
O65    O     0.47560   0.41388   0.12609   0.01267  Uiso   1.00
O66    O     0.97530   0.00384   0.69968   0.01267  Uiso   1.00
O67    O     0.79170   0.85075   0.97689   0.01267  Uiso   1.00
O68    O     0.30480   0.03217   0.72048   0.01267  Uiso   1.00
O69    O     0.46850   0.56575   0.11886   0.01267  Uiso   1.00
O70    O     0.59600   0.36065   0.15943   0.01267  Uiso   1.00
O71    O     0.58120   0.60866   0.15966   0.01267  Uiso   1.00
O72    O     0.10490   0.05471   0.72599   0.01267  Uiso   1.00
O73    O     0.73440   0.60620   0.10299   0.01267  Uiso   1.00
O74    O     0.78110   0.65538   0.15570   0.01267  Uiso   1.00
O75    O     0.79740   0.37608   0.15334   0.01267  Uiso   1.00
O76    O     0.73990   0.41980   0.09641   0.01267  Uiso   1.00
