data_image0
_cell_length_a       12.7447
_cell_length_b       12.7447
_cell_length_c       10.7107
_cell_angle_alpha    90
_cell_angle_beta     90
_cell_angle_gamma    120

_symmetry_space_group_name_H-M    "P 1"
_symmetry_int_tables_number       1

loop_
  _symmetry_equiv_pos_as_xyz
  'x, y, z'

loop_
  _atom_site_label
  _atom_site_occupancy
  _atom_site_fract_x
  _atom_site_fract_y
  _atom_site_fract_z
  _atom_site_thermal_displace_type
  _atom_site_B_iso_or_equiv
  _atom_site_type_symbol
  N1       1.0000 0.46840  0.66480  0.11550  Biso   1.000  N
  C1       1.0000 0.45880  0.56640  0.43580  Biso   1.000  C
  H1       1.0000 0.42960  0.61200  0.39300  Biso   1.000  H
  C2       1.0000 0.50710  0.61430  0.16990  Biso   1.000  C
  N2       1.0000 0.33520  0.80360  0.11550  Biso   1.000  N
  C3       1.0000 0.43360  0.89240  0.43580  Biso   1.000  C
  H2       1.0000 0.38800  0.81760  0.39300  Biso   1.000  H
  C4       1.0000 0.38570  0.89280  0.16990  Biso   1.000  C
  N3       1.0000 0.19640  0.53160  0.11550  Biso   1.000  N
  C5       1.0000 0.10760  0.54120  0.43580  Biso   1.000  C
  H3       1.0000 0.18240  0.57040  0.39300  Biso   1.000  H
  C6       1.0000 0.10720  0.49290  0.16990  Biso   1.000  C
  N4       1.0000 0.33520  0.53160  0.88450  Biso   1.000  N
  C7       1.0000 0.43360  0.54120  0.56420  Biso   1.000  C
  H4       1.0000 0.38800  0.57040  0.60700  Biso   1.000  H
  C8       1.0000 0.38570  0.49290  0.83010  Biso   1.000  C
  N5       1.0000 0.19640  0.66480  0.88450  Biso   1.000  N
  C9       1.0000 0.10760  0.56640  0.56420  Biso   1.000  C
  H5       1.0000 0.18240  0.61200  0.60700  Biso   1.000  H
  C10      1.0000 0.10720  0.61430  0.83010  Biso   1.000  C
  N6       1.0000 0.46840  0.80360  0.88450  Biso   1.000  N
  C11      1.0000 0.45880  0.89240  0.56420  Biso   1.000  C
  H6       1.0000 0.42960  0.81760  0.60700  Biso   1.000  H
  C12      1.0000 0.50710  0.89280  0.83010  Biso   1.000  C
  N7       1.0000 0.53160  0.33520  0.88450  Biso   1.000  N
  C13      1.0000 0.54120  0.43360  0.56420  Biso   1.000  C
  H7       1.0000 0.57040  0.38800  0.60700  Biso   1.000  H
  C14      1.0000 0.49290  0.38570  0.83010  Biso   1.000  C
  N8       1.0000 0.66480  0.19640  0.88450  Biso   1.000  N
  C15      1.0000 0.56640  0.10760  0.56420  Biso   1.000  C
  H8       1.0000 0.61200  0.18240  0.60700  Biso   1.000  H
  C16      1.0000 0.61430  0.10720  0.83010  Biso   1.000  C
  N9       1.0000 0.80360  0.46840  0.88450  Biso   1.000  N
  C17      1.0000 0.89240  0.45880  0.56420  Biso   1.000  C
  H9       1.0000 0.81760  0.42960  0.60700  Biso   1.000  H
  C18      1.0000 0.89280  0.50710  0.83010  Biso   1.000  C
  N10      1.0000 0.66480  0.46840  0.11550  Biso   1.000  N
  C19      1.0000 0.56640  0.45880  0.43580  Biso   1.000  C
  H10      1.0000 0.61200  0.42960  0.39300  Biso   1.000  H
  C20      1.0000 0.61430  0.50710  0.16990  Biso   1.000  C
  N11      1.0000 0.80360  0.33520  0.11550  Biso   1.000  N
  C21      1.0000 0.89240  0.43360  0.43580  Biso   1.000  C
  H11      1.0000 0.81760  0.38800  0.39300  Biso   1.000  H
  C22      1.0000 0.89280  0.38570  0.16990  Biso   1.000  C
  N12      1.0000 0.53160  0.19640  0.11550  Biso   1.000  N
  C23      1.0000 0.54120  0.10760  0.43580  Biso   1.000  C
  H12      1.0000 0.57040  0.18240  0.39300  Biso   1.000  H
  C24      1.0000 0.49290  0.10720  0.16990  Biso   1.000  C
  Zn1      1.0000 0.33333  0.66667  0.00000  Biso   1.000  Zn
  Zn2      1.0000 0.66667  0.33333  0.00000  Biso   1.000  Zn
  C25      1.0000 0.55260  0.55260  0.23740  Biso   1.000  C
  C26      1.0000 0.52550  0.52550  0.37180  Biso   1.000  C
  C27      1.0000 0.44740  0.00000  0.23740  Biso   1.000  C
  C28      1.0000 0.47450  0.00000  0.37180  Biso   1.000  C
  C29      1.0000 0.00000  0.44740  0.23740  Biso   1.000  C
  C30      1.0000 0.00000  0.47450  0.37180  Biso   1.000  C
  C31      1.0000 0.44740  0.44740  0.76260  Biso   1.000  C
  C32      1.0000 0.47450  0.47450  0.62820  Biso   1.000  C
  C33      1.0000 0.00000  0.55260  0.76260  Biso   1.000  C
  C34      1.0000 0.00000  0.52550  0.62820  Biso   1.000  C
  C35      1.0000 0.55260  0.00000  0.76260  Biso   1.000  C
  C36      1.0000 0.52550  0.00000  0.62820  Biso   1.000  C
