data_FAKLIO_clean
_audit_creation_date              2014-07-02
_audit_creation_method            'Materials Studio'
_symmetry_space_group_name_H-M    'P1'
_symmetry_Int_Tables_number       1
_symmetry_cell_setting            triclinic
loop_
_symmetry_equiv_pos_as_xyz
  x,y,z
_cell_length_a                    10.8532
_cell_length_b                    13.0158
_cell_length_c                    13.0158
_cell_angle_alpha                 120.0000
_cell_angle_beta                  90.0000
_cell_angle_gamma                 90.0000
loop_
_atom_site_label
_atom_site_type_symbol
_atom_site_fract_x
_atom_site_fract_y
_atom_site_fract_z
_atom_site_U_iso_or_equiv
_atom_site_adp_type
_atom_site_occupancy
Mn1    Mn    0.00000   0.33333   0.66666   0.01267  Uiso   1.00
Mn2    Mn    0.00000   0.66667   0.33334   0.01267  Uiso   1.00
H1     H     0.60460   0.61000   0.18020   0.01267  Uiso   1.00
H2     H     0.60460   0.57020   0.39000   0.01267  Uiso   1.00
H3     H     0.60460   0.81980   0.42980   0.01267  Uiso   1.00
H4     H     0.39540   0.57020   0.18020   0.01267  Uiso   1.00
H5     H     0.39540   0.81980   0.39000   0.01267  Uiso   1.00
H6     H     0.39540   0.61000   0.42980   0.01267  Uiso   1.00
H7     H     0.39540   0.39000   0.81980   0.01267  Uiso   1.00
H8     H     0.39540   0.42980   0.61000   0.01267  Uiso   1.00
H9     H     0.39540   0.18020   0.57020   0.01267  Uiso   1.00
H10    H     0.60460   0.42980   0.81980   0.01267  Uiso   1.00
H11    H     0.60460   0.18020   0.61000   0.01267  Uiso   1.00
H12    H     0.60460   0.39000   0.57020   0.01267  Uiso   1.00
C1     C     0.82580   0.50350   0.89500   0.01267  Uiso   1.00
C2     C     0.56230   0.56500   0.10700   0.01267  Uiso   1.00
C3     C     0.82580   0.39150   0.49650   0.01267  Uiso   1.00
C4     C     0.56230   0.54200   0.43500   0.01267  Uiso   1.00
C5     C     0.82580   0.10500   0.60850   0.01267  Uiso   1.00
C6     C     0.56230   0.89300   0.45800   0.01267  Uiso   1.00
C7     C     0.17420   0.39150   0.89500   0.01267  Uiso   1.00
C8     C     0.43770   0.54200   0.10700   0.01267  Uiso   1.00
C9     C     0.17420   0.10500   0.49650   0.01267  Uiso   1.00
C10    C     0.43770   0.89300   0.43500   0.01267  Uiso   1.00
C11    C     0.17420   0.50350   0.60850   0.01267  Uiso   1.00
C12    C     0.43770   0.56500   0.45800   0.01267  Uiso   1.00
C13    C     0.17420   0.49650   0.10500   0.01267  Uiso   1.00
C14    C     0.43770   0.43500   0.89300   0.01267  Uiso   1.00
C15    C     0.17420   0.60850   0.50350   0.01267  Uiso   1.00
C16    C     0.43770   0.45800   0.56500   0.01267  Uiso   1.00
C17    C     0.17420   0.89500   0.39150   0.01267  Uiso   1.00
C18    C     0.43770   0.10700   0.54200   0.01267  Uiso   1.00
C19    C     0.82580   0.60850   0.10500   0.01267  Uiso   1.00
C20    C     0.56230   0.45800   0.89300   0.01267  Uiso   1.00
C21    C     0.82580   0.89500   0.50350   0.01267  Uiso   1.00
C22    C     0.56230   0.10700   0.56500   0.01267  Uiso   1.00
C23    C     0.82580   0.49650   0.39150   0.01267  Uiso   1.00
C24    C     0.56230   0.43500   0.54200   0.01267  Uiso   1.00
C25    C     0.76050   0.54600   0.00000   0.01267  Uiso   1.00
C26    C     0.62640   0.52230   0.00000   0.01267  Uiso   1.00
C27    C     0.76050   0.45400   0.45400   0.01267  Uiso   1.00
C28    C     0.62640   0.47770   0.47770   0.01267  Uiso   1.00
C29    C     0.76050   0.00000   0.54600   0.01267  Uiso   1.00
C30    C     0.62640   0.00000   0.52230   0.01267  Uiso   1.00
C31    C     0.23950   0.45400   0.00000   0.01267  Uiso   1.00
C32    C     0.37360   0.47770  -0.00000   0.01267  Uiso   1.00
C33    C     0.23950   0.00000   0.45400   0.01267  Uiso   1.00
C34    C     0.37360   0.00000   0.47770   0.01267  Uiso   1.00
C35    C     0.23950   0.54600   0.54600   0.01267  Uiso   1.00
C36    C     0.37360   0.52230   0.52230   0.01267  Uiso   1.00
N1     N     0.88000   0.46760   0.80700   0.01267  Uiso   1.00
N2     N     0.88000   0.33940   0.53240   0.01267  Uiso   1.00
N3     N     0.88000   0.19300   0.66060   0.01267  Uiso   1.00
N4     N     0.12000   0.33940   0.80700   0.01267  Uiso   1.00
N5     N     0.12000   0.19300   0.53240   0.01267  Uiso   1.00
N6     N     0.12000   0.46760   0.66060   0.01267  Uiso   1.00
N7     N     0.12000   0.53240   0.19300   0.01267  Uiso   1.00
N8     N     0.12000   0.66060   0.46760   0.01267  Uiso   1.00
N9     N     0.12000   0.80700   0.33940   0.01267  Uiso   1.00
N10    N     0.88000   0.66060   0.19300   0.01267  Uiso   1.00
N11    N     0.88000   0.80700   0.46760   0.01267  Uiso   1.00
N12    N     0.88000   0.53240   0.33940   0.01267  Uiso   1.00
