data_FAKLOU_clean
_audit_creation_date              2014-07-02
_audit_creation_method            'Materials Studio'
_symmetry_space_group_name_H-M    'P1'
_symmetry_Int_Tables_number       1
_symmetry_cell_setting            triclinic
loop_
_symmetry_equiv_pos_as_xyz
  x,y,z
_cell_length_a                    10.8818
_cell_length_b                    12.9515
_cell_length_c                    12.9515
_cell_angle_alpha                 120.0000
_cell_angle_beta                  90.0000
_cell_angle_gamma                 90.0000
loop_
_atom_site_label
_atom_site_type_symbol
_atom_site_fract_x
_atom_site_fract_y
_atom_site_fract_z
_atom_site_U_iso_or_equiv
_atom_site_adp_type
_atom_site_occupancy
Cd1    Cd    0.50000   0.66667   0.33334   0.01267  Uiso   1.00
Cd2    Cd    0.50000   0.33333   0.66666   0.01267  Uiso   1.00
H1     H     0.89730   0.56660   0.17890   0.01267  Uiso   1.00
H2     H     0.89730   0.61230   0.43340   0.01267  Uiso   1.00
H3     H     0.89730   0.82110   0.38770   0.01267  Uiso   1.00
H4     H     0.10270   0.61230   0.17890   0.01267  Uiso   1.00
H5     H     0.10270   0.82110   0.43340   0.01267  Uiso   1.00
H6     H     0.10270   0.56660   0.38770   0.01267  Uiso   1.00
H7     H     0.10270   0.43340   0.82110   0.01267  Uiso   1.00
H8     H     0.10270   0.38770   0.56660   0.01267  Uiso   1.00
H9     H     0.10270   0.17890   0.61230   0.01267  Uiso   1.00
H10    H     0.89730   0.38770   0.82110   0.01267  Uiso   1.00
H11    H     0.89730   0.17890   0.56660   0.01267  Uiso   1.00
H12    H     0.89730   0.43340   0.61230   0.01267  Uiso   1.00
C1     C     0.93850   0.53860   0.10490   0.01267  Uiso   1.00
C2     C     0.67800   0.48440   0.10610   0.01267  Uiso   1.00
C3     C     0.93850   0.56630   0.46140   0.01267  Uiso   1.00
C4     C     0.67800   0.62170   0.51560   0.01267  Uiso   1.00
C5     C     0.93850   0.89510   0.43370   0.01267  Uiso   1.00
C6     C     0.67800   0.89390   0.37830   0.01267  Uiso   1.00
C7     C     0.06150   0.56630   0.10490   0.01267  Uiso   1.00
C8     C     0.32200   0.62170   0.10610   0.01267  Uiso   1.00
C9     C     0.06150   0.89510   0.46140   0.01267  Uiso   1.00
C10    C     0.32200   0.89390   0.51560   0.01267  Uiso   1.00
C11    C     0.06150   0.53860   0.43370   0.01267  Uiso   1.00
C12    C     0.32200   0.48440   0.37830   0.01267  Uiso   1.00
C13    C     0.06150   0.46140   0.89510   0.01267  Uiso   1.00
C14    C     0.32200   0.51560   0.89390   0.01267  Uiso   1.00
C15    C     0.06150   0.43370   0.53860   0.01267  Uiso   1.00
C16    C     0.32200   0.37830   0.48440   0.01267  Uiso   1.00
C17    C     0.06150   0.10490   0.56630   0.01267  Uiso   1.00
C18    C     0.32200   0.10610   0.62170   0.01267  Uiso   1.00
C19    C     0.93850   0.43370   0.89510   0.01267  Uiso   1.00
C20    C     0.67800   0.37830   0.89390   0.01267  Uiso   1.00
C21    C     0.93850   0.10490   0.53860   0.01267  Uiso   1.00
C22    C     0.67800   0.10610   0.48440   0.01267  Uiso   1.00
C23    C     0.93850   0.46140   0.56630   0.01267  Uiso   1.00
C24    C     0.67800   0.51560   0.62170   0.01267  Uiso   1.00
C25    C     0.74360   0.44190   0.00000   0.01267  Uiso   1.00
C26    C     0.87420   0.47130  -0.00000   0.01267  Uiso   1.00
C27    C     0.74360   0.55810   0.55810   0.01267  Uiso   1.00
C28    C     0.87420   0.52870   0.52870   0.01267  Uiso   1.00
C29    C     0.74360   0.00000   0.44190   0.01267  Uiso   1.00
C30    C     0.87420  -0.00000   0.47130   0.01267  Uiso   1.00
C31    C     0.25640   0.55810   0.00000   0.01267  Uiso   1.00
C32    C     0.12580   0.52870  -0.00000   0.01267  Uiso   1.00
C33    C     0.25640   0.00000   0.55810   0.01267  Uiso   1.00
C34    C     0.12580   0.00000   0.52870   0.01267  Uiso   1.00
C35    C     0.25640   0.44190   0.44190   0.01267  Uiso   1.00
C36    C     0.12580   0.47130   0.47130   0.01267  Uiso   1.00
N1     N     0.62420   0.51800   0.19200   0.01267  Uiso   1.00
N2     N     0.62420   0.67400   0.48200   0.01267  Uiso   1.00
N3     N     0.62420   0.80800   0.32600   0.01267  Uiso   1.00
N4     N     0.37580   0.67400   0.19200   0.01267  Uiso   1.00
N5     N     0.37580   0.80800   0.48200   0.01267  Uiso   1.00
N6     N     0.37580   0.51800   0.32600   0.01267  Uiso   1.00
N7     N     0.37580   0.48200   0.80800   0.01267  Uiso   1.00
N8     N     0.37580   0.32600   0.51800   0.01267  Uiso   1.00
N9     N     0.37580   0.19200   0.67400   0.01267  Uiso   1.00
N10    N     0.62420   0.32600   0.80800   0.01267  Uiso   1.00
N11    N     0.62420   0.19200   0.51800   0.01267  Uiso   1.00
N12    N     0.62420   0.48200   0.67400   0.01267  Uiso   1.00
