data_image0
_cell_length_a       14.5356
_cell_length_b       15.8989
_cell_length_c       17.2554
_cell_angle_alpha    112.547
_cell_angle_beta     111.545
_cell_angle_gamma    95.787

_symmetry_space_group_name_H-M    "P 1"
_symmetry_int_tables_number       1

loop_
  _symmetry_equiv_pos_as_xyz
  'x, y, z'

loop_
  _atom_site_label
  _atom_site_occupancy
  _atom_site_fract_x
  _atom_site_fract_y
  _atom_site_fract_z
  _atom_site_thermal_displace_type
  _atom_site_B_iso_or_equiv
  _atom_site_type_symbol
  C1       1.0000 0.53480  0.70890  0.63870  Biso   1.000  C
  C2       1.0000 0.54680  0.85230  0.75600  Biso   1.000  C
  H1       1.0000 0.50950  0.81440  0.77030  Biso   1.000  H
  C3       1.0000 0.58360  0.94470  0.80760  Biso   1.000  C
  C4       1.0000 0.66090  0.00380  0.80810  Biso   1.000  C
  H2       1.0000 0.68560  0.98020  0.76370  Biso   1.000  H
  C5       1.0000 0.70120  0.09780  0.87460  Biso   1.000  C
  H3       1.0000 0.75300  0.13750  0.87490  Biso   1.000  H
  C6       1.0000 0.66480  0.13260  0.94040  Biso   1.000  C
  C7       1.0000 0.58800  0.07430  0.94030  Biso   1.000  C
  H4       1.0000 0.56300  0.09850  0.98440  Biso   1.000  H
  C8       1.0000 0.54760  0.97930  0.87430  Biso   1.000  C
  H5       1.0000 0.49680  0.93930  0.87490  Biso   1.000  H
  C9       1.0000 0.70140  0.24040  0.00750  Biso   1.000  C
  C10      1.0000 0.38120  0.61210  0.50760  Biso   1.000  C
  H6       1.0000 0.42230  0.57700  0.48690  Biso   1.000  H
  C11      1.0000 0.28600  0.60090  0.44880  Biso   1.000  C
  C12      1.0000 0.23260  0.66900  0.46010  Biso   1.000  C
  H7       1.0000 0.26410  0.72820  0.51210  Biso   1.000  H
  C13      1.0000 0.13250  0.64910  0.39400  Biso   1.000  C
  H8       1.0000 0.09770  0.69550  0.40190  Biso   1.000  H
  C14      1.0000 0.08370  0.56080  0.31650  Biso   1.000  C
  C15      1.0000 0.13790  0.49210  0.30580  Biso   1.000  C
  H9       1.0000 0.10640  0.43240  0.25440  Biso   1.000  H
  C16      1.0000 0.23710  0.51250  0.37080  Biso   1.000  C
  H10      1.0000 0.27220  0.46640  0.36270  Biso   1.000  H
  C17      1.0000 0.97860  0.55280  0.26020  Biso   1.000  C
  C18      1.0000 0.62900  0.65550  0.75270  Biso   1.000  C
  H11      1.0000 0.68740  0.68360  0.75140  Biso   1.000  H
  C19      1.0000 0.63460  0.61580  0.80330  Biso   1.000  C
  C20      1.0000 0.73960  0.62310  0.86230  Biso   1.000  C
  H12      1.0000 0.79560  0.65470  0.86040  Biso   1.000  H
  C21      1.0000 0.75300  0.58150  0.92110  Biso   1.000  C
  H13      1.0000 0.81970  0.58700  0.96100  Biso   1.000  H
  C22      1.0000 0.67190  0.53250  0.92270  Biso   1.000  C
  C23      1.0000 0.57250  0.52280  0.86860  Biso   1.000  C
  H14      1.0000 0.51860  0.49130  0.87310  Biso   1.000  H
  C24      1.0000 0.55270  0.56250  0.80420  Biso   1.000  C
  H15      1.0000 0.48530  0.55280  0.76290  Biso   1.000  H
  C25      1.0000 0.69250  0.49210  0.98620  Biso   1.000  C
  C26      1.0000 0.59190  0.70610  0.53590  Biso   1.000  C
  H16      1.0000 0.57680  0.76410  0.55050  Biso   1.000  H
  C27      1.0000 0.62420  0.66480  0.46340  Biso   1.000  C
  C28      1.0000 0.63250  0.57420  0.43820  Biso   1.000  C
  H17      1.0000 0.61500  0.53950  0.46610  Biso   1.000  H
  C29      1.0000 0.66690  0.53420  0.37110  Biso   1.000  C
  H18      1.0000 0.67430  0.47320  0.35540  Biso   1.000  H
  C30      1.0000 0.69020  0.58410  0.32740  Biso   1.000  C
  C31      1.0000 0.68120  0.67480  0.35400  Biso   1.000  C
  H19      1.0000 0.69830  0.70930  0.32580  Biso   1.000  H
  C32      1.0000 0.64770  0.71690  0.42090  Biso   1.000  C
  H20      1.0000 0.64110  0.77810  0.43710  Biso   1.000  H
  C33      1.0000 0.71730  0.54010  0.24650  Biso   1.000  C
  C34      1.0000 0.71720  0.76700  0.07470  Biso   1.000  C
  C35      1.0000 0.80340  0.82220  0.08240  Biso   1.000  C
  H21      1.0000 0.86900  0.82310  0.11960  Biso   1.000  H
  C36      1.0000 0.79110  0.87670  0.03370  Biso   1.000  C
  H22      1.0000 0.84860  0.91400  0.03870  Biso   1.000  H
  C37      1.0000 0.69300  0.87460  0.97830  Biso   1.000  C
  H23      1.0000 0.68470  0.91050  0.94580  Biso   1.000  H
  C38      1.0000 0.60760  0.81960  0.97090  Biso   1.000  C
  H24      1.0000 0.54210  0.81870  0.93320  Biso   1.000  H
  C39      1.0000 0.61810  0.76560  0.01890  Biso   1.000  C
  C40      1.0000 0.60690  0.67480  0.08580  Biso   1.000  C
  H25      1.0000 0.57690  0.63200  0.10020  Biso   1.000  H
  Cd1      1.0000 0.76231  0.42209  0.11116  Biso   1.000  Cd
  Cd2      1.0000 0.82943  0.66152  0.18644  Biso   1.000  Cd
  N1       1.0000 0.70760  0.70690  0.11600  Biso   1.000  N
  N2       1.0000 0.55310  0.71290  0.03090  Biso   1.000  N
  O1       1.0000 0.56660  0.81510  0.67970  Biso   1.000  O
  O2       1.0000 0.78210  0.29180  0.01600  Biso   1.000  O
  O3       1.0000 0.64940  0.27510  0.04700  Biso   1.000  O
  O4       1.0000 0.42040  0.68150  0.60650  Biso   1.000  O
  O5       1.0000 0.93000  0.46110  0.19330  Biso   1.000  O
  O6       1.0000 0.93540  0.61000  0.26840  Biso   1.000  O
  O7       1.0000 0.52580  0.65590  0.69510  Biso   1.000  O
  O8       1.0000 0.62570  0.43390  0.97860  Biso   1.000  O
  O9       1.0000 0.78030  0.51660  0.04850  Biso   1.000  O
  O10      1.0000 0.58490  0.65170  0.58290  Biso   1.000  O
  O11      1.0000 0.73910  0.46280  0.23140  Biso   1.000  O
  O12      1.0000 0.70740  0.58860  0.20160  Biso   1.000  O
  C41      1.0000 0.46520  0.29110  0.36130  Biso   1.000  C
  C42      1.0000 0.45320  0.14770  0.24400  Biso   1.000  C
  H26      1.0000 0.49050  0.18560  0.22970  Biso   1.000  H
  C43      1.0000 0.41640  0.05530  0.19240  Biso   1.000  C
  C44      1.0000 0.33910  0.99620  0.19190  Biso   1.000  C
  H27      1.0000 0.31440  0.01980  0.23630  Biso   1.000  H
  C45      1.0000 0.29880  0.90220  0.12540  Biso   1.000  C
  H28      1.0000 0.24700  0.86250  0.12510  Biso   1.000  H
  C46      1.0000 0.33520  0.86740  0.05960  Biso   1.000  C
  C47      1.0000 0.41200  0.92570  0.05970  Biso   1.000  C
  H29      1.0000 0.43700  0.90150  0.01560  Biso   1.000  H
  C48      1.0000 0.45240  0.02070  0.12570  Biso   1.000  C
  H30      1.0000 0.50320  0.06070  0.12510  Biso   1.000  H
  C49      1.0000 0.29860  0.75960  0.99250  Biso   1.000  C
  C50      1.0000 0.61880  0.38790  0.49240  Biso   1.000  C
  H31      1.0000 0.57770  0.42300  0.51310  Biso   1.000  H
  C51      1.0000 0.71400  0.39910  0.55120  Biso   1.000  C
  C52      1.0000 0.76740  0.33100  0.53990  Biso   1.000  C
  H32      1.0000 0.73590  0.27180  0.48790  Biso   1.000  H
  C53      1.0000 0.86750  0.35090  0.60600  Biso   1.000  C
  H33      1.0000 0.90230  0.30450  0.59810  Biso   1.000  H
  C54      1.0000 0.91630  0.43920  0.68350  Biso   1.000  C
  C55      1.0000 0.86210  0.50790  0.69420  Biso   1.000  C
  H34      1.0000 0.89360  0.56760  0.74560  Biso   1.000  H
  C56      1.0000 0.76290  0.48750  0.62920  Biso   1.000  C
  H35      1.0000 0.72780  0.53360  0.63730  Biso   1.000  H
  C57      1.0000 0.02140  0.44720  0.73980  Biso   1.000  C
  C58      1.0000 0.37100  0.34450  0.24730  Biso   1.000  C
  H36      1.0000 0.31260  0.31640  0.24860  Biso   1.000  H
  C59      1.0000 0.36540  0.38420  0.19670  Biso   1.000  C
  C60      1.0000 0.26040  0.37690  0.13770  Biso   1.000  C
  H37      1.0000 0.20440  0.34530  0.13960  Biso   1.000  H
  C61      1.0000 0.24700  0.41850  0.07890  Biso   1.000  C
  H38      1.0000 0.18030  0.41300  0.03900  Biso   1.000  H
  C62      1.0000 0.32810  0.46750  0.07730  Biso   1.000  C
  C63      1.0000 0.42750  0.47720  0.13140  Biso   1.000  C
  H39      1.0000 0.48140  0.50870  0.12690  Biso   1.000  H
  C64      1.0000 0.44730  0.43750  0.19580  Biso   1.000  C
  H40      1.0000 0.51470  0.44720  0.23710  Biso   1.000  H
  C65      1.0000 0.30750  0.50790  0.01380  Biso   1.000  C
  C66      1.0000 0.40810  0.29390  0.46410  Biso   1.000  C
  H41      1.0000 0.42320  0.23590  0.44950  Biso   1.000  H
  C67      1.0000 0.37580  0.33520  0.53660  Biso   1.000  C
  C68      1.0000 0.36750  0.42580  0.56180  Biso   1.000  C
  H42      1.0000 0.38500  0.46050  0.53390  Biso   1.000  H
  C69      1.0000 0.33310  0.46580  0.62890  Biso   1.000  C
  H43      1.0000 0.32570  0.52680  0.64460  Biso   1.000  H
  C70      1.0000 0.30980  0.41590  0.67260  Biso   1.000  C
  C71      1.0000 0.31880  0.32520  0.64600  Biso   1.000  C
  H44      1.0000 0.30170  0.29070  0.67420  Biso   1.000  H
  C72      1.0000 0.35230  0.28310  0.57910  Biso   1.000  C
  H45      1.0000 0.35890  0.22190  0.56290  Biso   1.000  H
  C73      1.0000 0.28270  0.45990  0.75350  Biso   1.000  C
  C74      1.0000 0.28280  0.23300  0.92530  Biso   1.000  C
  C75      1.0000 0.19660  0.17780  0.91760  Biso   1.000  C
  H46      1.0000 0.13100  0.17690  0.88040  Biso   1.000  H
  C76      1.0000 0.20890  0.12330  0.96630  Biso   1.000  C
  H47      1.0000 0.15140  0.08600  0.96130  Biso   1.000  H
  C77      1.0000 0.30700  0.12540  0.02170  Biso   1.000  C
  H48      1.0000 0.31530  0.08950  0.05420  Biso   1.000  H
  C78      1.0000 0.39240  0.18040  0.02910  Biso   1.000  C
  H49      1.0000 0.45790  0.18130  0.06680  Biso   1.000  H
  C79      1.0000 0.38190  0.23440  0.98110  Biso   1.000  C
  C80      1.0000 0.39310  0.32520  0.91420  Biso   1.000  C
  H50      1.0000 0.42310  0.36800  0.89980  Biso   1.000  H
  Cd3      1.0000 0.23769  0.57791  0.88884  Biso   1.000  Cd
  Cd4      1.0000 0.17057  0.33848  0.81356  Biso   1.000  Cd
  N3       1.0000 0.29240  0.29310  0.88400  Biso   1.000  N
  N4       1.0000 0.44690  0.28710  0.96910  Biso   1.000  N
  O13      1.0000 0.43340  0.18490  0.32030  Biso   1.000  O
  O14      1.0000 0.21790  0.70820  0.98400  Biso   1.000  O
  O15      1.0000 0.35060  0.72490  0.95300  Biso   1.000  O
  O16      1.0000 0.57960  0.31850  0.39350  Biso   1.000  O
  O17      1.0000 0.07000  0.53890  0.80670  Biso   1.000  O
  O18      1.0000 0.06460  0.39000  0.73160  Biso   1.000  O
  O19      1.0000 0.47420  0.34410  0.30490  Biso   1.000  O
  O20      1.0000 0.37430  0.56610  0.02140  Biso   1.000  O
  O21      1.0000 0.21970  0.48340  0.95150  Biso   1.000  O
  O22      1.0000 0.41510  0.34830  0.41710  Biso   1.000  O
  O23      1.0000 0.26090  0.53720  0.76860  Biso   1.000  O
  O24      1.0000 0.29260  0.41140  0.79840  Biso   1.000  O
