data_image0
_cell_length_a       9.3663
_cell_length_b       34.9276
_cell_length_c       17.1862
_cell_angle_alpha    90
_cell_angle_beta     99.356
_cell_angle_gamma    90

_symmetry_space_group_name_H-M    "P 1"
_symmetry_int_tables_number       1

loop_
  _symmetry_equiv_pos_as_xyz
  'x, y, z'

loop_
  _atom_site_label
  _atom_site_occupancy
  _atom_site_fract_x
  _atom_site_fract_y
  _atom_site_fract_z
  _atom_site_thermal_displace_type
  _atom_site_B_iso_or_equiv
  _atom_site_type_symbol
  C1       1.0000 0.32940  0.01798  0.54690  Biso   1.000  C
  C2       1.0000 0.23770  0.99475  0.49390  Biso   1.000  C
  C3       1.0000 0.12930  0.01124  0.43870  Biso   1.000  C
  C4       1.0000 0.11320  0.05068  0.43630  Biso   1.000  C
  C5       1.0000 0.19980  0.07323  0.49120  Biso   1.000  C
  C6       1.0000 0.30510  0.05702  0.54800  Biso   1.000  C
  C7       1.0000 0.39280  0.08270  0.61150  Biso   1.000  C
  H1       1.0000 0.44980  0.06690  0.65050  Biso   1.000  H
  H2       1.0000 0.32770  0.09800  0.63610  Biso   1.000  H
  H3       1.0000 0.45540  0.09910  0.58740  Biso   1.000  H
  C8       1.0000 0.45320  0.00001  0.60140  Biso   1.000  C
  H4       1.0000 0.49580  0.97950  0.57480  Biso   1.000  H
  H5       1.0000 0.52740  0.01890  0.61880  Biso   1.000  H
  C9       1.0000 0.26090  0.95099  0.49700  Biso   1.000  C
  H6       1.0000 0.33230  0.94460  0.54180  Biso   1.000  H
  H7       1.0000 0.29360  0.94270  0.44960  Biso   1.000  H
  H8       1.0000 0.17130  0.93850  0.50150  Biso   1.000  H
  C10      1.0000 0.02890  0.98551  0.38440  Biso   1.000  C
  H9       1.0000 0.98870  0.96570  0.41400  Biso   1.000  H
  H10      1.0000 0.95010  0.00010  0.35480  Biso   1.000  H
  C11      1.0000 0.99620  0.06939  0.37480  Biso   1.000  C
  H11      1.0000 0.98210  0.09550  0.38960  Biso   1.000  H
  H12      1.0000 0.90700  0.05550  0.37240  Biso   1.000  H
  H13      1.0000 0.02640  0.06890  0.32400  Biso   1.000  H
  C12      1.0000 0.17950  0.11695  0.48870  Biso   1.000  C
  H14      1.0000 0.26520  0.13050  0.51400  Biso   1.000  H
  H15      1.0000 0.15020  0.12650  0.43550  Biso   1.000  H
  C13      1.0000 0.47790  0.95989  0.71560  Biso   1.000  C
  C14      1.0000 0.41290  0.94020  0.77020  Biso   1.000  C
  H16      1.0000 0.31610  0.94460  0.77340  Biso   1.000  H
  C15      1.0000 0.49130  0.91407  0.81980  Biso   1.000  C
  H17      1.0000 0.44840  0.90200  0.85840  Biso   1.000  H
  C16      1.0000 0.63380  0.90550  0.81300  Biso   1.000  C
  C17      1.0000 0.69590  0.92456  0.75920  Biso   1.000  C
  H18      1.0000 0.79090  0.91880  0.75420  Biso   1.000  H
  C18      1.0000 0.62140  0.95284  0.71020  Biso   1.000  C
  H19      1.0000 0.66750  0.96650  0.67500  Biso   1.000  H
  C19      1.0000 0.71650  0.87644  0.86430  Biso   1.000  C
  C20      1.0000 0.05580  0.94147  0.27970  Biso   1.000  C
  C21      1.0000 0.14930  0.92258  0.23770  Biso   1.000  C
  H20      1.0000 0.24780  0.92810  0.24710  Biso   1.000  H
  C22      1.0000 0.09520  0.89545  0.18150  Biso   1.000  C
  H21      1.0000 0.15770  0.88270  0.15350  Biso   1.000  H
  C23      1.0000 0.94770  0.88728  0.16710  Biso   1.000  C
  C24      1.0000 0.85720  0.90584  0.21190  Biso   1.000  C
  H22      1.0000 0.75920  0.89990  0.20420  Biso   1.000  H
  C25      1.0000 0.91150  0.93307  0.26770  Biso   1.000  C
  H23      1.0000 0.85000  0.94550  0.29680  Biso   1.000  H
  C26      1.0000 0.88480  0.85997  0.10280  Biso   1.000  C
  C27      1.0000 0.00860  0.15547  0.55220  Biso   1.000  C
  C28      1.0000 0.91890  0.15891  0.60790  Biso   1.000  C
  H24      1.0000 0.90790  0.13860  0.64140  Biso   1.000  H
  C29      1.0000 0.84510  0.19295  0.61360  Biso   1.000  C
  H25      1.0000 0.78380  0.19530  0.65080  Biso   1.000  H
  C30      1.0000 0.86160  0.22352  0.56410  Biso   1.000  C
  C31      1.0000 0.96090  0.22080  0.51530  Biso   1.000  C
  H26      1.0000 0.97890  0.24200  0.48550  Biso   1.000  H
  C32      1.0000 0.03610  0.18732  0.50870  Biso   1.000  C
  H27      1.0000 0.10480  0.18610  0.47530  Biso   1.000  H
  C33      1.0000 0.77260  0.25857  0.56810  Biso   1.000  C
  C34      1.0000 0.24620  0.81499  0.97130  Biso   1.000  C
  H28      1.0000 0.24460  0.81420  0.02530  Biso   1.000  H
  C35      1.0000 0.17440  0.81657  0.84590  Biso   1.000  C
  C36      1.0000 0.10010  0.81963  0.76730  Biso   1.000  C
  H29      1.0000 0.99980  0.82170  0.75690  Biso   1.000  H
  C37      1.0000 0.18090  0.81952  0.70610  Biso   1.000  C
  H30      1.0000 0.13360  0.82070  0.65420  Biso   1.000  H
  C38      1.0000 0.33690  0.81753  0.72200  Biso   1.000  C
  H31      1.0000 0.38920  0.81770  0.68040  Biso   1.000  H
  C39      1.0000 0.40920  0.81533  0.79930  Biso   1.000  C
  H32      1.0000 0.50950  0.81340  0.81040  Biso   1.000  H
  C40      1.0000 0.32630  0.81611  0.85950  Biso   1.000  C
  Cd1      1.0000 0.57087  0.83199  0.01467  Biso   1.000  Cd
  Cd2      1.0000 0.90322  0.82066  0.94028  Biso   1.000  Cd
  N1       1.0000 0.37030  0.81510  0.94063  Biso   1.000  N
  N2       1.0000 0.12410  0.81605  0.91680  Biso   1.000  N
  O1       1.0000 0.67050  0.86577  0.92475  Biso   1.000  O
  O2       1.0000 0.83200  0.86450  0.84792  Biso   1.000  O
  O3       1.0000 0.39270  0.98491  0.66920  Biso   1.000  O
  O4       1.0000 0.96680  0.84961  0.05701  Biso   1.000  O
  O5       1.0000 0.75870  0.84939  0.10320  Biso   1.000  O
  O6       1.0000 0.12110  0.96855  0.33098  Biso   1.000  O
  O7       1.0000 0.77560  0.28369  0.51548  Biso   1.000  O
  O8       1.0000 0.69480  0.26233  0.61875  Biso   1.000  O
  O9       1.0000 0.05890  0.11838  0.53646  Biso   1.000  O
  C41      1.0000 0.17060  0.51798  0.95310  Biso   1.000  C
  C42      1.0000 0.26230  0.49475  0.00610  Biso   1.000  C
  C43      1.0000 0.37070  0.51124  0.06130  Biso   1.000  C
  C44      1.0000 0.38680  0.55068  0.06370  Biso   1.000  C
  C45      1.0000 0.30020  0.57323  0.00880  Biso   1.000  C
  C46      1.0000 0.19490  0.55702  0.95200  Biso   1.000  C
  C47      1.0000 0.10720  0.58270  0.88850  Biso   1.000  C
  H33      1.0000 0.05020  0.56690  0.84950  Biso   1.000  H
  H34      1.0000 0.17230  0.59800  0.86390  Biso   1.000  H
  H35      1.0000 0.04460  0.59910  0.91260  Biso   1.000  H
  C48      1.0000 0.04680  0.50001  0.89860  Biso   1.000  C
  H36      1.0000 0.00420  0.47950  0.92520  Biso   1.000  H
  H37      1.0000 0.97260  0.51890  0.88120  Biso   1.000  H
  C49      1.0000 0.23910  0.45099  0.00300  Biso   1.000  C
  H38      1.0000 0.16770  0.44460  0.95820  Biso   1.000  H
  H39      1.0000 0.20640  0.44270  0.05040  Biso   1.000  H
  H40      1.0000 0.32870  0.43850  0.99850  Biso   1.000  H
  C50      1.0000 0.47110  0.48551  0.11560  Biso   1.000  C
  H41      1.0000 0.51130  0.46570  0.08600  Biso   1.000  H
  H42      1.0000 0.54990  0.50010  0.14520  Biso   1.000  H
  C51      1.0000 0.50380  0.56939  0.12520  Biso   1.000  C
  H43      1.0000 0.51790  0.59550  0.11040  Biso   1.000  H
  H44      1.0000 0.59300  0.55550  0.12760  Biso   1.000  H
  H45      1.0000 0.47360  0.56890  0.17600  Biso   1.000  H
  C52      1.0000 0.32050  0.61695  0.01130  Biso   1.000  C
  H46      1.0000 0.23480  0.63050  0.98600  Biso   1.000  H
  H47      1.0000 0.34980  0.62650  0.06450  Biso   1.000  H
  C53      1.0000 0.02210  0.45989  0.78440  Biso   1.000  C
  C54      1.0000 0.08710  0.44020  0.72980  Biso   1.000  C
  H48      1.0000 0.18390  0.44460  0.72660  Biso   1.000  H
  C55      1.0000 0.00870  0.41407  0.68020  Biso   1.000  C
  H49      1.0000 0.05160  0.40200  0.64160  Biso   1.000  H
  C56      1.0000 0.86620  0.40550  0.68700  Biso   1.000  C
  C57      1.0000 0.80410  0.42456  0.74080  Biso   1.000  C
  H50      1.0000 0.70910  0.41880  0.74580  Biso   1.000  H
  C58      1.0000 0.87860  0.45284  0.78980  Biso   1.000  C
  H51      1.0000 0.83250  0.46650  0.82500  Biso   1.000  H
  C59      1.0000 0.78350  0.37644  0.63570  Biso   1.000  C
  C60      1.0000 0.44420  0.44147  0.22030  Biso   1.000  C
  C61      1.0000 0.35070  0.42258  0.26230  Biso   1.000  C
  H52      1.0000 0.25220  0.42810  0.25290  Biso   1.000  H
  C62      1.0000 0.40480  0.39545  0.31850  Biso   1.000  C
  H53      1.0000 0.34230  0.38270  0.34650  Biso   1.000  H
  C63      1.0000 0.55230  0.38728  0.33290  Biso   1.000  C
  C64      1.0000 0.64280  0.40584  0.28810  Biso   1.000  C
  H54      1.0000 0.74080  0.39990  0.29580  Biso   1.000  H
  C65      1.0000 0.58850  0.43307  0.23230  Biso   1.000  C
  H55      1.0000 0.65000  0.44550  0.20320  Biso   1.000  H
  C66      1.0000 0.61520  0.35997  0.39720  Biso   1.000  C
  C67      1.0000 0.49140  0.65547  0.94780  Biso   1.000  C
  C68      1.0000 0.58110  0.65891  0.89210  Biso   1.000  C
  H56      1.0000 0.59210  0.63860  0.85860  Biso   1.000  H
  C69      1.0000 0.65490  0.69295  0.88640  Biso   1.000  C
  H57      1.0000 0.71620  0.69530  0.84920  Biso   1.000  H
  C70      1.0000 0.63840  0.72352  0.93590  Biso   1.000  C
  C71      1.0000 0.53910  0.72080  0.98470  Biso   1.000  C
  H58      1.0000 0.52110  0.74200  0.01450  Biso   1.000  H
  C72      1.0000 0.46390  0.68732  0.99130  Biso   1.000  C
  H59      1.0000 0.39520  0.68610  0.02470  Biso   1.000  H
  C73      1.0000 0.72740  0.75857  0.93190  Biso   1.000  C
  C74      1.0000 0.25380  0.31499  0.52870  Biso   1.000  C
  H60      1.0000 0.25540  0.31420  0.47470  Biso   1.000  H
  C75      1.0000 0.32560  0.31657  0.65410  Biso   1.000  C
  C76      1.0000 0.39990  0.31963  0.73270  Biso   1.000  C
  H61      1.0000 0.50020  0.32170  0.74310  Biso   1.000  H
  C77      1.0000 0.31910  0.31952  0.79390  Biso   1.000  C
  H62      1.0000 0.36640  0.32070  0.84580  Biso   1.000  H
  C78      1.0000 0.16310  0.31753  0.77800  Biso   1.000  C
  H63      1.0000 0.11080  0.31770  0.81960  Biso   1.000  H
  C79      1.0000 0.09080  0.31533  0.70070  Biso   1.000  C
  H64      1.0000 0.99050  0.31340  0.68960  Biso   1.000  H
  C80      1.0000 0.17370  0.31611  0.64050  Biso   1.000  C
  Cd3      1.0000 0.92913  0.33199  0.48533  Biso   1.000  Cd
  Cd4      1.0000 0.59678  0.32066  0.55972  Biso   1.000  Cd
  N3       1.0000 0.12970  0.31510  0.55937  Biso   1.000  N
  N4       1.0000 0.37590  0.31605  0.58320  Biso   1.000  N
  O10      1.0000 0.82950  0.36577  0.57525  Biso   1.000  O
  O11      1.0000 0.66800  0.36450  0.65208  Biso   1.000  O
  O12      1.0000 0.10730  0.48491  0.83080  Biso   1.000  O
  O13      1.0000 0.53320  0.34961  0.44299  Biso   1.000  O
  O14      1.0000 0.74130  0.34939  0.39680  Biso   1.000  O
  O15      1.0000 0.37890  0.46855  0.16902  Biso   1.000  O
  O16      1.0000 0.72440  0.78369  0.98452  Biso   1.000  O
  O17      1.0000 0.80520  0.76233  0.88125  Biso   1.000  O
  O18      1.0000 0.44110  0.61838  0.96354  Biso   1.000  O
  C81      1.0000 0.67060  0.98202  0.45310  Biso   1.000  C
  C82      1.0000 0.76230  0.00525  0.50610  Biso   1.000  C
  C83      1.0000 0.87070  0.98876  0.56130  Biso   1.000  C
  C84      1.0000 0.88680  0.94932  0.56370  Biso   1.000  C
  C85      1.0000 0.80020  0.92677  0.50880  Biso   1.000  C
  C86      1.0000 0.69490  0.94298  0.45200  Biso   1.000  C
  C87      1.0000 0.60720  0.91730  0.38850  Biso   1.000  C
  H65      1.0000 0.55020  0.93310  0.34950  Biso   1.000  H
  H66      1.0000 0.67230  0.90200  0.36390  Biso   1.000  H
  H67      1.0000 0.54460  0.90090  0.41260  Biso   1.000  H
  C88      1.0000 0.54680  0.99999  0.39860  Biso   1.000  C
  H68      1.0000 0.50420  0.02050  0.42520  Biso   1.000  H
  H69      1.0000 0.47260  0.98110  0.38120  Biso   1.000  H
  C89      1.0000 0.73910  0.04901  0.50300  Biso   1.000  C
  H70      1.0000 0.66770  0.05540  0.45820  Biso   1.000  H
  H71      1.0000 0.70640  0.05730  0.55040  Biso   1.000  H
  H72      1.0000 0.82870  0.06150  0.49850  Biso   1.000  H
  C90      1.0000 0.97110  0.01449  0.61560  Biso   1.000  C
  H73      1.0000 0.01130  0.03430  0.58600  Biso   1.000  H
  H74      1.0000 0.04990  0.99990  0.64520  Biso   1.000  H
  C91      1.0000 0.00380  0.93061  0.62520  Biso   1.000  C
  H75      1.0000 0.01790  0.90450  0.61040  Biso   1.000  H
  H76      1.0000 0.09300  0.94450  0.62760  Biso   1.000  H
  H77      1.0000 0.97360  0.93110  0.67600  Biso   1.000  H
  C92      1.0000 0.82050  0.88305  0.51130  Biso   1.000  C
  H78      1.0000 0.73480  0.86950  0.48600  Biso   1.000  H
  H79      1.0000 0.84980  0.87350  0.56450  Biso   1.000  H
  C93      1.0000 0.52210  0.04011  0.28440  Biso   1.000  C
  C94      1.0000 0.58710  0.05980  0.22980  Biso   1.000  C
  H80      1.0000 0.68390  0.05540  0.22660  Biso   1.000  H
  C95      1.0000 0.50870  0.08593  0.18020  Biso   1.000  C
  H81      1.0000 0.55160  0.09800  0.14160  Biso   1.000  H
  C96      1.0000 0.36620  0.09450  0.18700  Biso   1.000  C
  C97      1.0000 0.30410  0.07544  0.24080  Biso   1.000  C
  H82      1.0000 0.20910  0.08120  0.24580  Biso   1.000  H
  C98      1.0000 0.37860  0.04716  0.28980  Biso   1.000  C
  H83      1.0000 0.33250  0.03350  0.32500  Biso   1.000  H
  C99      1.0000 0.28350  0.12356  0.13570  Biso   1.000  C
  C100     1.0000 0.94420  0.05853  0.72030  Biso   1.000  C
  C101     1.0000 0.85070  0.07742  0.76230  Biso   1.000  C
  H84      1.0000 0.75220  0.07190  0.75290  Biso   1.000  H
  C102     1.0000 0.90480  0.10455  0.81850  Biso   1.000  C
  H85      1.0000 0.84230  0.11730  0.84650  Biso   1.000  H
  C103     1.0000 0.05230  0.11272  0.83290  Biso   1.000  C
  C104     1.0000 0.14280  0.09416  0.78810  Biso   1.000  C
  H86      1.0000 0.24080  0.10010  0.79580  Biso   1.000  H
  C105     1.0000 0.08850  0.06693  0.73230  Biso   1.000  C
  H87      1.0000 0.15000  0.05450  0.70320  Biso   1.000  H
  C106     1.0000 0.11520  0.14003  0.89720  Biso   1.000  C
  C107     1.0000 0.99140  0.84453  0.44780  Biso   1.000  C
  C108     1.0000 0.08110  0.84109  0.39210  Biso   1.000  C
  H88      1.0000 0.09210  0.86140  0.35860  Biso   1.000  H
  C109     1.0000 0.15490  0.80705  0.38640  Biso   1.000  C
  H89      1.0000 0.21620  0.80470  0.34920  Biso   1.000  H
  C110     1.0000 0.13840  0.77648  0.43590  Biso   1.000  C
  C111     1.0000 0.03910  0.77920  0.48470  Biso   1.000  C
  H90      1.0000 0.02110  0.75800  0.51450  Biso   1.000  H
  C112     1.0000 0.96390  0.81268  0.49130  Biso   1.000  C
  H91      1.0000 0.89520  0.81390  0.52470  Biso   1.000  H
  C113     1.0000 0.22740  0.74143  0.43190  Biso   1.000  C
  C114     1.0000 0.75380  0.18501  0.02870  Biso   1.000  C
  H92      1.0000 0.75540  0.18580  0.97470  Biso   1.000  H
  C115     1.0000 0.82560  0.18343  0.15410  Biso   1.000  C
  C116     1.0000 0.89990  0.18037  0.23270  Biso   1.000  C
  H93      1.0000 0.00020  0.17830  0.24310  Biso   1.000  H
  C117     1.0000 0.81910  0.18048  0.29390  Biso   1.000  C
  H94      1.0000 0.86640  0.17930  0.34580  Biso   1.000  H
  C118     1.0000 0.66310  0.18247  0.27800  Biso   1.000  C
  H95      1.0000 0.61080  0.18230  0.31960  Biso   1.000  H
  C119     1.0000 0.59080  0.18467  0.20070  Biso   1.000  C
  H96      1.0000 0.49050  0.18660  0.18960  Biso   1.000  H
  C120     1.0000 0.67370  0.18389  0.14050  Biso   1.000  C
  Cd5      1.0000 0.42913  0.16801  0.98533  Biso   1.000  Cd
  Cd6      1.0000 0.09678  0.17934  0.05972  Biso   1.000  Cd
  N5       1.0000 0.62970  0.18490  0.05937  Biso   1.000  N
  N6       1.0000 0.87590  0.18395  0.08320  Biso   1.000  N
  O19      1.0000 0.32950  0.13423  0.07525  Biso   1.000  O
  O20      1.0000 0.16800  0.13550  0.15208  Biso   1.000  O
  O21      1.0000 0.60730  0.01509  0.33080  Biso   1.000  O
  O22      1.0000 0.03320  0.15039  0.94299  Biso   1.000  O
  O23      1.0000 0.24130  0.15061  0.89680  Biso   1.000  O
  O24      1.0000 0.87890  0.03145  0.66902  Biso   1.000  O
  O25      1.0000 0.22440  0.71631  0.48452  Biso   1.000  O
  O26      1.0000 0.30520  0.73767  0.38125  Biso   1.000  O
  O27      1.0000 0.94110  0.88162  0.46354  Biso   1.000  O
  C121     1.0000 0.82940  0.48202  0.04690  Biso   1.000  C
  C122     1.0000 0.73770  0.50525  0.99390  Biso   1.000  C
  C123     1.0000 0.62930  0.48876  0.93870  Biso   1.000  C
  C124     1.0000 0.61320  0.44932  0.93630  Biso   1.000  C
  C125     1.0000 0.69980  0.42677  0.99120  Biso   1.000  C
  C126     1.0000 0.80510  0.44298  0.04800  Biso   1.000  C
  C127     1.0000 0.89280  0.41730  0.11150  Biso   1.000  C
  H97      1.0000 0.94980  0.43310  0.15050  Biso   1.000  H
  H98      1.0000 0.82770  0.40200  0.13610  Biso   1.000  H
  H99      1.0000 0.95540  0.40090  0.08740  Biso   1.000  H
  C128     1.0000 0.95320  0.49999  0.10140  Biso   1.000  C
  H100     1.0000 0.99580  0.52050  0.07480  Biso   1.000  H
  H101     1.0000 0.02740  0.48110  0.11880  Biso   1.000  H
  C129     1.0000 0.76090  0.54901  0.99700  Biso   1.000  C
  H102     1.0000 0.83230  0.55540  0.04180  Biso   1.000  H
  H103     1.0000 0.79360  0.55730  0.94960  Biso   1.000  H
  H104     1.0000 0.67130  0.56150  0.00150  Biso   1.000  H
  C130     1.0000 0.52890  0.51449  0.88440  Biso   1.000  C
  H105     1.0000 0.48870  0.53430  0.91400  Biso   1.000  H
  H106     1.0000 0.45010  0.49990  0.85480  Biso   1.000  H
  C131     1.0000 0.49620  0.43061  0.87480  Biso   1.000  C
  H107     1.0000 0.48210  0.40450  0.88960  Biso   1.000  H
  H108     1.0000 0.40700  0.44450  0.87240  Biso   1.000  H
  H109     1.0000 0.52640  0.43110  0.82400  Biso   1.000  H
  C132     1.0000 0.67950  0.38305  0.98870  Biso   1.000  C
  H110     1.0000 0.76520  0.36950  0.01400  Biso   1.000  H
  H111     1.0000 0.65020  0.37350  0.93550  Biso   1.000  H
  C133     1.0000 0.97790  0.54011  0.21560  Biso   1.000  C
  C134     1.0000 0.91290  0.55980  0.27020  Biso   1.000  C
  H112     1.0000 0.81610  0.55540  0.27340  Biso   1.000  H
  C135     1.0000 0.99130  0.58593  0.31980  Biso   1.000  C
  H113     1.0000 0.94840  0.59800  0.35840  Biso   1.000  H
  C136     1.0000 0.13380  0.59450  0.31300  Biso   1.000  C
  C137     1.0000 0.19590  0.57544  0.25920  Biso   1.000  C
  H114     1.0000 0.29090  0.58120  0.25420  Biso   1.000  H
  C138     1.0000 0.12140  0.54716  0.21020  Biso   1.000  C
  H115     1.0000 0.16750  0.53350  0.17500  Biso   1.000  H
  C139     1.0000 0.21650  0.62356  0.36430  Biso   1.000  C
  C140     1.0000 0.55580  0.55853  0.77970  Biso   1.000  C
  C141     1.0000 0.64930  0.57742  0.73770  Biso   1.000  C
  H116     1.0000 0.74780  0.57190  0.74710  Biso   1.000  H
  C142     1.0000 0.59520  0.60455  0.68150  Biso   1.000  C
  H117     1.0000 0.65770  0.61730  0.65350  Biso   1.000  H
  C143     1.0000 0.44770  0.61272  0.66710  Biso   1.000  C
  C144     1.0000 0.35720  0.59416  0.71190  Biso   1.000  C
  H118     1.0000 0.25920  0.60010  0.70420  Biso   1.000  H
  C145     1.0000 0.41150  0.56693  0.76770  Biso   1.000  C
  H119     1.0000 0.35000  0.55450  0.79680  Biso   1.000  H
  C146     1.0000 0.38480  0.64003  0.60280  Biso   1.000  C
  C147     1.0000 0.50860  0.34453  0.05220  Biso   1.000  C
  C148     1.0000 0.41890  0.34109  0.10790  Biso   1.000  C
  H120     1.0000 0.40790  0.36140  0.14140  Biso   1.000  H
  C149     1.0000 0.34510  0.30705  0.11360  Biso   1.000  C
  H121     1.0000 0.28380  0.30470  0.15080  Biso   1.000  H
  C150     1.0000 0.36160  0.27648  0.06410  Biso   1.000  C
  C151     1.0000 0.46090  0.27920  0.01530  Biso   1.000  C
  H122     1.0000 0.47890  0.25800  0.98550  Biso   1.000  H
  C152     1.0000 0.53610  0.31268  0.00870  Biso   1.000  C
  H123     1.0000 0.60480  0.31390  0.97530  Biso   1.000  H
  C153     1.0000 0.27260  0.24143  0.06810  Biso   1.000  C
  C154     1.0000 0.74620  0.68501  0.47130  Biso   1.000  C
  H124     1.0000 0.74460  0.68580  0.52530  Biso   1.000  H
  C155     1.0000 0.67440  0.68343  0.34590  Biso   1.000  C
  C156     1.0000 0.60010  0.68037  0.26730  Biso   1.000  C
  H125     1.0000 0.49980  0.67830  0.25690  Biso   1.000  H
  C157     1.0000 0.68090  0.68048  0.20610  Biso   1.000  C
  H126     1.0000 0.63360  0.67930  0.15420  Biso   1.000  H
  C158     1.0000 0.83690  0.68247  0.22200  Biso   1.000  C
  H127     1.0000 0.88920  0.68230  0.18040  Biso   1.000  H
  C159     1.0000 0.90920  0.68467  0.29930  Biso   1.000  C
  H128     1.0000 0.00950  0.68660  0.31040  Biso   1.000  H
  C160     1.0000 0.82630  0.68389  0.35950  Biso   1.000  C
  Cd7      1.0000 0.07087  0.66801  0.51467  Biso   1.000  Cd
  Cd8      1.0000 0.40322  0.67934  0.44028  Biso   1.000  Cd
  N7       1.0000 0.87030  0.68490  0.44063  Biso   1.000  N
  N8       1.0000 0.62410  0.68395  0.41680  Biso   1.000  N
  O28      1.0000 0.17050  0.63423  0.42475  Biso   1.000  O
  O29      1.0000 0.33200  0.63550  0.34792  Biso   1.000  O
  O30      1.0000 0.89270  0.51509  0.16920  Biso   1.000  O
  O31      1.0000 0.46680  0.65039  0.55701  Biso   1.000  O
  O32      1.0000 0.25870  0.65061  0.60320  Biso   1.000  O
  O33      1.0000 0.62110  0.53145  0.83098  Biso   1.000  O
  O34      1.0000 0.27560  0.21631  0.01548  Biso   1.000  O
  O35      1.0000 0.19480  0.23767  0.11875  Biso   1.000  O
  O36      1.0000 0.55890  0.38162  0.03646  Biso   1.000  O
