data_image0
_cell_length_a       13.229
_cell_length_b       15.396
_cell_length_c       14.8
_cell_angle_alpha    90
_cell_angle_beta     95.1
_cell_angle_gamma    90

_symmetry_space_group_name_H-M    "P 1"
_symmetry_int_tables_number       1

loop_
  _symmetry_equiv_pos_as_xyz
  'x, y, z'

loop_
  _atom_site_label
  _atom_site_occupancy
  _atom_site_fract_x
  _atom_site_fract_y
  _atom_site_fract_z
  _atom_site_thermal_displace_type
  _atom_site_B_iso_or_equiv
  _atom_site_type_symbol
  Ga1      1.0000 0.61380  0.53980  0.17910  Biso   1.000  Ga
  Ga2      1.0000 0.56480  0.60490  0.50090  Biso   1.000  Ga
  Ga3      1.0000 0.56880  0.35150  0.49660  Biso   1.000  Ga
  Ga4      1.0000 0.32480  0.47400  0.47200  Biso   1.000  Ga
  Ga5      1.0000 0.25340  0.37500  0.24790  Biso   1.000  Ga
  Ga6      1.0000 0.89340  0.43060  0.31250  Biso   1.000  Ga
  Ga7      1.0000 0.94490  0.35020  0.00000  Biso   1.000  Ga
  Ga8      1.0000 0.91830  0.60740  0.00080  Biso   1.000  Ga
  Ga9      1.0000 0.17800  0.47720  0.02900  Biso   1.000  Ga
  Ga10     1.0000 0.24070  0.57970  0.25240  Biso   1.000  Ga
  P1       1.0000 0.67980  0.47980  0.37860  Biso   1.000  P
  P2       1.0000 0.47910  0.47580  0.63850  Biso   1.000  P
  P3       1.0000 0.36880  0.27990  0.41370  Biso   1.000  P
  P4       1.0000 0.63540  0.17080  0.58210  Biso   1.000  P
  P5       1.0000 0.38590  0.48280  0.12670  Biso   1.000  P
  P6       1.0000 0.81730  0.46570  0.11620  Biso   1.000  P
  P7       1.0000 0.02350  0.48430  0.86330  Biso   1.000  P
  P8       1.0000 0.11940  0.66960  0.08930  Biso   1.000  P
  P9       1.0000 0.14870  0.28080  0.07590  Biso   1.000  P
  P10      1.0000 0.11510  0.46830  0.37630  Biso   1.000  P
  O1       1.0000 0.60760  0.48700  0.29690  Biso   1.000  O
  O2       1.0000 0.66360  0.55640  0.44200  Biso   1.000  O
  O3       1.0000 0.66470  0.39390  0.42850  Biso   1.000  O
  O4       1.0000 0.70830  0.45740  0.14110  Biso   1.000  O
  O5       1.0000 0.52500  0.55840  0.60670  Biso   1.000  O
  O6       1.0000 0.54370  0.39870  0.60440  Biso   1.000  O
  O7       1.0000 0.48870  0.47650  0.73990  Biso   1.000  O
  O8       1.0000 0.36530  0.46810  0.59770  Biso   1.000  O
  O9       1.0000 0.65270  0.25960  0.54330  Biso   1.000  O
  O10      1.0000 0.47980  0.65670  0.41260  Biso   1.000  O
  O11      1.0000 0.48270  0.28730  0.41860  Biso   1.000  O
  O12      1.0000 0.32460  0.28500  0.31570  Biso   1.000  O
  O13      1.0000 0.13860  0.39070  0.31960  Biso   1.000  O
  O14      1.0000 0.18900  0.28340  0.17660  Biso   1.000  O
  O15      1.0000 0.36610  0.39990  0.17580  Biso   1.000  O
  O16      1.0000 0.32570  0.48480  0.03270  Biso   1.000  O
  O17      1.0000 0.49880  0.49320  0.11640  Biso   1.000  O
  O18      1.0000 0.32580  0.60240  0.47790  Biso   1.000  O
  O19      1.0000 0.65520  0.68770  0.54980  Biso   1.000  O
  O20      1.0000 0.32420  0.34810  0.47060  Biso   1.000  O
  O21      1.0000 0.89540  0.48210  0.20240  Biso   1.000  O
  O22      1.0000 0.84080  0.38280  0.06800  Biso   1.000  O
  O23      1.0000 0.82030  0.54060  0.05040  Biso   1.000  O
  O24      1.0000 0.78870  0.48590  0.35970  Biso   1.000  O
  O25      1.0000 0.96210  0.40080  0.88680  Biso   1.000  O
  O26      1.0000 0.96680  0.56460  0.89600  Biso   1.000  O
  O27      1.0000 0.01630  0.49090  0.76220  Biso   1.000  O
  O28      1.0000 0.13290  0.48080  0.90000  Biso   1.000  O
  O29      1.0000 0.17930  0.19050  0.03750  Biso   1.000  O
  O30      1.0000 0.03040  0.28080  0.06970  Biso   1.000  O
  O31      1.0000 0.00480  0.65670  0.09020  Biso   1.000  O
  O32      1.0000 0.16500  0.66590  0.18700  Biso   1.000  O
  O33      1.0000 0.35450  0.56490  0.17830  Biso   1.000  O
  O34      1.0000 0.68310  0.16470  0.67850  Biso   1.000  O
  O35      1.0000 0.13410  0.55390  0.32320  Biso   1.000  O
  O36      1.0000 0.17550  0.46930  0.46970  Biso   1.000  O
  O37      1.0000 0.00070  0.46660  0.39200  Biso   1.000  O
  O38      1.0000 0.18740  0.35330  0.01960  Biso   1.000  O
  O39      1.0000 0.86230  0.26000  0.94720  Biso   1.000  O
  O40      1.0000 0.16550  0.60190  0.02740  Biso   1.000  O
  O41      1.0000 0.18150  0.47640  0.16790  Biso   1.000  O
  F1       1.0000 0.47360  0.47090  0.45190  Biso   1.000  F
  O42      1.0000 0.31400  0.47630  0.32940  Biso   1.000  O
  F2       1.0000 0.02570  0.45840  0.05150  Biso   1.000  F
  Ga11     1.0000 0.38620  0.03980  0.82090  Biso   1.000  Ga
  Ga12     1.0000 0.43520  0.10490  0.49910  Biso   1.000  Ga
  Ga13     1.0000 0.43120  0.85150  0.50340  Biso   1.000  Ga
  Ga14     1.0000 0.67520  0.97400  0.52800  Biso   1.000  Ga
  Ga15     1.0000 0.74660  0.87500  0.75210  Biso   1.000  Ga
  Ga16     1.0000 0.10660  0.93060  0.68750  Biso   1.000  Ga
  Ga17     1.0000 0.05510  0.85020  0.00000  Biso   1.000  Ga
  Ga18     1.0000 0.08170  0.10740  0.99920  Biso   1.000  Ga
  Ga19     1.0000 0.82200  0.97720  0.97100  Biso   1.000  Ga
  Ga20     1.0000 0.75930  0.07970  0.74760  Biso   1.000  Ga
  P11      1.0000 0.32020  0.97980  0.62140  Biso   1.000  P
  P12      1.0000 0.52090  0.97580  0.36150  Biso   1.000  P
  P13      1.0000 0.63120  0.77990  0.58630  Biso   1.000  P
  P14      1.0000 0.36460  0.67080  0.41790  Biso   1.000  P
  P15      1.0000 0.61410  0.98280  0.87330  Biso   1.000  P
  P16      1.0000 0.18270  0.96570  0.88380  Biso   1.000  P
  P17      1.0000 0.97650  0.98430  0.13670  Biso   1.000  P
  P18      1.0000 0.88060  0.16960  0.91070  Biso   1.000  P
  P19      1.0000 0.85130  0.78080  0.92410  Biso   1.000  P
  P20      1.0000 0.88490  0.96830  0.62370  Biso   1.000  P
  O43      1.0000 0.39240  0.98700  0.70310  Biso   1.000  O
  O44      1.0000 0.33640  0.05640  0.55800  Biso   1.000  O
  O45      1.0000 0.33530  0.89390  0.57150  Biso   1.000  O
  O46      1.0000 0.29170  0.95740  0.85890  Biso   1.000  O
  O47      1.0000 0.47500  0.05840  0.39330  Biso   1.000  O
  O48      1.0000 0.45630  0.89870  0.39560  Biso   1.000  O
  O49      1.0000 0.51130  0.97650  0.26010  Biso   1.000  O
  O50      1.0000 0.63470  0.96810  0.40230  Biso   1.000  O
  O51      1.0000 0.34730  0.75960  0.45670  Biso   1.000  O
  O52      1.0000 0.52020  0.15670  0.58740  Biso   1.000  O
  O53      1.0000 0.51730  0.78730  0.58140  Biso   1.000  O
  O54      1.0000 0.67540  0.78500  0.68430  Biso   1.000  O
  O55      1.0000 0.86140  0.89070  0.68040  Biso   1.000  O
  O56      1.0000 0.81100  0.78340  0.82340  Biso   1.000  O
  O57      1.0000 0.63390  0.89990  0.82420  Biso   1.000  O
  O58      1.0000 0.67430  0.98480  0.96730  Biso   1.000  O
  O59      1.0000 0.50120  0.99320  0.88360  Biso   1.000  O
  O60      1.0000 0.67420  0.10240  0.52210  Biso   1.000  O
  O61      1.0000 0.34480  0.18770  0.45020  Biso   1.000  O
  O62      1.0000 0.67580  0.84810  0.52940  Biso   1.000  O
  O63      1.0000 0.10460  0.98210  0.79760  Biso   1.000  O
  O64      1.0000 0.15920  0.88280  0.93200  Biso   1.000  O
  O65      1.0000 0.17970  0.04060  0.94960  Biso   1.000  O
  O66      1.0000 0.21130  0.98590  0.64030  Biso   1.000  O
  O67      1.0000 0.03790  0.90080  0.11320  Biso   1.000  O
  O68      1.0000 0.03320  0.06460  0.10400  Biso   1.000  O
  O69      1.0000 0.98370  0.99090  0.23780  Biso   1.000  O
  O70      1.0000 0.86710  0.98080  0.10000  Biso   1.000  O
  O71      1.0000 0.82070  0.69050  0.96250  Biso   1.000  O
  O72      1.0000 0.96960  0.78080  0.93030  Biso   1.000  O
  O73      1.0000 0.99520  0.15670  0.90980  Biso   1.000  O
  O74      1.0000 0.83500  0.16590  0.81300  Biso   1.000  O
  O75      1.0000 0.64550  0.06490  0.82170  Biso   1.000  O
  O76      1.0000 0.31690  0.66470  0.32150  Biso   1.000  O
  O77      1.0000 0.86590  0.05390  0.67680  Biso   1.000  O
  O78      1.0000 0.82450  0.96930  0.53030  Biso   1.000  O
  O79      1.0000 0.99930  0.96660  0.60800  Biso   1.000  O
  O80      1.0000 0.81260  0.85330  0.98040  Biso   1.000  O
  O81      1.0000 0.13770  0.76000  0.05280  Biso   1.000  O
  O82      1.0000 0.83450  0.10190  0.97260  Biso   1.000  O
  O83      1.0000 0.81850  0.97640  0.83210  Biso   1.000  O
  F3       1.0000 0.52640  0.97090  0.54810  Biso   1.000  F
  O84      1.0000 0.68600  0.97630  0.67060  Biso   1.000  O
  F4       1.0000 0.97430  0.95840  0.94850  Biso   1.000  F
