data_FALQEQ_clean
_audit_creation_date              2014-07-02
_audit_creation_method            'Materials Studio'
_symmetry_space_group_name_H-M    'P1'
_symmetry_Int_Tables_number       1
_symmetry_cell_setting            triclinic
loop_
_symmetry_equiv_pos_as_xyz
  x,y,z
_cell_length_a                    7.4935
_cell_length_b                    13.6224
_cell_length_c                    13.6224
_cell_angle_alpha                 120.0000
_cell_angle_beta                  90.0000
_cell_angle_gamma                 90.0000
loop_
_atom_site_label
_atom_site_type_symbol
_atom_site_fract_x
_atom_site_fract_y
_atom_site_fract_z
_atom_site_U_iso_or_equiv
_atom_site_adp_type
_atom_site_occupancy
La1    La    0.34102   0.33333   0.66666   0.01267  Uiso   1.00
La2    La    0.65898   0.66667   0.33334   0.01267  Uiso   1.00
Cu1    Cu    0.00000   0.00000   0.50000   0.01267  Uiso   1.00
Cu2    Cu    0.00000   0.50000  -0.00000   0.01267  Uiso   1.00
Cu3    Cu    1.00000   0.50000   0.50000   0.01267  Uiso   1.00
H1     H     0.86010   0.96810   0.64500   0.01267  Uiso   1.00
H2     H     0.95310   0.14230   0.80290   0.01267  Uiso   1.00
H3     H     0.76840   0.18310   0.73120   0.01267  Uiso   1.00
H4     H     0.64140   0.06550   0.78740   0.01267  Uiso   1.00
H5     H     0.54110   0.99750   0.66800   0.01267  Uiso   1.00
H6     H     0.49470   0.12800   0.75260   0.01267  Uiso   1.00
H7     H     0.01900   0.98990   0.78790   0.01267  Uiso   1.00
H8     H     0.13760   0.10060   0.86180   0.01267  Uiso   1.00
H9     H     0.20890   0.00280   0.74170   0.01267  Uiso   1.00
H10    H     0.86010   0.67690   0.03190   0.01267  Uiso   1.00
H11    H     0.95310   0.66060   0.85770   0.01267  Uiso   1.00
H12    H     0.76840   0.54810   0.81690   0.01267  Uiso   1.00
H13    H     0.64140   0.72190   0.93450   0.01267  Uiso   1.00
H14    H     0.54110   0.67050   0.00250   0.01267  Uiso   1.00
H15    H     0.49470   0.62460   0.87200   0.01267  Uiso   1.00
H16    H     0.01900   0.79800   0.01010   0.01267  Uiso   1.00
H17    H     0.13760   0.76120   0.89940   0.01267  Uiso   1.00
H18    H     0.20890   0.73890   0.99720   0.01267  Uiso   1.00
H19    H     0.86010   0.35500   0.32310   0.01267  Uiso   1.00
H20    H     0.95310   0.19710   0.33940   0.01267  Uiso   1.00
H21    H     0.76840   0.26880   0.45190   0.01267  Uiso   1.00
H22    H     0.64140   0.21260   0.27810   0.01267  Uiso   1.00
H23    H     0.54110   0.33200   0.32950   0.01267  Uiso   1.00
H24    H     0.49470   0.24740   0.37540   0.01267  Uiso   1.00
H25    H     0.01900   0.21210   0.20200   0.01267  Uiso   1.00
H26    H     0.13760   0.13820   0.23880   0.01267  Uiso   1.00
H27    H     0.20890   0.25830   0.26110   0.01267  Uiso   1.00
H28    H     0.13990   0.03190   0.35500   0.01267  Uiso   1.00
H29    H     0.04690   0.85770   0.19710   0.01267  Uiso   1.00
H30    H     0.23160   0.81690   0.26880   0.01267  Uiso   1.00
H31    H     0.35860   0.93450   0.21260   0.01267  Uiso   1.00
H32    H     0.45890   0.00250   0.33200   0.01267  Uiso   1.00
H33    H     0.50530   0.87200   0.24740   0.01267  Uiso   1.00
H34    H     0.98100   0.01010   0.21210   0.01267  Uiso   1.00
H35    H     0.86240   0.89940   0.13820   0.01267  Uiso   1.00
H36    H     0.79110   0.99720   0.25830   0.01267  Uiso   1.00
H37    H     0.13990   0.32310   0.96810   0.01267  Uiso   1.00
H38    H     0.04690   0.33940   0.14230   0.01267  Uiso   1.00
H39    H     0.23160   0.45190   0.18310   0.01267  Uiso   1.00
H40    H     0.35860   0.27810   0.06550   0.01267  Uiso   1.00
H41    H     0.45890   0.32950   0.99750   0.01267  Uiso   1.00
H42    H     0.50530   0.37540   0.12800   0.01267  Uiso   1.00
H43    H     0.98100   0.20200   0.98990   0.01267  Uiso   1.00
H44    H     0.86240   0.23880   0.10060   0.01267  Uiso   1.00
H45    H     0.79110   0.26110   0.00280   0.01267  Uiso   1.00
H46    H     0.13990   0.64500   0.67690   0.01267  Uiso   1.00
H47    H     0.04690   0.80290   0.66060   0.01267  Uiso   1.00
H48    H     0.23160   0.73120   0.54810   0.01267  Uiso   1.00
H49    H     0.35860   0.78740   0.72190   0.01267  Uiso   1.00
H50    H     0.45890   0.66800   0.67050   0.01267  Uiso   1.00
H51    H     0.50530   0.75260   0.62460   0.01267  Uiso   1.00
H52    H     0.98100   0.78790   0.79800   0.01267  Uiso   1.00
H53    H     0.86240   0.86180   0.76120   0.01267  Uiso   1.00
H54    H     0.79110   0.74170   0.73890   0.01267  Uiso   1.00
C1     C     0.13650   0.17742   0.72401   0.01267  Uiso   1.00
C2     C     0.03210   0.08930   0.73910   0.01267  Uiso   1.00
C3     C     0.73220   0.10560   0.67040   0.01267  Uiso   1.00
C4     C     0.68710   0.12036   0.57016   0.01267  Uiso   1.00
C5     C     0.59010   0.07120   0.72420   0.01267  Uiso   1.00
C6     C     0.10260   0.04350   0.78470   0.01267  Uiso   1.00
C7     C     0.13650   0.54659   0.82258   0.01267  Uiso   1.00
C8     C     0.03210   0.64980   0.91070   0.01267  Uiso   1.00
C9     C     0.73220   0.56480   0.89440   0.01267  Uiso   1.00
C10    C     0.68710   0.44980   0.87964   0.01267  Uiso   1.00
C11    C     0.59010   0.65300   0.92880   0.01267  Uiso   1.00
C12    C     0.10260   0.74120   0.95650   0.01267  Uiso   1.00
C13    C     0.13650   0.27599   0.45341   0.01267  Uiso   1.00
C14    C     0.03210   0.26090   0.35020   0.01267  Uiso   1.00
C15    C     0.73220   0.32960   0.43520   0.01267  Uiso   1.00
C16    C     0.68710   0.42984   0.55020   0.01267  Uiso   1.00
C17    C     0.59010   0.27580   0.34700   0.01267  Uiso   1.00
C18    C     0.10260   0.21530   0.25880   0.01267  Uiso   1.00
C19    C     0.86350   0.82258   0.27599   0.01267  Uiso   1.00
C20    C     0.96790   0.91070   0.26090   0.01267  Uiso   1.00
C21    C     0.26780   0.89440   0.32960   0.01267  Uiso   1.00
C22    C     0.31290   0.87964   0.42984   0.01267  Uiso   1.00
C23    C     0.40990   0.92880   0.27580   0.01267  Uiso   1.00
C24    C     0.89740   0.95650   0.21530   0.01267  Uiso   1.00
C25    C     0.86350   0.45341   0.17742   0.01267  Uiso   1.00
C26    C     0.96790   0.35020   0.08930   0.01267  Uiso   1.00
C27    C     0.26780   0.43520   0.10560   0.01267  Uiso   1.00
C28    C     0.31290   0.55020   0.12036   0.01267  Uiso   1.00
C29    C     0.40990   0.34700   0.07120   0.01267  Uiso   1.00
C30    C     0.89740   0.25880   0.04350   0.01267  Uiso   1.00
C31    C     0.86350   0.72401   0.54659   0.01267  Uiso   1.00
C32    C     0.96790   0.73910   0.64980   0.01267  Uiso   1.00
C33    C     0.26780   0.67040   0.56480   0.01267  Uiso   1.00
C34    C     0.31290   0.57016   0.44980   0.01267  Uiso   1.00
C35    C     0.40990   0.72420   0.65300   0.01267  Uiso   1.00
C36    C     0.89740   0.78470   0.74120   0.01267  Uiso   1.00
N1     N     0.89410   0.03594   0.64963   0.01267  Uiso   1.00
N2     N     0.89410   0.61369   0.96406   0.01267  Uiso   1.00
N3     N     0.89410   0.35037   0.38631   0.01267  Uiso   1.00
N4     N     0.10590   0.96406   0.35037   0.01267  Uiso   1.00
N5     N     0.10590   0.38631   0.03594   0.01267  Uiso   1.00
N6     N     0.10590   0.64963   0.61369   0.01267  Uiso   1.00
O1     O     0.24190   0.24152   0.79935   0.01267  Uiso   1.00
O2     O     0.11730   0.17965   0.63333   0.01267  Uiso   1.00
O3     O     0.78860   0.07682   0.48477   0.01267  Uiso   1.00
O4     O     0.55190   0.17767   0.57822   0.01267  Uiso   1.00
O5     O     0.24190   0.55783   0.75848   0.01267  Uiso   1.00
O6     O     0.11730   0.45368   0.82035   0.01267  Uiso   1.00
O7     O     0.78860   0.40795   0.92318   0.01267  Uiso   1.00
O8     O     0.55190   0.40055   0.82233   0.01267  Uiso   1.00
O9     O     0.24190   0.20065   0.44217   0.01267  Uiso   1.00
O10    O     0.11730   0.36667   0.54632   0.01267  Uiso   1.00
O11    O     0.78860   0.51523   0.59205   0.01267  Uiso   1.00
O12    O     0.55190   0.42178   0.59945   0.01267  Uiso   1.00
O13    O     0.75810   0.75848   0.20065   0.01267  Uiso   1.00
O14    O     0.88270   0.82035   0.36667   0.01267  Uiso   1.00
O15    O     0.21140   0.92318   0.51523   0.01267  Uiso   1.00
O16    O     0.44810   0.82233   0.42178   0.01267  Uiso   1.00
O17    O     0.75810   0.44217   0.24152   0.01267  Uiso   1.00
O18    O     0.88270   0.54632   0.17965   0.01267  Uiso   1.00
O19    O     0.21140   0.59205   0.07682   0.01267  Uiso   1.00
O20    O     0.44810   0.59945   0.17767   0.01267  Uiso   1.00
O21    O     0.75810   0.79935   0.55783   0.01267  Uiso   1.00
O22    O     0.88270   0.63333   0.45368   0.01267  Uiso   1.00
O23    O     0.21140   0.48477   0.40795   0.01267  Uiso   1.00
O24    O     0.44810   0.57822   0.40055   0.01267  Uiso   1.00
