data_image0
_cell_length_a       16.8395
_cell_length_b       16.8395
_cell_length_c       16.8395
_cell_angle_alpha    90
_cell_angle_beta     90
_cell_angle_gamma    90

_symmetry_space_group_name_H-M    "P 1"
_symmetry_int_tables_number       1

loop_
  _symmetry_equiv_pos_as_xyz
  'x, y, z'

loop_
  _atom_site_label
  _atom_site_occupancy
  _atom_site_fract_x
  _atom_site_fract_y
  _atom_site_fract_z
  _atom_site_thermal_displace_type
  _atom_site_B_iso_or_equiv
  _atom_site_type_symbol
  O1       1.0000 0.90749  0.48362  0.19400  Biso   1.000  O
  O2       1.0000 0.40749  0.98362  0.69400  Biso   1.000  O
  O3       1.0000 0.09251  0.51638  0.19400  Biso   1.000  O
  O4       1.0000 0.59251  0.01638  0.69400  Biso   1.000  O
  O5       1.0000 0.09251  0.48362  0.80600  Biso   1.000  O
  O6       1.0000 0.59251  0.98362  0.30600  Biso   1.000  O
  O7       1.0000 0.90749  0.51638  0.80600  Biso   1.000  O
  O8       1.0000 0.40749  0.01638  0.30600  Biso   1.000  O
  O9       1.0000 0.19400  0.90749  0.48362  Biso   1.000  O
  O10      1.0000 0.69400  0.40749  0.98362  Biso   1.000  O
  O11      1.0000 0.19400  0.09251  0.51638  Biso   1.000  O
  O12      1.0000 0.69400  0.59251  0.01638  Biso   1.000  O
  O13      1.0000 0.80600  0.09251  0.48362  Biso   1.000  O
  O14      1.0000 0.30600  0.59251  0.98362  Biso   1.000  O
  O15      1.0000 0.80600  0.90749  0.51638  Biso   1.000  O
  O16      1.0000 0.30600  0.40749  0.01638  Biso   1.000  O
  O17      1.0000 0.48362  0.19400  0.90749  Biso   1.000  O
  O18      1.0000 0.98362  0.69400  0.40749  Biso   1.000  O
  O19      1.0000 0.51638  0.19400  0.09251  Biso   1.000  O
  O20      1.0000 0.01638  0.69400  0.59251  Biso   1.000  O
  O21      1.0000 0.48362  0.80600  0.09251  Biso   1.000  O
  O22      1.0000 0.98362  0.30600  0.59251  Biso   1.000  O
  O23      1.0000 0.51638  0.80600  0.90749  Biso   1.000  O
  O24      1.0000 0.01638  0.30600  0.40749  Biso   1.000  O
  O25      1.0000 0.48362  0.90749  0.19400  Biso   1.000  O
  O26      1.0000 0.98362  0.40749  0.69400  Biso   1.000  O
  O27      1.0000 0.51638  0.09251  0.19400  Biso   1.000  O
  O28      1.0000 0.01638  0.59251  0.69400  Biso   1.000  O
  O29      1.0000 0.48362  0.09251  0.80600  Biso   1.000  O
  O30      1.0000 0.98362  0.59251  0.30600  Biso   1.000  O
  O31      1.0000 0.51638  0.90749  0.80600  Biso   1.000  O
  O32      1.0000 0.01638  0.40749  0.30600  Biso   1.000  O
  O33      1.0000 0.90749  0.19400  0.48362  Biso   1.000  O
  O34      1.0000 0.40749  0.69400  0.98362  Biso   1.000  O
  O35      1.0000 0.09251  0.19400  0.51638  Biso   1.000  O
  O36      1.0000 0.59251  0.69400  0.01638  Biso   1.000  O
  O37      1.0000 0.09251  0.80600  0.48362  Biso   1.000  O
  O38      1.0000 0.59251  0.30600  0.98362  Biso   1.000  O
  O39      1.0000 0.90749  0.80600  0.51638  Biso   1.000  O
  O40      1.0000 0.40749  0.30600  0.01638  Biso   1.000  O
  O41      1.0000 0.19400  0.48362  0.90749  Biso   1.000  O
  O42      1.0000 0.69400  0.98362  0.40749  Biso   1.000  O
  O43      1.0000 0.19400  0.51638  0.09251  Biso   1.000  O
  O44      1.0000 0.69400  0.01638  0.59251  Biso   1.000  O
  O45      1.0000 0.80600  0.48362  0.09251  Biso   1.000  O
  O46      1.0000 0.30600  0.98362  0.59251  Biso   1.000  O
  O47      1.0000 0.80600  0.51638  0.90749  Biso   1.000  O
  O48      1.0000 0.30600  0.01638  0.40749  Biso   1.000  O
  Ga1      1.0000 0.00000  0.50000  0.00000  Biso   1.000  Ga
  Ga2      1.0000 0.50000  0.00000  0.50000  Biso   1.000  Ga
  Ga3      1.0000 0.00000  0.00000  0.50000  Biso   1.000  Ga
  Ga4      1.0000 0.50000  0.50000  0.00000  Biso   1.000  Ga
  Ga5      1.0000 0.50000  0.00000  0.00000  Biso   1.000  Ga
  Ga6      1.0000 0.00000  0.50000  0.50000  Biso   1.000  Ga
  Li1      1.0000 0.00000  0.50000  0.25000  Biso   1.000  Li
  Li2      1.0000 0.00000  0.50000  0.75000  Biso   1.000  Li
  Li3      1.0000 0.50000  0.00000  0.25000  Biso   1.000  Li
  Li4      1.0000 0.25000  0.00000  0.50000  Biso   1.000  Li
  Li5      1.0000 0.75000  0.00000  0.50000  Biso   1.000  Li
  Li6      1.0000 0.25000  0.50000  0.00000  Biso   1.000  Li
  Li7      1.0000 0.50000  0.25000  0.00000  Biso   1.000  Li
  Li8      1.0000 0.50000  0.75000  0.00000  Biso   1.000  Li
  Li9      1.0000 0.00000  0.25000  0.50000  Biso   1.000  Li
  Li10     1.0000 0.50000  0.00000  0.75000  Biso   1.000  Li
  Li11     1.0000 0.00000  0.75000  0.50000  Biso   1.000  Li
  Li12     1.0000 0.75000  0.50000  0.00000  Biso   1.000  Li
  P1       1.0000 0.87669  0.43504  0.12331  Biso   1.000  P
  O49      1.0000 0.85338  0.35250  0.14662  Biso   1.000  O
  O50      1.0000 0.94176  0.43020  0.05824  Biso   1.000  O
  P2       1.0000 0.37669  0.93504  0.62331  Biso   1.000  P
  O51      1.0000 0.35338  0.85250  0.64662  Biso   1.000  O
  O52      1.0000 0.44176  0.93020  0.55824  Biso   1.000  O
  P3       1.0000 0.12331  0.56496  0.12331  Biso   1.000  P
  O53      1.0000 0.14662  0.64750  0.14662  Biso   1.000  O
  O54      1.0000 0.05824  0.56980  0.05824  Biso   1.000  O
  P4       1.0000 0.62331  0.06496  0.62331  Biso   1.000  P
  O55      1.0000 0.64662  0.14750  0.64662  Biso   1.000  O
  O56      1.0000 0.55824  0.06980  0.55824  Biso   1.000  O
  P5       1.0000 0.12331  0.43504  0.87669  Biso   1.000  P
  O57      1.0000 0.14662  0.35250  0.85338  Biso   1.000  O
  O58      1.0000 0.05824  0.43020  0.94176  Biso   1.000  O
  P6       1.0000 0.62331  0.93504  0.37669  Biso   1.000  P
  O59      1.0000 0.64662  0.85250  0.35338  Biso   1.000  O
  O60      1.0000 0.55824  0.93020  0.44176  Biso   1.000  O
  P7       1.0000 0.87669  0.56496  0.87669  Biso   1.000  P
  O61      1.0000 0.85338  0.64750  0.85338  Biso   1.000  O
  O62      1.0000 0.94176  0.56980  0.94176  Biso   1.000  O
  P8       1.0000 0.37669  0.06496  0.37669  Biso   1.000  P
  O63      1.0000 0.35338  0.14750  0.35338  Biso   1.000  O
  O64      1.0000 0.44176  0.06980  0.44176  Biso   1.000  O
  P9       1.0000 0.12331  0.87669  0.43504  Biso   1.000  P
  O65      1.0000 0.14662  0.85338  0.35250  Biso   1.000  O
  O66      1.0000 0.05824  0.94176  0.43020  Biso   1.000  O
  P10      1.0000 0.62331  0.37669  0.93504  Biso   1.000  P
  O67      1.0000 0.64662  0.35338  0.85250  Biso   1.000  O
  O68      1.0000 0.55824  0.44176  0.93020  Biso   1.000  O
  P11      1.0000 0.12331  0.12331  0.56496  Biso   1.000  P
  O69      1.0000 0.14662  0.14662  0.64750  Biso   1.000  O
  O70      1.0000 0.05824  0.05824  0.56980  Biso   1.000  O
  P12      1.0000 0.62331  0.62331  0.06496  Biso   1.000  P
  O71      1.0000 0.64662  0.64662  0.14750  Biso   1.000  O
  O72      1.0000 0.55824  0.55824  0.06980  Biso   1.000  O
  P13      1.0000 0.87669  0.12331  0.43504  Biso   1.000  P
  O73      1.0000 0.85338  0.14662  0.35250  Biso   1.000  O
  O74      1.0000 0.94176  0.05824  0.43020  Biso   1.000  O
  P14      1.0000 0.37669  0.62331  0.93504  Biso   1.000  P
  O75      1.0000 0.35338  0.64662  0.85250  Biso   1.000  O
  O76      1.0000 0.44176  0.55824  0.93020  Biso   1.000  O
  P15      1.0000 0.87669  0.87669  0.56496  Biso   1.000  P
  O77      1.0000 0.85338  0.85338  0.64750  Biso   1.000  O
  O78      1.0000 0.94176  0.94176  0.56980  Biso   1.000  O
  P16      1.0000 0.37669  0.37669  0.06496  Biso   1.000  P
  O79      1.0000 0.35338  0.35338  0.14750  Biso   1.000  O
  O80      1.0000 0.44176  0.44176  0.06980  Biso   1.000  O
  P17      1.0000 0.43504  0.12331  0.87669  Biso   1.000  P
  O81      1.0000 0.35250  0.14662  0.85338  Biso   1.000  O
  O82      1.0000 0.43020  0.05824  0.94176  Biso   1.000  O
  P18      1.0000 0.93504  0.62331  0.37669  Biso   1.000  P
  O83      1.0000 0.85250  0.64662  0.35338  Biso   1.000  O
  O84      1.0000 0.93020  0.55824  0.44176  Biso   1.000  O
  P19      1.0000 0.56496  0.12331  0.12331  Biso   1.000  P
  O85      1.0000 0.64750  0.14662  0.14662  Biso   1.000  O
  O86      1.0000 0.56980  0.05824  0.05824  Biso   1.000  O
  P20      1.0000 0.06496  0.62331  0.62331  Biso   1.000  P
  O87      1.0000 0.14750  0.64662  0.64662  Biso   1.000  O
  O88      1.0000 0.06980  0.55824  0.55824  Biso   1.000  O
  P21      1.0000 0.43504  0.87669  0.12331  Biso   1.000  P
  O89      1.0000 0.35250  0.85338  0.14662  Biso   1.000  O
  O90      1.0000 0.43020  0.94176  0.05824  Biso   1.000  O
  P22      1.0000 0.93504  0.37669  0.62331  Biso   1.000  P
  O91      1.0000 0.85250  0.35338  0.64662  Biso   1.000  O
  O92      1.0000 0.93020  0.44176  0.55824  Biso   1.000  O
  P23      1.0000 0.56496  0.87669  0.87669  Biso   1.000  P
  O93      1.0000 0.64750  0.85338  0.85338  Biso   1.000  O
  O94      1.0000 0.56980  0.94176  0.94176  Biso   1.000  O
  P24      1.0000 0.06496  0.37669  0.37669  Biso   1.000  P
  O95      1.0000 0.14750  0.35338  0.35338  Biso   1.000  O
  O96      1.0000 0.06980  0.44176  0.44176  Biso   1.000  O
