data_image0
_cell_length_a       16.6607
_cell_length_b       16.6607
_cell_length_c       16.6607
_cell_angle_alpha    90
_cell_angle_beta     90
_cell_angle_gamma    90

_symmetry_space_group_name_H-M    "P 1"
_symmetry_int_tables_number       1

loop_
  _symmetry_equiv_pos_as_xyz
  'x, y, z'

loop_
  _atom_site_label
  _atom_site_occupancy
  _atom_site_fract_x
  _atom_site_fract_y
  _atom_site_fract_z
  _atom_site_thermal_displace_type
  _atom_site_B_iso_or_equiv
  _atom_site_type_symbol
  O1       1.0000 0.09070  0.51867  0.80522  Biso   1.000  O
  O2       1.0000 0.59070  0.01867  0.30522  Biso   1.000  O
  O3       1.0000 0.90930  0.48133  0.80522  Biso   1.000  O
  O4       1.0000 0.40930  0.98133  0.30522  Biso   1.000  O
  O5       1.0000 0.90930  0.51867  0.19478  Biso   1.000  O
  O6       1.0000 0.40930  0.01867  0.69478  Biso   1.000  O
  O7       1.0000 0.09070  0.48133  0.19478  Biso   1.000  O
  O8       1.0000 0.59070  0.98133  0.69478  Biso   1.000  O
  O9       1.0000 0.80522  0.09070  0.51867  Biso   1.000  O
  O10      1.0000 0.30522  0.59070  0.01867  Biso   1.000  O
  O11      1.0000 0.80522  0.90930  0.48133  Biso   1.000  O
  O12      1.0000 0.30522  0.40930  0.98133  Biso   1.000  O
  O13      1.0000 0.19478  0.90930  0.51867  Biso   1.000  O
  O14      1.0000 0.69478  0.40930  0.01867  Biso   1.000  O
  O15      1.0000 0.19478  0.09070  0.48133  Biso   1.000  O
  O16      1.0000 0.69478  0.59070  0.98133  Biso   1.000  O
  O17      1.0000 0.51867  0.80522  0.09070  Biso   1.000  O
  O18      1.0000 0.01867  0.30522  0.59070  Biso   1.000  O
  O19      1.0000 0.48133  0.80522  0.90930  Biso   1.000  O
  O20      1.0000 0.98133  0.30522  0.40930  Biso   1.000  O
  O21      1.0000 0.51867  0.19478  0.90930  Biso   1.000  O
  O22      1.0000 0.01867  0.69478  0.40930  Biso   1.000  O
  O23      1.0000 0.48133  0.19478  0.09070  Biso   1.000  O
  O24      1.0000 0.98133  0.69478  0.59070  Biso   1.000  O
  O25      1.0000 0.51867  0.09070  0.80522  Biso   1.000  O
  O26      1.0000 0.01867  0.59070  0.30522  Biso   1.000  O
  O27      1.0000 0.48133  0.90930  0.80522  Biso   1.000  O
  O28      1.0000 0.98133  0.40930  0.30522  Biso   1.000  O
  O29      1.0000 0.51867  0.90930  0.19478  Biso   1.000  O
  O30      1.0000 0.01867  0.40930  0.69478  Biso   1.000  O
  O31      1.0000 0.48133  0.09070  0.19478  Biso   1.000  O
  O32      1.0000 0.98133  0.59070  0.69478  Biso   1.000  O
  O33      1.0000 0.09070  0.80522  0.51867  Biso   1.000  O
  O34      1.0000 0.59070  0.30522  0.01867  Biso   1.000  O
  O35      1.0000 0.90930  0.80522  0.48133  Biso   1.000  O
  O36      1.0000 0.40930  0.30522  0.98133  Biso   1.000  O
  O37      1.0000 0.90930  0.19478  0.51867  Biso   1.000  O
  O38      1.0000 0.40930  0.69478  0.01867  Biso   1.000  O
  O39      1.0000 0.09070  0.19478  0.48133  Biso   1.000  O
  O40      1.0000 0.59070  0.69478  0.98133  Biso   1.000  O
  O41      1.0000 0.80522  0.51867  0.09070  Biso   1.000  O
  O42      1.0000 0.30522  0.01867  0.59070  Biso   1.000  O
  O43      1.0000 0.80522  0.48133  0.90930  Biso   1.000  O
  O44      1.0000 0.30522  0.98133  0.40930  Biso   1.000  O
  O45      1.0000 0.19478  0.51867  0.90930  Biso   1.000  O
  O46      1.0000 0.69478  0.01867  0.40930  Biso   1.000  O
  O47      1.0000 0.19478  0.48133  0.09070  Biso   1.000  O
  O48      1.0000 0.69478  0.98133  0.59070  Biso   1.000  O
  Al1      1.0000 0.00000  0.50000  0.00000  Biso   1.000  Al
  Al2      1.0000 0.50000  0.00000  0.50000  Biso   1.000  Al
  Al3      1.0000 0.00000  0.00000  0.50000  Biso   1.000  Al
  Al4      1.0000 0.50000  0.50000  0.00000  Biso   1.000  Al
  Al5      1.0000 0.50000  0.00000  0.00000  Biso   1.000  Al
  Al6      1.0000 0.00000  0.50000  0.50000  Biso   1.000  Al
  Li1      1.0000 0.00000  0.50000  0.75000  Biso   1.000  Li
  Li2      1.0000 0.00000  0.50000  0.25000  Biso   1.000  Li
  Li3      1.0000 0.75000  0.00000  0.50000  Biso   1.000  Li
  Li4      1.0000 0.25000  0.00000  0.50000  Biso   1.000  Li
  Li5      1.0000 0.50000  0.75000  0.00000  Biso   1.000  Li
  Li6      1.0000 0.50000  0.25000  0.00000  Biso   1.000  Li
  Li7      1.0000 0.50000  0.00000  0.75000  Biso   1.000  Li
  Li8      1.0000 0.50000  0.00000  0.25000  Biso   1.000  Li
  Li9      1.0000 0.00000  0.75000  0.50000  Biso   1.000  Li
  Li10     1.0000 0.00000  0.25000  0.50000  Biso   1.000  Li
  Li11     1.0000 0.75000  0.50000  0.00000  Biso   1.000  Li
  Li12     1.0000 0.25000  0.50000  0.00000  Biso   1.000  Li
  P1       1.0000 0.12232  0.56584  0.87768  Biso   1.000  P
  O49      1.0000 0.14416  0.65136  0.85584  Biso   1.000  O
  O50      1.0000 0.05691  0.56595  0.94309  Biso   1.000  O
  P2       1.0000 0.62232  0.06584  0.37768  Biso   1.000  P
  O51      1.0000 0.64416  0.15136  0.35584  Biso   1.000  O
  O52      1.0000 0.55691  0.06595  0.44309  Biso   1.000  O
  P3       1.0000 0.87768  0.43416  0.87768  Biso   1.000  P
  O53      1.0000 0.85584  0.34864  0.85584  Biso   1.000  O
  O54      1.0000 0.94309  0.43405  0.94309  Biso   1.000  O
  P4       1.0000 0.37768  0.93416  0.37768  Biso   1.000  P
  O55      1.0000 0.35584  0.84864  0.35584  Biso   1.000  O
  O56      1.0000 0.44309  0.93405  0.44309  Biso   1.000  O
  P5       1.0000 0.87768  0.56584  0.12232  Biso   1.000  P
  O57      1.0000 0.85584  0.65136  0.14416  Biso   1.000  O
  O58      1.0000 0.94309  0.56595  0.05691  Biso   1.000  O
  P6       1.0000 0.37768  0.06584  0.62232  Biso   1.000  P
  O59      1.0000 0.35584  0.15136  0.64416  Biso   1.000  O
  O60      1.0000 0.44309  0.06595  0.55691  Biso   1.000  O
  P7       1.0000 0.12232  0.43416  0.12232  Biso   1.000  P
  O61      1.0000 0.14416  0.34864  0.14416  Biso   1.000  O
  O62      1.0000 0.05691  0.43405  0.05691  Biso   1.000  O
  P8       1.0000 0.62232  0.93416  0.62232  Biso   1.000  P
  O63      1.0000 0.64416  0.84864  0.64416  Biso   1.000  O
  O64      1.0000 0.55691  0.93405  0.55691  Biso   1.000  O
  P9       1.0000 0.87768  0.12232  0.56584  Biso   1.000  P
  O65      1.0000 0.85584  0.14416  0.65136  Biso   1.000  O
  O66      1.0000 0.94309  0.05691  0.56595  Biso   1.000  O
  P10      1.0000 0.37768  0.62232  0.06584  Biso   1.000  P
  O67      1.0000 0.35584  0.64416  0.15136  Biso   1.000  O
  O68      1.0000 0.44309  0.55691  0.06595  Biso   1.000  O
  P11      1.0000 0.87768  0.87768  0.43416  Biso   1.000  P
  O69      1.0000 0.85584  0.85584  0.34864  Biso   1.000  O
  O70      1.0000 0.94309  0.94309  0.43405  Biso   1.000  O
  P12      1.0000 0.37768  0.37768  0.93416  Biso   1.000  P
  O71      1.0000 0.35584  0.35584  0.84864  Biso   1.000  O
  O72      1.0000 0.44309  0.44309  0.93405  Biso   1.000  O
  P13      1.0000 0.12232  0.87768  0.56584  Biso   1.000  P
  O73      1.0000 0.14416  0.85584  0.65136  Biso   1.000  O
  O74      1.0000 0.05691  0.94309  0.56595  Biso   1.000  O
  P14      1.0000 0.62232  0.37768  0.06584  Biso   1.000  P
  O75      1.0000 0.64416  0.35584  0.15136  Biso   1.000  O
  O76      1.0000 0.55691  0.44309  0.06595  Biso   1.000  O
  P15      1.0000 0.12232  0.12232  0.43416  Biso   1.000  P
  O77      1.0000 0.14416  0.14416  0.34864  Biso   1.000  O
  O78      1.0000 0.05691  0.05691  0.43405  Biso   1.000  O
  P16      1.0000 0.62232  0.62232  0.93416  Biso   1.000  P
  O79      1.0000 0.64416  0.64416  0.84864  Biso   1.000  O
  O80      1.0000 0.55691  0.55691  0.93405  Biso   1.000  O
  P17      1.0000 0.56584  0.87768  0.12232  Biso   1.000  P
  O81      1.0000 0.65136  0.85584  0.14416  Biso   1.000  O
  O82      1.0000 0.56595  0.94309  0.05691  Biso   1.000  O
  P18      1.0000 0.06584  0.37768  0.62232  Biso   1.000  P
  O83      1.0000 0.15136  0.35584  0.64416  Biso   1.000  O
  O84      1.0000 0.06595  0.44309  0.55691  Biso   1.000  O
  P19      1.0000 0.43416  0.87768  0.87768  Biso   1.000  P
  O85      1.0000 0.34864  0.85584  0.85584  Biso   1.000  O
  O86      1.0000 0.43405  0.94309  0.94309  Biso   1.000  O
  P20      1.0000 0.93416  0.37768  0.37768  Biso   1.000  P
  O87      1.0000 0.84864  0.35584  0.35584  Biso   1.000  O
  O88      1.0000 0.93405  0.44309  0.44309  Biso   1.000  O
  P21      1.0000 0.56584  0.12232  0.87768  Biso   1.000  P
  O89      1.0000 0.65136  0.14416  0.85584  Biso   1.000  O
  O90      1.0000 0.56595  0.05691  0.94309  Biso   1.000  O
  P22      1.0000 0.06584  0.62232  0.37768  Biso   1.000  P
  O91      1.0000 0.15136  0.64416  0.35584  Biso   1.000  O
  O92      1.0000 0.06595  0.55691  0.44309  Biso   1.000  O
  P23      1.0000 0.43416  0.12232  0.12232  Biso   1.000  P
  O93      1.0000 0.34864  0.14416  0.14416  Biso   1.000  O
  O94      1.0000 0.43405  0.05691  0.05691  Biso   1.000  O
  P24      1.0000 0.93416  0.62232  0.62232  Biso   1.000  P
  O95      1.0000 0.84864  0.64416  0.64416  Biso   1.000  O
  O96      1.0000 0.93405  0.55691  0.55691  Biso   1.000  O
