data_image0
_cell_length_a       16.7444
_cell_length_b       16.7444
_cell_length_c       16.7444
_cell_angle_alpha    90
_cell_angle_beta     90
_cell_angle_gamma    90

_symmetry_space_group_name_H-M    "P 1"
_symmetry_int_tables_number       1

loop_
  _symmetry_equiv_pos_as_xyz
  'x, y, z'

loop_
  _atom_site_label
  _atom_site_occupancy
  _atom_site_fract_x
  _atom_site_fract_y
  _atom_site_fract_z
  _atom_site_thermal_displace_type
  _atom_site_B_iso_or_equiv
  _atom_site_type_symbol
  O1       1.0000 0.09180  0.52261  0.80557  Biso   1.000  O
  O2       1.0000 0.59180  0.02261  0.30557  Biso   1.000  O
  O3       1.0000 0.90820  0.47739  0.80557  Biso   1.000  O
  O4       1.0000 0.40820  0.97739  0.30557  Biso   1.000  O
  O5       1.0000 0.90820  0.52261  0.19443  Biso   1.000  O
  O6       1.0000 0.40820  0.02261  0.69443  Biso   1.000  O
  O7       1.0000 0.09180  0.47739  0.19443  Biso   1.000  O
  O8       1.0000 0.59180  0.97739  0.69443  Biso   1.000  O
  O9       1.0000 0.80557  0.09180  0.52261  Biso   1.000  O
  O10      1.0000 0.30557  0.59180  0.02261  Biso   1.000  O
  O11      1.0000 0.80557  0.90820  0.47739  Biso   1.000  O
  O12      1.0000 0.30557  0.40820  0.97739  Biso   1.000  O
  O13      1.0000 0.19443  0.90820  0.52261  Biso   1.000  O
  O14      1.0000 0.69443  0.40820  0.02261  Biso   1.000  O
  O15      1.0000 0.19443  0.09180  0.47739  Biso   1.000  O
  O16      1.0000 0.69443  0.59180  0.97739  Biso   1.000  O
  O17      1.0000 0.52261  0.80557  0.09180  Biso   1.000  O
  O18      1.0000 0.02261  0.30557  0.59180  Biso   1.000  O
  O19      1.0000 0.47739  0.80557  0.90820  Biso   1.000  O
  O20      1.0000 0.97739  0.30557  0.40820  Biso   1.000  O
  O21      1.0000 0.52261  0.19443  0.90820  Biso   1.000  O
  O22      1.0000 0.02261  0.69443  0.40820  Biso   1.000  O
  O23      1.0000 0.47739  0.19443  0.09180  Biso   1.000  O
  O24      1.0000 0.97739  0.69443  0.59180  Biso   1.000  O
  O25      1.0000 0.52261  0.09180  0.80557  Biso   1.000  O
  O26      1.0000 0.02261  0.59180  0.30557  Biso   1.000  O
  O27      1.0000 0.47739  0.90820  0.80557  Biso   1.000  O
  O28      1.0000 0.97739  0.40820  0.30557  Biso   1.000  O
  O29      1.0000 0.52261  0.90820  0.19443  Biso   1.000  O
  O30      1.0000 0.02261  0.40820  0.69443  Biso   1.000  O
  O31      1.0000 0.47739  0.09180  0.19443  Biso   1.000  O
  O32      1.0000 0.97739  0.59180  0.69443  Biso   1.000  O
  O33      1.0000 0.09180  0.80557  0.52261  Biso   1.000  O
  O34      1.0000 0.59180  0.30557  0.02261  Biso   1.000  O
  O35      1.0000 0.90820  0.80557  0.47739  Biso   1.000  O
  O36      1.0000 0.40820  0.30557  0.97739  Biso   1.000  O
  O37      1.0000 0.90820  0.19443  0.52261  Biso   1.000  O
  O38      1.0000 0.40820  0.69443  0.02261  Biso   1.000  O
  O39      1.0000 0.09180  0.19443  0.47739  Biso   1.000  O
  O40      1.0000 0.59180  0.69443  0.97739  Biso   1.000  O
  O41      1.0000 0.80557  0.52261  0.09180  Biso   1.000  O
  O42      1.0000 0.30557  0.02261  0.59180  Biso   1.000  O
  O43      1.0000 0.80557  0.47739  0.90820  Biso   1.000  O
  O44      1.0000 0.30557  0.97739  0.40820  Biso   1.000  O
  O45      1.0000 0.19443  0.52261  0.90820  Biso   1.000  O
  O46      1.0000 0.69443  0.02261  0.40820  Biso   1.000  O
  O47      1.0000 0.19443  0.47739  0.09180  Biso   1.000  O
  O48      1.0000 0.69443  0.97739  0.59180  Biso   1.000  O
  Al1      1.0000 0.00000  0.50000  0.00000  Biso   1.000  Al
  Al2      1.0000 0.50000  0.00000  0.50000  Biso   1.000  Al
  Al3      1.0000 0.00000  0.00000  0.50000  Biso   1.000  Al
  Al4      1.0000 0.50000  0.50000  0.00000  Biso   1.000  Al
  Al5      1.0000 0.50000  0.00000  0.00000  Biso   1.000  Al
  Al6      1.0000 0.00000  0.50000  0.50000  Biso   1.000  Al
  Na1      1.0000 0.00000  0.50000  0.75000  Biso   1.000  Na
  Na2      1.0000 0.00000  0.50000  0.25000  Biso   1.000  Na
  Na3      1.0000 0.75000  0.00000  0.50000  Biso   1.000  Na
  Na4      1.0000 0.25000  0.00000  0.50000  Biso   1.000  Na
  Na5      1.0000 0.50000  0.75000  0.00000  Biso   1.000  Na
  Na6      1.0000 0.50000  0.25000  0.00000  Biso   1.000  Na
  Na7      1.0000 0.50000  0.00000  0.75000  Biso   1.000  Na
  Na8      1.0000 0.50000  0.00000  0.25000  Biso   1.000  Na
  Na9      1.0000 0.00000  0.75000  0.50000  Biso   1.000  Na
  Na10     1.0000 0.00000  0.25000  0.50000  Biso   1.000  Na
  Na11     1.0000 0.75000  0.50000  0.00000  Biso   1.000  Na
  Na12     1.0000 0.25000  0.50000  0.00000  Biso   1.000  Na
  P1       1.0000 0.12169  0.56872  0.87831  Biso   1.000  P
  O49      1.0000 0.13925  0.65520  0.86075  Biso   1.000  O
  O50      1.0000 0.05728  0.56330  0.94272  Biso   1.000  O
  P2       1.0000 0.62169  0.06872  0.37831  Biso   1.000  P
  O51      1.0000 0.63925  0.15520  0.36075  Biso   1.000  O
  O52      1.0000 0.55728  0.06330  0.44272  Biso   1.000  O
  P3       1.0000 0.87831  0.43128  0.87831  Biso   1.000  P
  O53      1.0000 0.86075  0.34480  0.86075  Biso   1.000  O
  O54      1.0000 0.94272  0.43670  0.94272  Biso   1.000  O
  P4       1.0000 0.37831  0.93128  0.37831  Biso   1.000  P
  O55      1.0000 0.36075  0.84480  0.36075  Biso   1.000  O
  O56      1.0000 0.44272  0.93670  0.44272  Biso   1.000  O
  P5       1.0000 0.87831  0.56872  0.12169  Biso   1.000  P
  O57      1.0000 0.86075  0.65520  0.13925  Biso   1.000  O
  O58      1.0000 0.94272  0.56330  0.05728  Biso   1.000  O
  P6       1.0000 0.37831  0.06872  0.62169  Biso   1.000  P
  O59      1.0000 0.36075  0.15520  0.63925  Biso   1.000  O
  O60      1.0000 0.44272  0.06330  0.55728  Biso   1.000  O
  P7       1.0000 0.12169  0.43128  0.12169  Biso   1.000  P
  O61      1.0000 0.13925  0.34480  0.13925  Biso   1.000  O
  O62      1.0000 0.05728  0.43670  0.05728  Biso   1.000  O
  P8       1.0000 0.62169  0.93128  0.62169  Biso   1.000  P
  O63      1.0000 0.63925  0.84480  0.63925  Biso   1.000  O
  O64      1.0000 0.55728  0.93670  0.55728  Biso   1.000  O
  P9       1.0000 0.87831  0.12169  0.56872  Biso   1.000  P
  O65      1.0000 0.86075  0.13925  0.65520  Biso   1.000  O
  O66      1.0000 0.94272  0.05728  0.56330  Biso   1.000  O
  P10      1.0000 0.37831  0.62169  0.06872  Biso   1.000  P
  O67      1.0000 0.36075  0.63925  0.15520  Biso   1.000  O
  O68      1.0000 0.44272  0.55728  0.06330  Biso   1.000  O
  P11      1.0000 0.87831  0.87831  0.43128  Biso   1.000  P
  O69      1.0000 0.86075  0.86075  0.34480  Biso   1.000  O
  O70      1.0000 0.94272  0.94272  0.43670  Biso   1.000  O
  P12      1.0000 0.37831  0.37831  0.93128  Biso   1.000  P
  O71      1.0000 0.36075  0.36075  0.84480  Biso   1.000  O
  O72      1.0000 0.44272  0.44272  0.93670  Biso   1.000  O
  P13      1.0000 0.12169  0.87831  0.56872  Biso   1.000  P
  O73      1.0000 0.13925  0.86075  0.65520  Biso   1.000  O
  O74      1.0000 0.05728  0.94272  0.56330  Biso   1.000  O
  P14      1.0000 0.62169  0.37831  0.06872  Biso   1.000  P
  O75      1.0000 0.63925  0.36075  0.15520  Biso   1.000  O
  O76      1.0000 0.55728  0.44272  0.06330  Biso   1.000  O
  P15      1.0000 0.12169  0.12169  0.43128  Biso   1.000  P
  O77      1.0000 0.13925  0.13925  0.34480  Biso   1.000  O
  O78      1.0000 0.05728  0.05728  0.43670  Biso   1.000  O
  P16      1.0000 0.62169  0.62169  0.93128  Biso   1.000  P
  O79      1.0000 0.63925  0.63925  0.84480  Biso   1.000  O
  O80      1.0000 0.55728  0.55728  0.93670  Biso   1.000  O
  P17      1.0000 0.56872  0.87831  0.12169  Biso   1.000  P
  O81      1.0000 0.65520  0.86075  0.13925  Biso   1.000  O
  O82      1.0000 0.56330  0.94272  0.05728  Biso   1.000  O
  P18      1.0000 0.06872  0.37831  0.62169  Biso   1.000  P
  O83      1.0000 0.15520  0.36075  0.63925  Biso   1.000  O
  O84      1.0000 0.06330  0.44272  0.55728  Biso   1.000  O
  P19      1.0000 0.43128  0.87831  0.87831  Biso   1.000  P
  O85      1.0000 0.34480  0.86075  0.86075  Biso   1.000  O
  O86      1.0000 0.43670  0.94272  0.94272  Biso   1.000  O
  P20      1.0000 0.93128  0.37831  0.37831  Biso   1.000  P
  O87      1.0000 0.84480  0.36075  0.36075  Biso   1.000  O
  O88      1.0000 0.93670  0.44272  0.44272  Biso   1.000  O
  P21      1.0000 0.56872  0.12169  0.87831  Biso   1.000  P
  O89      1.0000 0.65520  0.13925  0.86075  Biso   1.000  O
  O90      1.0000 0.56330  0.05728  0.94272  Biso   1.000  O
  P22      1.0000 0.06872  0.62169  0.37831  Biso   1.000  P
  O91      1.0000 0.15520  0.63925  0.36075  Biso   1.000  O
  O92      1.0000 0.06330  0.55728  0.44272  Biso   1.000  O
  P23      1.0000 0.43128  0.12169  0.12169  Biso   1.000  P
  O93      1.0000 0.34480  0.13925  0.13925  Biso   1.000  O
  O94      1.0000 0.43670  0.05728  0.05728  Biso   1.000  O
  P24      1.0000 0.93128  0.62169  0.62169  Biso   1.000  P
  O95      1.0000 0.84480  0.63925  0.63925  Biso   1.000  O
  O96      1.0000 0.93670  0.55728  0.55728  Biso   1.000  O
