data_image0
_cell_length_a       25.158
_cell_length_b       9.0536
_cell_length_c       10.166
_cell_angle_alpha    90
_cell_angle_beta     90
_cell_angle_gamma    90

_symmetry_space_group_name_H-M    "P 1"
_symmetry_int_tables_number       1

loop_
  _symmetry_equiv_pos_as_xyz
  'x, y, z'

loop_
  _atom_site_label
  _atom_site_occupancy
  _atom_site_fract_x
  _atom_site_fract_y
  _atom_site_fract_z
  _atom_site_thermal_displace_type
  _atom_site_B_iso_or_equiv
  _atom_site_type_symbol
  Ga1      1.0000 0.88335  0.12231  0.31131  Biso   1.000  Ga
  Ga2      1.0000 0.76735  0.66977  0.51069  Biso   1.000  Ga
  P1       1.0000 0.99470  0.11340  0.17840  Biso   1.000  P
  P2       1.0000 0.83875  0.04568  0.03839  Biso   1.000  P
  P3       1.0000 0.80216  0.38883  0.32008  Biso   1.000  P
  O1       1.0000 0.85653  0.30810  0.33130  Biso   1.000  O
  O2       1.0000 0.80756  0.52650  0.40370  Biso   1.000  O
  O3       1.0000 0.95175  0.16660  0.26870  Biso   1.000  O
  O4       1.0000 0.85135  0.01290  0.18350  Biso   1.000  O
  O5       1.0000 0.79283  0.43110  0.17460  Biso   1.000  O
  O6       1.0000 0.88729  0.99360  0.95800  Biso   1.000  O
  O7       1.0000 0.83140  0.21090  0.02070  Biso   1.000  O
  O8       1.0000 0.75723  0.28430  0.36240  Biso   1.000  O
  O9       1.0000 0.98750  0.18430  0.04160  Biso   1.000  O
  O10      1.0000 0.99100  0.94370  0.16770  Biso   1.000  O
  O11      1.0000 0.79118  0.96090  0.99380  Biso   1.000  O
  Ga3      1.0000 0.61665  0.37769  0.81131  Biso   1.000  Ga
  Ga4      1.0000 0.73265  0.83023  0.01069  Biso   1.000  Ga
  P4       1.0000 0.50530  0.38660  0.67840  Biso   1.000  P
  P5       1.0000 0.66125  0.45432  0.53839  Biso   1.000  P
  P6       1.0000 0.69784  0.11117  0.82008  Biso   1.000  P
  O12      1.0000 0.64347  0.19190  0.83130  Biso   1.000  O
  O13      1.0000 0.69244  0.97350  0.90370  Biso   1.000  O
  O14      1.0000 0.54825  0.33340  0.76870  Biso   1.000  O
  O15      1.0000 0.64865  0.48710  0.68350  Biso   1.000  O
  O16      1.0000 0.70717  0.06890  0.67460  Biso   1.000  O
  O17      1.0000 0.61271  0.50640  0.45800  Biso   1.000  O
  O18      1.0000 0.66860  0.28910  0.52070  Biso   1.000  O
  O19      1.0000 0.74277  0.21570  0.86240  Biso   1.000  O
  O20      1.0000 0.51250  0.31570  0.54160  Biso   1.000  O
  O21      1.0000 0.50900  0.55630  0.66770  Biso   1.000  O
  O22      1.0000 0.70882  0.53910  0.49380  Biso   1.000  O
  Ga5      1.0000 0.11665  0.12231  0.18869  Biso   1.000  Ga
  Ga6      1.0000 0.23265  0.66977  0.98931  Biso   1.000  Ga
  P7       1.0000 0.00530  0.11340  0.32160  Biso   1.000  P
  P8       1.0000 0.16125  0.04568  0.46161  Biso   1.000  P
  P9       1.0000 0.19784  0.38883  0.17992  Biso   1.000  P
  O23      1.0000 0.14347  0.30810  0.16870  Biso   1.000  O
  O24      1.0000 0.19244  0.52650  0.09630  Biso   1.000  O
  O25      1.0000 0.04825  0.16660  0.23130  Biso   1.000  O
  O26      1.0000 0.14865  0.01290  0.31650  Biso   1.000  O
  O27      1.0000 0.20717  0.43110  0.32540  Biso   1.000  O
  O28      1.0000 0.11271  0.99360  0.54200  Biso   1.000  O
  O29      1.0000 0.16860  0.21090  0.47930  Biso   1.000  O
  O30      1.0000 0.24277  0.28430  0.13760  Biso   1.000  O
  O31      1.0000 0.01250  0.18430  0.45840  Biso   1.000  O
  O32      1.0000 0.00900  0.94370  0.33230  Biso   1.000  O
  O33      1.0000 0.20882  0.96090  0.50620  Biso   1.000  O
  Ga7      1.0000 0.38335  0.37769  0.68869  Biso   1.000  Ga
  Ga8      1.0000 0.26735  0.83023  0.48931  Biso   1.000  Ga
  P10      1.0000 0.49470  0.38660  0.82160  Biso   1.000  P
  P11      1.0000 0.33875  0.45432  0.96161  Biso   1.000  P
  P12      1.0000 0.30216  0.11117  0.67992  Biso   1.000  P
  O34      1.0000 0.35653  0.19190  0.66870  Biso   1.000  O
  O35      1.0000 0.30756  0.97350  0.59630  Biso   1.000  O
  O36      1.0000 0.45175  0.33340  0.73130  Biso   1.000  O
  O37      1.0000 0.35135  0.48710  0.81650  Biso   1.000  O
  O38      1.0000 0.29283  0.06890  0.82540  Biso   1.000  O
  O39      1.0000 0.38729  0.50640  0.04200  Biso   1.000  O
  O40      1.0000 0.33140  0.28910  0.97930  Biso   1.000  O
  O41      1.0000 0.25723  0.21570  0.63760  Biso   1.000  O
  O42      1.0000 0.48750  0.31570  0.95840  Biso   1.000  O
  O43      1.0000 0.49100  0.55630  0.83230  Biso   1.000  O
  O44      1.0000 0.29118  0.53910  0.00620  Biso   1.000  O
  Ga9      1.0000 0.11665  0.87769  0.68869  Biso   1.000  Ga
  Ga10     1.0000 0.23265  0.33023  0.48931  Biso   1.000  Ga
  P13      1.0000 0.00530  0.88660  0.82160  Biso   1.000  P
  P14      1.0000 0.16125  0.95432  0.96161  Biso   1.000  P
  P15      1.0000 0.19784  0.61117  0.67992  Biso   1.000  P
  O45      1.0000 0.14347  0.69190  0.66870  Biso   1.000  O
  O46      1.0000 0.19244  0.47350  0.59630  Biso   1.000  O
  O47      1.0000 0.04825  0.83340  0.73130  Biso   1.000  O
  O48      1.0000 0.14865  0.98710  0.81650  Biso   1.000  O
  O49      1.0000 0.20717  0.56890  0.82540  Biso   1.000  O
  O50      1.0000 0.11271  0.00640  0.04200  Biso   1.000  O
  O51      1.0000 0.16860  0.78910  0.97930  Biso   1.000  O
  O52      1.0000 0.24277  0.71570  0.63760  Biso   1.000  O
  O53      1.0000 0.01250  0.81570  0.95840  Biso   1.000  O
  O54      1.0000 0.00900  0.05630  0.83230  Biso   1.000  O
  O55      1.0000 0.20882  0.03910  0.00620  Biso   1.000  O
  Ga11     1.0000 0.38335  0.62231  0.18869  Biso   1.000  Ga
  Ga12     1.0000 0.26735  0.16977  0.98931  Biso   1.000  Ga
  P16      1.0000 0.49470  0.61340  0.32160  Biso   1.000  P
  P17      1.0000 0.33875  0.54568  0.46161  Biso   1.000  P
  P18      1.0000 0.30216  0.88883  0.17992  Biso   1.000  P
  O56      1.0000 0.35653  0.80810  0.16870  Biso   1.000  O
  O57      1.0000 0.30756  0.02650  0.09630  Biso   1.000  O
  O58      1.0000 0.45175  0.66660  0.23130  Biso   1.000  O
  O59      1.0000 0.35135  0.51290  0.31650  Biso   1.000  O
  O60      1.0000 0.29283  0.93110  0.32540  Biso   1.000  O
  O61      1.0000 0.38729  0.49360  0.54200  Biso   1.000  O
  O62      1.0000 0.33140  0.71090  0.47930  Biso   1.000  O
  O63      1.0000 0.25723  0.78430  0.13760  Biso   1.000  O
  O64      1.0000 0.48750  0.68430  0.45840  Biso   1.000  O
  O65      1.0000 0.49100  0.44370  0.33230  Biso   1.000  O
  O66      1.0000 0.29118  0.46090  0.50620  Biso   1.000  O
  Ga13     1.0000 0.88335  0.87769  0.81131  Biso   1.000  Ga
  Ga14     1.0000 0.76735  0.33023  0.01069  Biso   1.000  Ga
  P19      1.0000 0.99470  0.88660  0.67840  Biso   1.000  P
  P20      1.0000 0.83875  0.95432  0.53839  Biso   1.000  P
  P21      1.0000 0.80216  0.61117  0.82008  Biso   1.000  P
  O67      1.0000 0.85653  0.69190  0.83130  Biso   1.000  O
  O68      1.0000 0.80756  0.47350  0.90370  Biso   1.000  O
  O69      1.0000 0.95175  0.83340  0.76870  Biso   1.000  O
  O70      1.0000 0.85135  0.98710  0.68350  Biso   1.000  O
  O71      1.0000 0.79283  0.56890  0.67460  Biso   1.000  O
  O72      1.0000 0.88729  0.00640  0.45800  Biso   1.000  O
  O73      1.0000 0.83140  0.78910  0.52070  Biso   1.000  O
  O74      1.0000 0.75723  0.71570  0.86240  Biso   1.000  O
  O75      1.0000 0.98750  0.81570  0.54160  Biso   1.000  O
  O76      1.0000 0.99100  0.05630  0.66770  Biso   1.000  O
  O77      1.0000 0.79118  0.03910  0.49380  Biso   1.000  O
  Ga15     1.0000 0.61665  0.62231  0.31131  Biso   1.000  Ga
  Ga16     1.0000 0.73265  0.16977  0.51069  Biso   1.000  Ga
  P22      1.0000 0.50530  0.61340  0.17840  Biso   1.000  P
  P23      1.0000 0.66125  0.54568  0.03839  Biso   1.000  P
  P24      1.0000 0.69784  0.88883  0.32008  Biso   1.000  P
  O78      1.0000 0.64347  0.80810  0.33130  Biso   1.000  O
  O79      1.0000 0.69244  0.02650  0.40370  Biso   1.000  O
  O80      1.0000 0.54825  0.66660  0.26870  Biso   1.000  O
  O81      1.0000 0.64865  0.51290  0.18350  Biso   1.000  O
  O82      1.0000 0.70717  0.93110  0.17460  Biso   1.000  O
  O83      1.0000 0.61271  0.49360  0.95800  Biso   1.000  O
  O84      1.0000 0.66860  0.71090  0.02070  Biso   1.000  O
  O85      1.0000 0.74277  0.78430  0.36240  Biso   1.000  O
  O86      1.0000 0.51250  0.68430  0.04160  Biso   1.000  O
  O87      1.0000 0.50900  0.44370  0.16770  Biso   1.000  O
  O88      1.0000 0.70882  0.46090  0.99380  Biso   1.000  O
