data_image0
_cell_length_a       12.264
_cell_length_b       12.264
_cell_length_c       5.2535
_cell_angle_alpha    90
_cell_angle_beta     90
_cell_angle_gamma    90

_symmetry_space_group_name_H-M    "P 1"
_symmetry_int_tables_number       1

loop_
  _symmetry_equiv_pos_as_xyz
  'x, y, z'

loop_
  _atom_site_label
  _atom_site_occupancy
  _atom_site_fract_x
  _atom_site_fract_y
  _atom_site_fract_z
  _atom_site_thermal_displace_type
  _atom_site_B_iso_or_equiv
  _atom_site_type_symbol
  Co1      1.0000 0.17871  0.51530  0.21753  Biso   1.000  Co
  S1       1.0000 0.06093  0.19272  0.15290  Biso   1.000  S
  N1       1.0000 0.11590  0.37360  0.40190  Biso   1.000  N
  H1       1.0000 0.09090  0.39570  0.52670  Biso   1.000  H
  C1       1.0000 0.02440  0.33020  0.25290  Biso   1.000  C
  H2       1.0000 0.95850  0.32790  0.35850  Biso   1.000  H
  C2       1.0000 0.00300  0.39620  0.01640  Biso   1.000  C
  C3       1.0000 0.20350  0.29360  0.43500  Biso   1.000  C
  H3       1.0000 0.23410  0.30240  0.60610  Biso   1.000  H
  C4       1.0000 0.29310  0.31390  0.24280  Biso   1.000  C
  C5       1.0000 0.15450  0.18120  0.41560  Biso   1.000  C
  H4       1.0000 0.11660  0.16170  0.57110  Biso   1.000  H
  H5       1.0000 0.21020  0.12700  0.38110  Biso   1.000  H
  O1       1.0000 0.91820  0.37210  0.89740  Biso   1.000  O
  O2       1.0000 0.06980  0.46770  0.94600  Biso   1.000  O
  O3       1.0000 0.29270  0.39880  0.11400  Biso   1.000  O
  O4       1.0000 0.36740  0.24340  0.22080  Biso   1.000  O
  Co2      1.0000 0.82129  0.48470  0.71753  Biso   1.000  Co
  S2       1.0000 0.93907  0.80728  0.65290  Biso   1.000  S
  N2       1.0000 0.88410  0.62640  0.90190  Biso   1.000  N
  H6       1.0000 0.90910  0.60430  0.02670  Biso   1.000  H
  C6       1.0000 0.97560  0.66980  0.75290  Biso   1.000  C
  H7       1.0000 0.04150  0.67210  0.85850  Biso   1.000  H
  C7       1.0000 0.99700  0.60380  0.51640  Biso   1.000  C
  C8       1.0000 0.79650  0.70640  0.93500  Biso   1.000  C
  H8       1.0000 0.76590  0.69760  0.10610  Biso   1.000  H
  C9       1.0000 0.70690  0.68610  0.74280  Biso   1.000  C
  C10      1.0000 0.84550  0.81880  0.91560  Biso   1.000  C
  H9       1.0000 0.88340  0.83830  0.07110  Biso   1.000  H
  H10      1.0000 0.78980  0.87300  0.88110  Biso   1.000  H
  O5       1.0000 0.08180  0.62790  0.39740  Biso   1.000  O
  O6       1.0000 0.93020  0.53230  0.44600  Biso   1.000  O
  O7       1.0000 0.70730  0.60120  0.61400  Biso   1.000  O
  O8       1.0000 0.63260  0.75660  0.72080  Biso   1.000  O
  Co3      1.0000 0.48470  0.17871  0.46753  Biso   1.000  Co
  S3       1.0000 0.80728  0.06093  0.40290  Biso   1.000  S
  N3       1.0000 0.62640  0.11590  0.65190  Biso   1.000  N
  H11      1.0000 0.60430  0.09090  0.77670  Biso   1.000  H
  C11      1.0000 0.66980  0.02440  0.50290  Biso   1.000  C
  H12      1.0000 0.67210  0.95850  0.60850  Biso   1.000  H
  C12      1.0000 0.60380  0.00300  0.26640  Biso   1.000  C
  C13      1.0000 0.70640  0.20350  0.68500  Biso   1.000  C
  H13      1.0000 0.69760  0.23410  0.85610  Biso   1.000  H
  C14      1.0000 0.68610  0.29310  0.49280  Biso   1.000  C
  C15      1.0000 0.81880  0.15450  0.66560  Biso   1.000  C
  H14      1.0000 0.83830  0.11660  0.82110  Biso   1.000  H
  H15      1.0000 0.87300  0.21020  0.63110  Biso   1.000  H
  O9       1.0000 0.62790  0.91820  0.14740  Biso   1.000  O
  O10      1.0000 0.53230  0.06980  0.19600  Biso   1.000  O
  O11      1.0000 0.60120  0.29270  0.36400  Biso   1.000  O
  O12      1.0000 0.75660  0.36740  0.47080  Biso   1.000  O
  Co4      1.0000 0.51530  0.82129  0.96753  Biso   1.000  Co
  S4       1.0000 0.19272  0.93907  0.90290  Biso   1.000  S
  N4       1.0000 0.37360  0.88410  0.15190  Biso   1.000  N
  H16      1.0000 0.39570  0.90910  0.27670  Biso   1.000  H
  C16      1.0000 0.33020  0.97560  0.00290  Biso   1.000  C
  H17      1.0000 0.32790  0.04150  0.10850  Biso   1.000  H
  C17      1.0000 0.39620  0.99700  0.76640  Biso   1.000  C
  C18      1.0000 0.29360  0.79650  0.18500  Biso   1.000  C
  H18      1.0000 0.30240  0.76590  0.35610  Biso   1.000  H
  C19      1.0000 0.31390  0.70690  0.99280  Biso   1.000  C
  C20      1.0000 0.18120  0.84550  0.16560  Biso   1.000  C
  H19      1.0000 0.16170  0.88340  0.32110  Biso   1.000  H
  H20      1.0000 0.12700  0.78980  0.13110  Biso   1.000  H
  O13      1.0000 0.37210  0.08180  0.64740  Biso   1.000  O
  O14      1.0000 0.46770  0.93020  0.69600  Biso   1.000  O
  O15      1.0000 0.39880  0.70730  0.86400  Biso   1.000  O
  O16      1.0000 0.24340  0.63260  0.97080  Biso   1.000  O
