data_image0
_cell_length_a       12.367
_cell_length_b       12.367
_cell_length_c       5.2934
_cell_angle_alpha    90
_cell_angle_beta     90
_cell_angle_gamma    90

_symmetry_space_group_name_H-M    "P 1"
_symmetry_int_tables_number       1

loop_
  _symmetry_equiv_pos_as_xyz
  'x, y, z'

loop_
  _atom_site_label
  _atom_site_occupancy
  _atom_site_fract_x
  _atom_site_fract_y
  _atom_site_fract_z
  _atom_site_thermal_displace_type
  _atom_site_B_iso_or_equiv
  _atom_site_type_symbol
  Co1      1.0000 0.67880  0.01520  0.53730  Biso   1.000  Co
  S1       1.0000 0.56086  0.69305  0.47320  Biso   1.000  S
  N1       1.0000 0.61700  0.87360  0.72180  Biso   1.000  N
  C1       1.0000 0.65440  0.68150  0.72820  Biso   1.000  C
  H1       1.0000 0.61770  0.66040  0.88240  Biso   1.000  H
  H2       1.0000 0.70970  0.62830  0.69010  Biso   1.000  H
  C2       1.0000 0.70370  0.79350  0.75490  Biso   1.000  C
  H3       1.0000 0.73390  0.80090  0.92510  Biso   1.000  H
  C3       1.0000 0.79330  0.81340  0.56090  Biso   1.000  C
  C4       1.0000 0.52600  0.83110  0.56890  Biso   1.000  C
  H4       1.0000 0.46060  0.82910  0.67340  Biso   1.000  H
  C5       1.0000 0.50340  0.89560  0.33440  Biso   1.000  C
  O1       1.0000 0.86780  0.74290  0.53620  Biso   1.000  O
  O2       1.0000 0.79290  0.89980  0.43400  Biso   1.000  O
  O3       1.0000 0.57030  0.96780  0.26880  Biso   1.000  O
  O4       1.0000 0.41950  0.87230  0.21660  Biso   1.000  O
  H5       1.0000 0.59980  0.87730  0.87000  Biso   1.000  H
  Co2      1.0000 0.32120  0.98480  0.03730  Biso   1.000  Co
  S2       1.0000 0.43914  0.30695  0.97320  Biso   1.000  S
  N2       1.0000 0.38300  0.12640  0.22180  Biso   1.000  N
  C6       1.0000 0.34560  0.31850  0.22820  Biso   1.000  C
  H6       1.0000 0.38230  0.33960  0.38240  Biso   1.000  H
  H7       1.0000 0.29030  0.37170  0.19010  Biso   1.000  H
  C7       1.0000 0.29630  0.20650  0.25490  Biso   1.000  C
  H8       1.0000 0.26610  0.19910  0.42510  Biso   1.000  H
  C8       1.0000 0.20670  0.18660  0.06090  Biso   1.000  C
  C9       1.0000 0.47400  0.16890  0.06890  Biso   1.000  C
  H9       1.0000 0.53940  0.17090  0.17340  Biso   1.000  H
  C10      1.0000 0.49660  0.10440  0.83440  Biso   1.000  C
  O5       1.0000 0.13220  0.25710  0.03620  Biso   1.000  O
  O6       1.0000 0.20710  0.10020  0.93400  Biso   1.000  O
  O7       1.0000 0.42970  0.03220  0.76880  Biso   1.000  O
  O8       1.0000 0.58050  0.12770  0.71660  Biso   1.000  O
  H10      1.0000 0.40020  0.12270  0.37000  Biso   1.000  H
  Co3      1.0000 0.98480  0.67880  0.78730  Biso   1.000  Co
  S3       1.0000 0.30695  0.56086  0.72320  Biso   1.000  S
  N3       1.0000 0.12640  0.61700  0.97180  Biso   1.000  N
  C11      1.0000 0.31850  0.65440  0.97820  Biso   1.000  C
  H11      1.0000 0.33960  0.61770  0.13240  Biso   1.000  H
  H12      1.0000 0.37170  0.70970  0.94010  Biso   1.000  H
  C12      1.0000 0.20650  0.70370  0.00490  Biso   1.000  C
  H13      1.0000 0.19910  0.73390  0.17510  Biso   1.000  H
  C13      1.0000 0.18660  0.79330  0.81090  Biso   1.000  C
  C14      1.0000 0.16890  0.52600  0.81890  Biso   1.000  C
  H14      1.0000 0.17090  0.46060  0.92340  Biso   1.000  H
  C15      1.0000 0.10440  0.50340  0.58440  Biso   1.000  C
  O9       1.0000 0.25710  0.86780  0.78620  Biso   1.000  O
  O10      1.0000 0.10020  0.79290  0.68400  Biso   1.000  O
  O11      1.0000 0.03220  0.57030  0.51880  Biso   1.000  O
  O12      1.0000 0.12770  0.41950  0.46660  Biso   1.000  O
  H15      1.0000 0.12270  0.59980  0.12000  Biso   1.000  H
  Co4      1.0000 0.01520  0.32120  0.28730  Biso   1.000  Co
  S4       1.0000 0.69305  0.43914  0.22320  Biso   1.000  S
  N4       1.0000 0.87360  0.38300  0.47180  Biso   1.000  N
  C16      1.0000 0.68150  0.34560  0.47820  Biso   1.000  C
  H16      1.0000 0.66040  0.38230  0.63240  Biso   1.000  H
  H17      1.0000 0.62830  0.29030  0.44010  Biso   1.000  H
  C17      1.0000 0.79350  0.29630  0.50490  Biso   1.000  C
  H18      1.0000 0.80090  0.26610  0.67510  Biso   1.000  H
  C18      1.0000 0.81340  0.20670  0.31090  Biso   1.000  C
  C19      1.0000 0.83110  0.47400  0.31890  Biso   1.000  C
  H19      1.0000 0.82910  0.53940  0.42340  Biso   1.000  H
  C20      1.0000 0.89560  0.49660  0.08440  Biso   1.000  C
  O13      1.0000 0.74290  0.13220  0.28620  Biso   1.000  O
  O14      1.0000 0.89980  0.20710  0.18400  Biso   1.000  O
  O15      1.0000 0.96780  0.42970  0.01880  Biso   1.000  O
  O16      1.0000 0.87230  0.58050  0.96660  Biso   1.000  O
  H20      1.0000 0.87730  0.40020  0.62000  Biso   1.000  H
