data_image0
_cell_length_a       9.5285
_cell_length_b       12.76
_cell_length_c       18.896
_cell_angle_alpha    106.72
_cell_angle_beta     98.91
_cell_angle_gamma    98.59

_symmetry_space_group_name_H-M    "P 1"
_symmetry_int_tables_number       1

loop_
  _symmetry_equiv_pos_as_xyz
  'x, y, z'

loop_
  _atom_site_label
  _atom_site_occupancy
  _atom_site_fract_x
  _atom_site_fract_y
  _atom_site_fract_z
  _atom_site_thermal_displace_type
  _atom_site_B_iso_or_equiv
  _atom_site_type_symbol
  Pr1      1.0000 0.76770  0.98611  0.49706  Biso   1.000  Pr
  O1       1.0000 0.54530  0.96140  0.41139  Biso   1.000  O
  O2       1.0000 0.31230  0.95920  0.38227  Biso   1.000  O
  O3       1.0000 0.14370  0.94260  0.60099  Biso   1.000  O
  O4       1.0000 0.90400  0.89470  0.57077  Biso   1.000  O
  O5       1.0000 0.98850  0.11650  0.57177  Biso   1.000  O
  O6       1.0000 0.22330  0.18190  0.60630  Biso   1.000  O
  N1       1.0000 0.43250  0.82550  0.13200  Biso   1.000  N
  N2       1.0000 0.00960  0.86340  0.82500  Biso   1.000  N
  N3       1.0000 0.04250  0.40380  0.81980  Biso   1.000  N
  C1       1.0000 0.43160  0.94560  0.36480  Biso   1.000  C
  C2       1.0000 0.55750  0.84760  0.18290  Biso   1.000  C
  H1       1.0000 0.64250  0.83560  0.16640  Biso   1.000  H
  C3       1.0000 0.56050  0.88740  0.25790  Biso   1.000  C
  H2       1.0000 0.64730  0.90270  0.29270  Biso   1.000  H
  C4       1.0000 0.43370  0.90510  0.28260  Biso   1.000  C
  C5       1.0000 0.30840  0.88460  0.22970  Biso   1.000  C
  H3       1.0000 0.22250  0.89750  0.24490  Biso   1.000  H
  C6       1.0000 0.31050  0.84500  0.15430  Biso   1.000  C
  H4       1.0000 0.22570  0.83170  0.11840  Biso   1.000  H
  C7       1.0000 0.02460  0.91100  0.61320  Biso   1.000  C
  C8       1.0000 0.89070  0.87540  0.78420  Biso   1.000  C
  H5       1.0000 0.80620  0.87640  0.80300  Biso   1.000  H
  C9       1.0000 0.89180  0.88650  0.71420  Biso   1.000  C
  H6       1.0000 0.80680  0.89060  0.68440  Biso   1.000  H
  C10      1.0000 0.01940  0.89170  0.68810  Biso   1.000  C
  C11      1.0000 0.14180  0.87990  0.73190  Biso   1.000  C
  H7       1.0000 0.22820  0.88120  0.71480  Biso   1.000  H
  C12      1.0000 0.13600  0.86620  0.80080  Biso   1.000  C
  H8       1.0000 0.21870  0.85900  0.83080  Biso   1.000  H
  C13      1.0000 0.09580  0.18350  0.61500  Biso   1.000  C
  C14      1.0000 0.17020  0.40210  0.80550  Biso   1.000  C
  H9       1.0000 0.25020  0.44790  0.84160  Biso   1.000  H
  C15      1.0000 0.19200  0.33470  0.73850  Biso   1.000  C
  H10      1.0000 0.28510  0.33630  0.72910  Biso   1.000  H
  C16      1.0000 0.07510  0.26550  0.68580  Biso   1.000  C
  C17      1.0000 0.93960  0.27250  0.70080  Biso   1.000  C
  H11      1.0000 0.85770  0.22980  0.66480  Biso   1.000  H
  C18      1.0000 0.92410  0.34030  0.76690  Biso   1.000  C
  H12      1.0000 0.83170  0.34370  0.77640  Biso   1.000  H
  C19      1.0000 0.29430  0.74110  0.99790  Biso   1.000  C
  C20      1.0000 0.23120  0.62620  0.97350  Biso   1.000  C
  C21      1.0000 0.09560  0.58800  0.92240  Biso   1.000  C
  C22      1.0000 0.02580  0.66320  0.89580  Biso   1.000  C
  C23      1.0000 0.09000  0.77640  0.92360  Biso   1.000  C
  C24      1.0000 0.22430  0.81630  0.97300  Biso   1.000  C
  C25      1.0000 0.30670  0.54880  0.00230  Biso   1.000  C
  H13      1.0000 0.37220  0.52290  0.97050  Biso   1.000  H
  H14      1.0000 0.23660  0.48620  0.00190  Biso   1.000  H
  H15      1.0000 0.36020  0.58710  0.05290  Biso   1.000  H
  C26      1.0000 0.02270  0.46870  0.89640  Biso   1.000  C
  H16      1.0000 0.91970  0.46390  0.89510  Biso   1.000  H
  H17      1.0000 0.06010  0.43420  0.93290  Biso   1.000  H
  C27      1.0000 0.88510  0.62200  0.84030  Biso   1.000  C
  H18      1.0000 0.89870  0.57260  0.79400  Biso   1.000  H
  H19      1.0000 0.85000  0.68430  0.83060  Biso   1.000  H
  H20      1.0000 0.81580  0.58260  0.86040  Biso   1.000  H
  C28      1.0000 0.00780  0.86020  0.90350  Biso   1.000  C
  H21      1.0000 0.90800  0.84140  0.90820  Biso   1.000  H
  H22      1.0000 0.05050  0.93400  0.93920  Biso   1.000  H
  C29      1.0000 0.29600  0.93950  0.00130  Biso   1.000  C
  H23      1.0000 0.32360  0.96210  0.96020  Biso   1.000  H
  H24      1.0000 0.38050  0.95290  0.04020  Biso   1.000  H
  H25      1.0000 0.22770  0.98180  0.02130  Biso   1.000  H
  C30      1.0000 0.43840  0.78430  0.04890  Biso   1.000  C
  H26      1.0000 0.48950  0.84540  0.03570  Biso   1.000  H
  H27      1.0000 0.49380  0.72550  0.04090  Biso   1.000  H
  Pr2      1.0000 0.23230  0.01389  0.50294  Biso   1.000  Pr
  O7       1.0000 0.45470  0.03860  0.58861  Biso   1.000  O
  O8       1.0000 0.68770  0.04080  0.61773  Biso   1.000  O
  O9       1.0000 0.85630  0.05740  0.39901  Biso   1.000  O
  O10      1.0000 0.09600  0.10530  0.42923  Biso   1.000  O
  O11      1.0000 0.01150  0.88350  0.42823  Biso   1.000  O
  O12      1.0000 0.77670  0.81810  0.39370  Biso   1.000  O
  N4       1.0000 0.56750  0.17450  0.86800  Biso   1.000  N
  N5       1.0000 0.99040  0.13660  0.17500  Biso   1.000  N
  N6       1.0000 0.95750  0.59620  0.18020  Biso   1.000  N
  C31      1.0000 0.56840  0.05440  0.63520  Biso   1.000  C
  C32      1.0000 0.44250  0.15240  0.81710  Biso   1.000  C
  H28      1.0000 0.35750  0.16440  0.83360  Biso   1.000  H
  C33      1.0000 0.43950  0.11260  0.74210  Biso   1.000  C
  H29      1.0000 0.35270  0.09730  0.70730  Biso   1.000  H
  C34      1.0000 0.56630  0.09490  0.71740  Biso   1.000  C
  C35      1.0000 0.69160  0.11540  0.77030  Biso   1.000  C
  H30      1.0000 0.77750  0.10250  0.75510  Biso   1.000  H
  C36      1.0000 0.68950  0.15500  0.84570  Biso   1.000  C
  H31      1.0000 0.77430  0.16830  0.88160  Biso   1.000  H
  C37      1.0000 0.97540  0.08900  0.38680  Biso   1.000  C
  C38      1.0000 0.10930  0.12460  0.21580  Biso   1.000  C
  H32      1.0000 0.19380  0.12360  0.19700  Biso   1.000  H
  C39      1.0000 0.10820  0.11350  0.28580  Biso   1.000  C
  H33      1.0000 0.19320  0.10940  0.31560  Biso   1.000  H
  C40      1.0000 0.98060  0.10830  0.31190  Biso   1.000  C
  C41      1.0000 0.85820  0.12010  0.26810  Biso   1.000  C
  H34      1.0000 0.77180  0.11880  0.28520  Biso   1.000  H
  C42      1.0000 0.86400  0.13380  0.19920  Biso   1.000  C
  H35      1.0000 0.78130  0.14100  0.16920  Biso   1.000  H
  C43      1.0000 0.90420  0.81650  0.38500  Biso   1.000  C
  C44      1.0000 0.82980  0.59790  0.19450  Biso   1.000  C
  H36      1.0000 0.74980  0.55210  0.15840  Biso   1.000  H
  C45      1.0000 0.80800  0.66530  0.26150  Biso   1.000  C
  H37      1.0000 0.71490  0.66370  0.27090  Biso   1.000  H
  C46      1.0000 0.92490  0.73450  0.31420  Biso   1.000  C
  C47      1.0000 0.06040  0.72750  0.29920  Biso   1.000  C
  H38      1.0000 0.14230  0.77020  0.33520  Biso   1.000  H
  C48      1.0000 0.07590  0.65970  0.23310  Biso   1.000  C
  H39      1.0000 0.16830  0.65630  0.22360  Biso   1.000  H
  C49      1.0000 0.70570  0.25890  0.00210  Biso   1.000  C
  C50      1.0000 0.76880  0.37380  0.02650  Biso   1.000  C
  C51      1.0000 0.90440  0.41200  0.07760  Biso   1.000  C
  C52      1.0000 0.97420  0.33680  0.10420  Biso   1.000  C
  C53      1.0000 0.91000  0.22360  0.07640  Biso   1.000  C
  C54      1.0000 0.77570  0.18370  0.02700  Biso   1.000  C
  C55      1.0000 0.69330  0.45120  0.99770  Biso   1.000  C
  H40      1.0000 0.62780  0.47710  0.02950  Biso   1.000  H
  H41      1.0000 0.76340  0.51380  0.99810  Biso   1.000  H
  H42      1.0000 0.63980  0.41290  0.94710  Biso   1.000  H
  C56      1.0000 0.97730  0.53130  0.10360  Biso   1.000  C
  H43      1.0000 0.08030  0.53610  0.10490  Biso   1.000  H
  H44      1.0000 0.93990  0.56580  0.06710  Biso   1.000  H
  C57      1.0000 0.11490  0.37800  0.15970  Biso   1.000  C
  H45      1.0000 0.10130  0.42740  0.20600  Biso   1.000  H
  H46      1.0000 0.15000  0.31570  0.16940  Biso   1.000  H
  H47      1.0000 0.18420  0.41740  0.13960  Biso   1.000  H
  C58      1.0000 0.99220  0.13980  0.09650  Biso   1.000  C
  H48      1.0000 0.09200  0.15860  0.09180  Biso   1.000  H
  H49      1.0000 0.94950  0.06600  0.06080  Biso   1.000  H
  C59      1.0000 0.70400  0.06050  0.99870  Biso   1.000  C
  H50      1.0000 0.67640  0.03790  0.03980  Biso   1.000  H
  H51      1.0000 0.61950  0.04710  0.95980  Biso   1.000  H
  H52      1.0000 0.77230  0.01820  0.97870  Biso   1.000  H
  C60      1.0000 0.56160  0.21570  0.95110  Biso   1.000  C
  H53      1.0000 0.51050  0.15460  0.96430  Biso   1.000  H
  H54      1.0000 0.50620  0.27450  0.95910  Biso   1.000  H
