data_image0
_cell_length_a       9.4755
_cell_length_b       13.0729
_cell_length_c       18.4582
_cell_angle_alpha    107.506
_cell_angle_beta     96.574
_cell_angle_gamma    98.231

_symmetry_space_group_name_H-M    "P 1"
_symmetry_int_tables_number       1

loop_
  _symmetry_equiv_pos_as_xyz
  'x, y, z'

loop_
  _atom_site_label
  _atom_site_occupancy
  _atom_site_fract_x
  _atom_site_fract_y
  _atom_site_fract_z
  _atom_site_thermal_displace_type
  _atom_site_B_iso_or_equiv
  _atom_site_type_symbol
  Yb1      1.0000 0.76572  0.49406  0.99720  Biso   1.000  Yb
  O1       1.0000 0.56470  0.46320  0.91180  Biso   1.000  O
  O2       1.0000 0.32600  0.44530  0.88991  Biso   1.000  O
  O3       1.0000 0.13150  0.45090  0.09790  Biso   1.000  O
  O4       1.0000 0.88940  0.41680  0.07360  Biso   1.000  O
  O5       1.0000 0.19630  0.66110  0.09650  Biso   1.000  O
  O6       1.0000 0.95680  0.62420  0.06890  Biso   1.000  O
  N1       1.0000 0.44340  0.32910  0.62760  Biso   1.000  N
  N2       1.0000 0.99870  0.36040  0.32450  Biso   1.000  N
  N3       1.0000 0.04610  0.90700  0.32380  Biso   1.000  N
  C1       1.0000 0.44600  0.44080  0.86940  Biso   1.000  C
  C2       1.0000 0.44630  0.40370  0.78350  Biso   1.000  C
  C3       1.0000 0.32000  0.38440  0.73230  Biso   1.000  C
  H1       1.0000 0.23450  0.39700  0.75050  Biso   1.000  H
  C4       1.0000 0.32050  0.34640  0.65390  Biso   1.000  C
  H2       1.0000 0.23510  0.33280  0.61940  Biso   1.000  H
  C5       1.0000 0.56800  0.34910  0.67590  Biso   1.000  C
  H3       1.0000 0.65250  0.33770  0.65610  Biso   1.000  H
  C6       1.0000 0.57300  0.38630  0.75460  Biso   1.000  C
  H4       1.0000 0.66000  0.39950  0.78790  Biso   1.000  H
  C7       1.0000 0.45020  0.29010  0.54160  Biso   1.000  C
  H5       1.0000 0.49790  0.35040  0.52750  Biso   1.000  H
  H6       1.0000 0.50760  0.23310  0.53100  Biso   1.000  H
  C8       1.0000 0.30190  0.24670  0.49300  Biso   1.000  C
  C9       1.0000 0.22500  0.31880  0.46930  Biso   1.000  C
  C10      1.0000 0.08790  0.27580  0.42360  Biso   1.000  C
  C11      1.0000 0.99750  0.35390  0.40480  Biso   1.000  C
  H7       1.0000 0.89850  0.33100  0.41040  Biso   1.000  H
  H8       1.0000 0.03320  0.42620  0.44180  Biso   1.000  H
  C12      1.0000 0.87710  0.36880  0.28450  Biso   1.000  C
  H9       1.0000 0.79140  0.36280  0.30430  Biso   1.000  H
  C13      1.0000 0.87600  0.38600  0.21480  Biso   1.000  C
  H10      1.0000 0.79030  0.39110  0.18720  Biso   1.000  H
  C14      1.0000 0.00420  0.39570  0.18590  Biso   1.000  C
  C15      1.0000 0.00890  0.42370  0.11210  Biso   1.000  C
  C16      1.0000 0.13000  0.38570  0.22860  Biso   1.000  C
  H11      1.0000 0.21740  0.39190  0.21050  Biso   1.000  H
  C17      1.0000 0.12350  0.36650  0.29710  Biso   1.000  C
  H12      1.0000 0.20650  0.35770  0.32500  Biso   1.000  H
  C18      1.0000 0.02930  0.16440  0.39990  Biso   1.000  C
  C19      1.0000 0.10750  0.09420  0.42410  Biso   1.000  C
  C20      1.0000 0.03490  0.97640  0.40330  Biso   1.000  C
  H13      1.0000 0.07770  0.94560  0.44030  Biso   1.000  H
  H14      1.0000 0.93340  0.97350  0.40770  Biso   1.000  H
  C21      1.0000 0.17440  0.89920  0.30220  Biso   1.000  C
  H15      1.0000 0.25680  0.94410  0.33480  Biso   1.000  H
  C22      1.0000 0.18910  0.82760  0.23360  Biso   1.000  C
  H16      1.0000 0.27990  0.82210  0.22010  Biso   1.000  H
  C23      1.0000 0.06440  0.76300  0.18440  Biso   1.000  C
  C24      1.0000 0.07380  0.67650  0.11000  Biso   1.000  C
  C25      1.0000 0.93260  0.77530  0.20600  Biso   1.000  C
  H17      1.0000 0.84790  0.73540  0.17300  Biso   1.000  H
  C26      1.0000 0.92620  0.84700  0.27670  Biso   1.000  C
  H18      1.0000 0.83680  0.85380  0.29180  Biso   1.000  H
  C27      1.0000 0.24420  0.13460  0.47130  Biso   1.000  C
  C28      1.0000 0.33010  0.05910  0.49840  Biso   1.000  C
  H19      1.0000 0.33340  0.07420  0.55280  Biso   1.000  H
  H20      1.0000 0.42670  0.07090  0.48760  Biso   1.000  H
  H21      1.0000 0.28430  0.98450  0.47180  Biso   1.000  H
  C29      1.0000 0.88320  0.12250  0.35080  Biso   1.000  C
  H22      1.0000 0.84820  0.04960  0.35020  Biso   1.000  H
  H23      1.0000 0.88990  0.12220  0.29930  Biso   1.000  H
  H24      1.0000 0.81760  0.16890  0.37150  Biso   1.000  H
  C30      1.0000 0.28710  0.43890  0.49530  Biso   1.000  C
  H25      1.0000 0.32560  0.45730  0.45390  Biso   1.000  H
  H26      1.0000 0.36290  0.45640  0.53870  Biso   1.000  H
  H27      1.0000 0.21250  0.47970  0.50980  Biso   1.000  H
  Yb2      1.0000 0.23428  0.50594  0.00280  Biso   1.000  Yb
  O7       1.0000 0.43530  0.53680  0.08820  Biso   1.000  O
  O8       1.0000 0.67400  0.55470  0.11009  Biso   1.000  O
  O9       1.0000 0.86850  0.54910  0.90210  Biso   1.000  O
  O10      1.0000 0.11060  0.58320  0.92640  Biso   1.000  O
  O11      1.0000 0.80370  0.33890  0.90350  Biso   1.000  O
  O12      1.0000 0.04320  0.37580  0.93110  Biso   1.000  O
  N4       1.0000 0.55660  0.67090  0.37240  Biso   1.000  N
  N5       1.0000 0.00130  0.63960  0.67550  Biso   1.000  N
  N6       1.0000 0.95390  0.09300  0.67620  Biso   1.000  N
  C31      1.0000 0.55400  0.55920  0.13060  Biso   1.000  C
  C32      1.0000 0.55370  0.59630  0.21650  Biso   1.000  C
  C33      1.0000 0.68000  0.61560  0.26770  Biso   1.000  C
  H28      1.0000 0.76550  0.60300  0.24950  Biso   1.000  H
  C34      1.0000 0.67950  0.65360  0.34610  Biso   1.000  C
  H29      1.0000 0.76490  0.66720  0.38060  Biso   1.000  H
  C35      1.0000 0.43200  0.65090  0.32410  Biso   1.000  C
  H30      1.0000 0.34750  0.66230  0.34390  Biso   1.000  H
  C36      1.0000 0.42700  0.61370  0.24540  Biso   1.000  C
  H31      1.0000 0.34000  0.60050  0.21210  Biso   1.000  H
  C37      1.0000 0.54980  0.70990  0.45840  Biso   1.000  C
  H32      1.0000 0.50210  0.64960  0.47250  Biso   1.000  H
  H33      1.0000 0.49240  0.76690  0.46900  Biso   1.000  H
  C38      1.0000 0.69810  0.75330  0.50700  Biso   1.000  C
  C39      1.0000 0.77500  0.68120  0.53070  Biso   1.000  C
  C40      1.0000 0.91210  0.72420  0.57640  Biso   1.000  C
  C41      1.0000 0.00250  0.64610  0.59520  Biso   1.000  C
  H34      1.0000 0.10150  0.66900  0.58960  Biso   1.000  H
  H35      1.0000 0.96680  0.57380  0.55820  Biso   1.000  H
  C42      1.0000 0.12290  0.63120  0.71550  Biso   1.000  C
  H36      1.0000 0.20860  0.63720  0.69570  Biso   1.000  H
  C43      1.0000 0.12400  0.61400  0.78520  Biso   1.000  C
  H37      1.0000 0.20970  0.60890  0.81280  Biso   1.000  H
  C44      1.0000 0.99580  0.60430  0.81410  Biso   1.000  C
  C45      1.0000 0.99110  0.57630  0.88790  Biso   1.000  C
  C46      1.0000 0.87000  0.61430  0.77140  Biso   1.000  C
  H38      1.0000 0.78260  0.60810  0.78950  Biso   1.000  H
  C47      1.0000 0.87650  0.63350  0.70290  Biso   1.000  C
  H39      1.0000 0.79350  0.64230  0.67500  Biso   1.000  H
  C48      1.0000 0.97070  0.83560  0.60010  Biso   1.000  C
  C49      1.0000 0.89250  0.90580  0.57590  Biso   1.000  C
  C50      1.0000 0.96510  0.02360  0.59670  Biso   1.000  C
  H40      1.0000 0.92230  0.05440  0.55970  Biso   1.000  H
  H41      1.0000 0.06660  0.02650  0.59230  Biso   1.000  H
  C51      1.0000 0.82560  0.10080  0.69780  Biso   1.000  C
  H42      1.0000 0.74320  0.05590  0.66520  Biso   1.000  H
  C52      1.0000 0.81090  0.17240  0.76640  Biso   1.000  C
  H43      1.0000 0.72010  0.17790  0.77990  Biso   1.000  H
  C53      1.0000 0.93560  0.23700  0.81560  Biso   1.000  C
  C54      1.0000 0.92620  0.32350  0.89000  Biso   1.000  C
  C55      1.0000 0.06740  0.22470  0.79400  Biso   1.000  C
  H44      1.0000 0.15210  0.26460  0.82700  Biso   1.000  H
  C56      1.0000 0.07380  0.15300  0.72330  Biso   1.000  C
  H45      1.0000 0.16320  0.14620  0.70820  Biso   1.000  H
  C57      1.0000 0.75580  0.86540  0.52870  Biso   1.000  C
  C58      1.0000 0.66990  0.94090  0.50160  Biso   1.000  C
  H46      1.0000 0.66660  0.92580  0.44720  Biso   1.000  H
  H47      1.0000 0.57330  0.92910  0.51240  Biso   1.000  H
  H48      1.0000 0.71570  0.01550  0.52820  Biso   1.000  H
  C59      1.0000 0.11680  0.87750  0.64920  Biso   1.000  C
  H49      1.0000 0.15180  0.95040  0.64980  Biso   1.000  H
  H50      1.0000 0.11010  0.87780  0.70070  Biso   1.000  H
  H51      1.0000 0.18240  0.83110  0.62850  Biso   1.000  H
  C60      1.0000 0.71290  0.56110  0.50470  Biso   1.000  C
  H52      1.0000 0.67440  0.54270  0.54610  Biso   1.000  H
  H53      1.0000 0.63710  0.54360  0.46130  Biso   1.000  H
  H54      1.0000 0.78750  0.52030  0.49020  Biso   1.000  H
