data_image0
_cell_length_a       9.5522
_cell_length_b       12.933
_cell_length_c       18.7637
_cell_angle_alpha    106.972
_cell_angle_beta     98.249
_cell_angle_gamma    97.794

_symmetry_space_group_name_H-M    "P 1"
_symmetry_int_tables_number       1

loop_
  _symmetry_equiv_pos_as_xyz
  'x, y, z'

loop_
  _atom_site_label
  _atom_site_occupancy
  _atom_site_fract_x
  _atom_site_fract_y
  _atom_site_fract_z
  _atom_site_thermal_displace_type
  _atom_site_B_iso_or_equiv
  _atom_site_type_symbol
  Gd1      1.0000 0.23407  0.01044  0.50250  Biso   1.000  Gd
  O1       1.0000 0.44800  0.03880  0.58799  Biso   1.000  O
  O2       1.0000 0.68220  0.04520  0.61450  Biso   1.000  O
  O3       1.0000 0.85720  0.05160  0.40078  Biso   1.000  O
  O4       1.0000 0.79270  0.82960  0.39834  Biso   1.000  O
  O5       1.0000 0.09800  0.09520  0.42950  Biso   1.000  O
  O6       1.0000 0.02960  0.88100  0.42938  Biso   1.000  O
  N1       1.0000 0.56440  0.17660  0.86957  Biso   1.000  N
  N2       1.0000 0.99000  0.13380  0.17500  Biso   1.000  N
  C1       1.0000 0.56330  0.05690  0.63230  Biso   1.000  C
  N3       1.0000 0.95710  0.59340  0.18020  Biso   1.000  N
  C2       1.0000 0.56280  0.09720  0.71690  Biso   1.000  C
  C3       1.0000 0.93070  0.73600  0.31590  Biso   1.000  C
  C4       1.0000 0.98020  0.10150  0.31210  Biso   1.000  C
  C5       1.0000 0.90850  0.22260  0.07700  Biso   1.000  C
  C6       1.0000 0.68900  0.11890  0.76890  Biso   1.000  C
  H1       1.0000 0.77410  0.10540  0.75250  Biso   1.000  H
  C7       1.0000 0.91780  0.82210  0.38830  Biso   1.000  C
  C8       1.0000 0.97740  0.08070  0.38740  Biso   1.000  C
  C9       1.0000 0.77430  0.18350  0.02840  Biso   1.000  C
  C10      1.0000 0.68850  0.16110  0.84590  Biso   1.000  C
  H2       1.0000 0.77410  0.17860  0.88110  Biso   1.000  H
  C11      1.0000 0.90010  0.40890  0.07930  Biso   1.000  C
  C12      1.0000 0.85840  0.11420  0.26890  Biso   1.000  C
  H3       1.0000 0.77170  0.11120  0.28590  Biso   1.000  H
  C13      1.0000 0.43620  0.11360  0.74280  Biso   1.000  C
  H4       1.0000 0.34940  0.09720  0.70860  Biso   1.000  H
  C14      1.0000 0.96930  0.33460  0.10430  Biso   1.000  C
  C15      1.0000 0.70410  0.25940  0.00410  Biso   1.000  C
  C16      1.0000 0.10820  0.10700  0.28570  Biso   1.000  C
  H5       1.0000 0.19260  0.10170  0.31490  Biso   1.000  H
  C17      1.0000 0.76610  0.37160  0.02750  Biso   1.000  C
  C18      1.0000 0.81130  0.66930  0.26470  Biso   1.000  C
  H6       1.0000 0.71960  0.67120  0.27570  Biso   1.000  H
  C19      1.0000 0.06530  0.72470  0.29880  Biso   1.000  C
  H7       1.0000 0.14800  0.76510  0.33360  Biso   1.000  H
  C20      1.0000 0.83040  0.59980  0.19700  Biso   1.000  C
  H8       1.0000 0.74980  0.55600  0.16200  Biso   1.000  H
  C21      1.0000 0.44000  0.15430  0.81940  Biso   1.000  C
  H9       1.0000 0.35550  0.16650  0.83690  Biso   1.000  H
  C22      1.0000 0.86560  0.13130  0.20070  Biso   1.000  C
  H10      1.0000 0.78380  0.14130  0.17200  Biso   1.000  H
  C23      1.0000 0.10880  0.12020  0.21540  Biso   1.000  C
  H11      1.0000 0.19300  0.11970  0.19600  Biso   1.000  H
  C24      1.0000 0.99280  0.14060  0.09660  Biso   1.000  C
  H12      1.0000 0.95400  0.06850  0.05990  Biso   1.000  H
  H13      1.0000 0.09210  0.16080  0.09230  Biso   1.000  H
  C25      1.0000 0.55900  0.21840  0.95240  Biso   1.000  C
  H14      1.0000 0.50720  0.15950  0.96630  Biso   1.000  H
  H15      1.0000 0.50490  0.27770  0.96060  Biso   1.000  H
  C26      1.0000 0.97550  0.52730  0.10370  Biso   1.000  C
  H16      1.0000 0.07750  0.52960  0.10390  Biso   1.000  H
  H17      1.0000 0.93870  0.56090  0.06670  Biso   1.000  H
  C27      1.0000 0.07630  0.65370  0.23040  Biso   1.000  C
  H18      1.0000 0.16660  0.64720  0.21860  Biso   1.000  H
  C28      1.0000 0.11130  0.37450  0.16000  Biso   1.000  C
  H19      1.0000 0.09990  0.36060  0.20660  Biso   1.000  H
  H20      1.0000 0.14140  0.45210  0.16990  Biso   1.000  H
  H21      1.0000 0.18260  0.33610  0.13890  Biso   1.000  H
  C29      1.0000 0.70940  0.06360  0.99990  Biso   1.000  C
  H22      1.0000 0.77060  0.02370  0.97050  Biso   1.000  H
  H23      1.0000 0.61630  0.05260  0.96870  Biso   1.000  H
  H24      1.0000 0.69970  0.03760  0.04220  Biso   1.000  H
  C30      1.0000 0.68890  0.45030  0.99930  Biso   1.000  C
  H25      1.0000 0.73880  0.52440  0.02560  Biso   1.000  H
  H26      1.0000 0.59230  0.44220  0.00840  Biso   1.000  H
  H27      1.0000 0.68630  0.43430  0.94580  Biso   1.000  H
  Gd2      1.0000 0.76593  0.98956  0.49750  Biso   1.000  Gd
  O7       1.0000 0.55200  0.96120  0.41201  Biso   1.000  O
  O8       1.0000 0.31780  0.95480  0.38550  Biso   1.000  O
  O9       1.0000 0.14280  0.94840  0.59922  Biso   1.000  O
  O10      1.0000 0.20730  0.17040  0.60166  Biso   1.000  O
  O11      1.0000 0.90200  0.90480  0.57050  Biso   1.000  O
  O12      1.0000 0.97040  0.11900  0.57062  Biso   1.000  O
  N4       1.0000 0.43560  0.82340  0.13043  Biso   1.000  N
  N5       1.0000 0.01000  0.86620  0.82500  Biso   1.000  N
  C31      1.0000 0.43670  0.94310  0.36770  Biso   1.000  C
  N6       1.0000 0.04290  0.40660  0.81980  Biso   1.000  N
  C32      1.0000 0.43720  0.90280  0.28310  Biso   1.000  C
  C33      1.0000 0.06930  0.26400  0.68410  Biso   1.000  C
  C34      1.0000 0.01980  0.89850  0.68790  Biso   1.000  C
  C35      1.0000 0.09150  0.77740  0.92300  Biso   1.000  C
  C36      1.0000 0.31100  0.88110  0.23110  Biso   1.000  C
  H28      1.0000 0.22590  0.89460  0.24750  Biso   1.000  H
  C37      1.0000 0.08220  0.17790  0.61170  Biso   1.000  C
  C38      1.0000 0.02260  0.91930  0.61260  Biso   1.000  C
  C39      1.0000 0.22570  0.81650  0.97160  Biso   1.000  C
  C40      1.0000 0.31150  0.83890  0.15410  Biso   1.000  C
  H29      1.0000 0.22590  0.82140  0.11890  Biso   1.000  H
  C41      1.0000 0.09990  0.59110  0.92070  Biso   1.000  C
  C42      1.0000 0.14160  0.88580  0.73110  Biso   1.000  C
  H30      1.0000 0.22830  0.88880  0.71410  Biso   1.000  H
  C43      1.0000 0.56380  0.88640  0.25720  Biso   1.000  C
  H31      1.0000 0.65060  0.90280  0.29140  Biso   1.000  H
  C44      1.0000 0.03070  0.66540  0.89570  Biso   1.000  C
  C45      1.0000 0.29590  0.74060  0.99590  Biso   1.000  C
  C46      1.0000 0.89180  0.89300  0.71430  Biso   1.000  C
  H32      1.0000 0.80740  0.89830  0.68510  Biso   1.000  H
  C47      1.0000 0.23390  0.62840  0.97250  Biso   1.000  C
  C48      1.0000 0.18870  0.33070  0.73530  Biso   1.000  C
  H33      1.0000 0.28040  0.32880  0.72430  Biso   1.000  H
  C49      1.0000 0.93470  0.27530  0.70120  Biso   1.000  C
  H34      1.0000 0.85200  0.23490  0.66640  Biso   1.000  H
  C50      1.0000 0.16960  0.40020  0.80300  Biso   1.000  C
  H35      1.0000 0.25020  0.44400  0.83800  Biso   1.000  H
  C51      1.0000 0.56000  0.84570  0.18060  Biso   1.000  C
  H36      1.0000 0.64450  0.83350  0.16310  Biso   1.000  H
  C52      1.0000 0.13440  0.86870  0.79930  Biso   1.000  C
  H37      1.0000 0.21620  0.85870  0.82800  Biso   1.000  H
  C53      1.0000 0.89120  0.87980  0.78460  Biso   1.000  C
  H38      1.0000 0.80700  0.88030  0.80400  Biso   1.000  H
  C54      1.0000 0.00720  0.85940  0.90340  Biso   1.000  C
  H39      1.0000 0.04600  0.93150  0.94010  Biso   1.000  H
  H40      1.0000 0.90790  0.83920  0.90770  Biso   1.000  H
  C55      1.0000 0.44100  0.78160  0.04760  Biso   1.000  C
  H41      1.0000 0.49280  0.84050  0.03370  Biso   1.000  H
  H42      1.0000 0.49510  0.72230  0.03940  Biso   1.000  H
  C56      1.0000 0.02450  0.47270  0.89630  Biso   1.000  C
  H43      1.0000 0.92250  0.47040  0.89610  Biso   1.000  H
  H44      1.0000 0.06130  0.43910  0.93330  Biso   1.000  H
  C57      1.0000 0.92370  0.34630  0.76960  Biso   1.000  C
  H45      1.0000 0.83340  0.35280  0.78140  Biso   1.000  H
  C58      1.0000 0.88870  0.62550  0.84000  Biso   1.000  C
  H46      1.0000 0.90010  0.63940  0.79340  Biso   1.000  H
  H47      1.0000 0.85860  0.54790  0.83010  Biso   1.000  H
  H48      1.0000 0.81740  0.66390  0.86110  Biso   1.000  H
  C59      1.0000 0.29060  0.93640  0.00010  Biso   1.000  C
  H49      1.0000 0.22940  0.97630  0.02950  Biso   1.000  H
  H50      1.0000 0.38370  0.94740  0.03130  Biso   1.000  H
  H51      1.0000 0.30030  0.96240  0.95780  Biso   1.000  H
  C60      1.0000 0.31110  0.54970  0.00070  Biso   1.000  C
  H52      1.0000 0.26120  0.47560  0.97440  Biso   1.000  H
  H53      1.0000 0.40770  0.55780  0.99160  Biso   1.000  H
  H54      1.0000 0.31370  0.56570  0.05420  Biso   1.000  H
