data_FANQER_clean
_audit_creation_date              2014-07-02
_audit_creation_method            'Materials Studio'
_symmetry_space_group_name_H-M    'P1'
_symmetry_Int_Tables_number       1
_symmetry_cell_setting            triclinic
loop_
_symmetry_equiv_pos_as_xyz
  x,y,z
_cell_length_a                    7.2470
_cell_length_b                    14.9830
_cell_length_c                    22.4890
_cell_angle_alpha                 90.0000
_cell_angle_beta                  90.9050
_cell_angle_gamma                 90.0000
loop_
_atom_site_label
_atom_site_type_symbol
_atom_site_fract_x
_atom_site_fract_y
_atom_site_fract_z
_atom_site_U_iso_or_equiv
_atom_site_adp_type
_atom_site_occupancy
Mn1    Mn    0.75335   0.52676   0.76677   0.01267  Uiso   1.00
Mn2    Mn    0.74665   0.02676   0.73323   0.01267  Uiso   1.00
Mn3    Mn    0.24665   0.47324   0.23323   0.01267  Uiso   1.00
Mn4    Mn    0.25335   0.97324   0.26677   0.01267  Uiso   1.00
Mn5    Mn    0.50000   0.50000   0.50000   0.01267  Uiso   1.00
Mn6    Mn    0.00000   0.00000   0.00000   0.01267  Uiso   1.00
H1     H     0.67860   0.48900   0.62970   0.01267  Uiso   1.00
H2     H     0.62310   0.70220   0.52990   0.01267  Uiso   1.00
H3     H     0.70970   0.79100   0.61030   0.01267  Uiso   1.00
H4     H     0.75830   0.72270   0.70350   0.01267  Uiso   1.00
H5     H     0.82140   0.98900   0.87030   0.01267  Uiso   1.00
H6     H     0.87690   0.20220   0.97010   0.01267  Uiso   1.00
H7     H     0.79030   0.29100   0.88970   0.01267  Uiso   1.00
H8     H     0.74170   0.22270   0.79650   0.01267  Uiso   1.00
H9     H     0.32140   0.51100   0.37030   0.01267  Uiso   1.00
H10    H     0.37690   0.29780   0.47010   0.01267  Uiso   1.00
H11    H     0.29030   0.20900   0.38970   0.01267  Uiso   1.00
H12    H     0.24170   0.27730   0.29650   0.01267  Uiso   1.00
H13    H     0.17860   0.01100   0.12970   0.01267  Uiso   1.00
H14    H     0.12310   0.79780   0.02990   0.01267  Uiso   1.00
H15    H     0.20970   0.70900   0.11030   0.01267  Uiso   1.00
H16    H     0.25830   0.77730   0.20350   0.01267  Uiso   1.00
W1     W     0.23778   0.28623   0.67820   0.01267  Uiso   1.00
W2     W     0.26222   0.78623   0.82180   0.01267  Uiso   1.00
W3     W     0.76222   0.71377   0.32180   0.01267  Uiso   1.00
W4     W     0.73778   0.21377   0.17820   0.01267  Uiso   1.00
C1     C     0.45720   0.36940   0.71310   0.01267  Uiso   1.00
C2     C     0.45770   0.19130   0.69340   0.01267  Uiso   1.00
C3     C     0.07460   0.16900   0.69650   0.01267  Uiso   1.00
C4     C     0.08610   0.39720   0.71440   0.01267  Uiso   1.00
C5     C     0.31680   0.37920   0.60950   0.01267  Uiso   1.00
C6     C     0.27120   0.20950   0.59740   0.01267  Uiso   1.00
C7     C     0.98390   0.30250   0.62740   0.01267  Uiso   1.00
C8     C     0.24200   0.26590   0.77350   0.01267  Uiso   1.00
C9     C     0.67990   0.55220   0.62610   0.01267  Uiso   1.00
C10    C     0.65040   0.67540   0.56730   0.01267  Uiso   1.00
C11    C     0.69820   0.72820   0.61470   0.01267  Uiso   1.00
C12    C     0.72980   0.68720   0.66960   0.01267  Uiso   1.00
C13    C     0.04280   0.86940   0.78690   0.01267  Uiso   1.00
C14    C     0.04230   0.69130   0.80660   0.01267  Uiso   1.00
C15    C     0.42540   0.66900   0.80350   0.01267  Uiso   1.00
C16    C     0.41390   0.89720   0.78560   0.01267  Uiso   1.00
C17    C     0.18320   0.87920   0.89050   0.01267  Uiso   1.00
C18    C     0.22880   0.70950   0.90260   0.01267  Uiso   1.00
C19    C     0.51610   0.80250   0.87260   0.01267  Uiso   1.00
C20    C     0.25800   0.76590   0.72650   0.01267  Uiso   1.00
C21    C     0.82010   0.05220   0.87390   0.01267  Uiso   1.00
C22    C     0.84960   0.17540   0.93270   0.01267  Uiso   1.00
C23    C     0.80180   0.22820   0.88530   0.01267  Uiso   1.00
C24    C     0.77020   0.18720   0.83040   0.01267  Uiso   1.00
C25    C     0.54280   0.63060   0.28690   0.01267  Uiso   1.00
C26    C     0.54230   0.80870   0.30660   0.01267  Uiso   1.00
C27    C     0.92540   0.83100   0.30350   0.01267  Uiso   1.00
C28    C     0.91390   0.60280   0.28560   0.01267  Uiso   1.00
C29    C     0.68320   0.62080   0.39050   0.01267  Uiso   1.00
C30    C     0.72880   0.79050   0.40260   0.01267  Uiso   1.00
C31    C     0.01610   0.69750   0.37260   0.01267  Uiso   1.00
C32    C     0.75800   0.73410   0.22650   0.01267  Uiso   1.00
C33    C     0.32010   0.44780   0.37390   0.01267  Uiso   1.00
C34    C     0.34960   0.32460   0.43270   0.01267  Uiso   1.00
C35    C     0.30180   0.27180   0.38530   0.01267  Uiso   1.00
C36    C     0.27020   0.31280   0.33040   0.01267  Uiso   1.00
C37    C     0.95720   0.13060   0.21310   0.01267  Uiso   1.00
C38    C     0.95770   0.30870   0.19340   0.01267  Uiso   1.00
C39    C     0.57460   0.33100   0.19650   0.01267  Uiso   1.00
C40    C     0.58610   0.10280   0.21440   0.01267  Uiso   1.00
C41    C     0.81680   0.12080   0.10950   0.01267  Uiso   1.00
C42    C     0.77120   0.29050   0.09740   0.01267  Uiso   1.00
C43    C     0.48390   0.19750   0.12740   0.01267  Uiso   1.00
C44    C     0.74200   0.23410   0.27350   0.01267  Uiso   1.00
C45    C     0.17990   0.94780   0.12610   0.01267  Uiso   1.00
C46    C     0.15040   0.82460   0.06730   0.01267  Uiso   1.00
C47    C     0.19820   0.77180   0.11470   0.01267  Uiso   1.00
C48    C     0.22980   0.81280   0.16960   0.01267  Uiso   1.00
N1     N     0.56860   0.41760   0.73210   0.01267  Uiso   1.00
N2     N     0.93310   0.63940   0.79580   0.01267  Uiso   1.00
N3     N     0.51320   0.60690   0.79360   0.01267  Uiso   1.00
N4     N     0.99720   0.45430   0.73390   0.01267  Uiso   1.00
N5     N     0.36240   0.42570   0.57250   0.01267  Uiso   1.00
N6     N     0.28720   0.16980   0.55470   0.01267  Uiso   1.00
N7     N     0.85040   0.31330   0.60150   0.01267  Uiso   1.00
N8     N     0.24740   0.25220   0.82390   0.01267  Uiso   1.00
N9     N     0.72090   0.59860   0.67490   0.01267  Uiso   1.00
N10    N     0.64130   0.58610   0.57290   0.01267  Uiso   1.00
N11    N     0.93140   0.91760   0.76790   0.01267  Uiso   1.00
N12    N     0.56690   0.13940   0.70420   0.01267  Uiso   1.00
N13    N     0.98680   0.10690   0.70640   0.01267  Uiso   1.00
N14    N     0.50280   0.95430   0.76610   0.01267  Uiso   1.00
N15    N     0.13760   0.92570   0.92750   0.01267  Uiso   1.00
N16    N     0.21280   0.66980   0.94530   0.01267  Uiso   1.00
N17    N     0.64960   0.81330   0.89850   0.01267  Uiso   1.00
N18    N     0.25260   0.75220   0.67610   0.01267  Uiso   1.00
N19    N     0.77910   0.09860   0.82510   0.01267  Uiso   1.00
N20    N     0.85870   0.08610   0.92710   0.01267  Uiso   1.00
N21    N     0.43140   0.58240   0.26790   0.01267  Uiso   1.00
N22    N     0.06690   0.36060   0.20420   0.01267  Uiso   1.00
N23    N     0.48680   0.39310   0.20640   0.01267  Uiso   1.00
N24    N     0.00280   0.54570   0.26610   0.01267  Uiso   1.00
N25    N     0.63760   0.57430   0.42750   0.01267  Uiso   1.00
N26    N     0.71280   0.83020   0.44530   0.01267  Uiso   1.00
N27    N     0.14960   0.68670   0.39850   0.01267  Uiso   1.00
N28    N     0.75260   0.74780   0.17610   0.01267  Uiso   1.00
N29    N     0.27910   0.40140   0.32510   0.01267  Uiso   1.00
N30    N     0.35870   0.41390   0.42710   0.01267  Uiso   1.00
N31    N     0.06860   0.08240   0.23210   0.01267  Uiso   1.00
N32    N     0.43310   0.86060   0.29580   0.01267  Uiso   1.00
N33    N     0.01320   0.89310   0.29360   0.01267  Uiso   1.00
N34    N     0.49720   0.04570   0.23390   0.01267  Uiso   1.00
N35    N     0.86240   0.07430   0.07250   0.01267  Uiso   1.00
N36    N     0.78720   0.33020   0.05470   0.01267  Uiso   1.00
N37    N     0.35040   0.18670   0.10150   0.01267  Uiso   1.00
N38    N     0.74740   0.24780   0.32390   0.01267  Uiso   1.00
N39    N     0.22090   0.90140   0.17490   0.01267  Uiso   1.00
N40    N     0.14130   0.91390   0.07290   0.01267  Uiso   1.00
