data_image0
_cell_length_a       15.0418
_cell_length_b       15.0418
_cell_length_c       11.9611
_cell_angle_alpha    90
_cell_angle_beta     90
_cell_angle_gamma    90

_symmetry_space_group_name_H-M    "P 1"
_symmetry_int_tables_number       1

loop_
  _symmetry_equiv_pos_as_xyz
  'x, y, z'

loop_
  _atom_site_label
  _atom_site_occupancy
  _atom_site_fract_x
  _atom_site_fract_y
  _atom_site_fract_z
  _atom_site_thermal_displace_type
  _atom_site_B_iso_or_equiv
  _atom_site_type_symbol
  O1       1.0000 0.87610  0.13360  0.23610  Biso   1.000  O
  O2       1.0000 0.84390  0.03950  0.37290  Biso   1.000  O
  C1       1.0000 0.83880  0.11880  0.33180  Biso   1.000  C
  C2       1.0000 0.79370  0.18760  0.38990  Biso   1.000  C
  C3       1.0000 0.74950  0.25330  0.33080  Biso   1.000  C
  C4       1.0000 0.79380  0.18900  0.50560  Biso   1.000  C
  C5       1.0000 0.70550  0.32040  0.38750  Biso   1.000  C
  H1       1.0000 0.74940  0.25230  0.25310  Biso   1.000  H
  C6       1.0000 0.74970  0.25610  0.56226  Biso   1.000  C
  H2       1.0000 0.82340  0.14490  0.54530  Biso   1.000  H
  C7       1.0000 0.70560  0.32180  0.50320  Biso   1.000  C
  C8       1.0000 0.66020  0.38770  0.32690  Biso   1.000  C
  H3       1.0000 0.67600  0.36680  0.54130  Biso   1.000  H
  O3       1.0000 0.64270  0.46380  0.37230  Biso   1.000  O
  O4       1.0000 0.63520  0.37490  0.22470  Biso   1.000  O
  O5       1.0000 0.12390  0.86640  0.73610  Biso   1.000  O
  O6       1.0000 0.15610  0.96050  0.87290  Biso   1.000  O
  C9       1.0000 0.16120  0.88120  0.83180  Biso   1.000  C
  C10      1.0000 0.20630  0.81240  0.88990  Biso   1.000  C
  C11      1.0000 0.25050  0.74670  0.83080  Biso   1.000  C
  C12      1.0000 0.20620  0.81100  0.00560  Biso   1.000  C
  C13      1.0000 0.29450  0.67960  0.88750  Biso   1.000  C
  H4       1.0000 0.25060  0.74770  0.75310  Biso   1.000  H
  C14      1.0000 0.25030  0.74390  0.06226  Biso   1.000  C
  H5       1.0000 0.17660  0.85510  0.04530  Biso   1.000  H
  C15      1.0000 0.29440  0.67820  0.00320  Biso   1.000  C
  C16      1.0000 0.33980  0.61230  0.82690  Biso   1.000  C
  H6       1.0000 0.32400  0.63320  0.04130  Biso   1.000  H
  O7       1.0000 0.35730  0.53620  0.87230  Biso   1.000  O
  O8       1.0000 0.36480  0.62510  0.72470  Biso   1.000  O
  O9       1.0000 0.86640  0.87610  0.48610  Biso   1.000  O
  O10      1.0000 0.96050  0.84390  0.62290  Biso   1.000  O
  C17      1.0000 0.88120  0.83880  0.58180  Biso   1.000  C
  C18      1.0000 0.81240  0.79370  0.63990  Biso   1.000  C
  C19      1.0000 0.74670  0.74950  0.58080  Biso   1.000  C
  C20      1.0000 0.81100  0.79380  0.75560  Biso   1.000  C
  C21      1.0000 0.67960  0.70550  0.63750  Biso   1.000  C
  H7       1.0000 0.74770  0.74940  0.50310  Biso   1.000  H
  C22      1.0000 0.74390  0.74970  0.81226  Biso   1.000  C
  H8       1.0000 0.85510  0.82340  0.79530  Biso   1.000  H
  C23      1.0000 0.67820  0.70560  0.75320  Biso   1.000  C
  C24      1.0000 0.61230  0.66020  0.57690  Biso   1.000  C
  H9       1.0000 0.63320  0.67600  0.79130  Biso   1.000  H
  O11      1.0000 0.53620  0.64270  0.62230  Biso   1.000  O
  O12      1.0000 0.62510  0.63520  0.47470  Biso   1.000  O
  O13      1.0000 0.13360  0.12390  0.98610  Biso   1.000  O
  O14      1.0000 0.03950  0.15610  0.12290  Biso   1.000  O
  C25      1.0000 0.11880  0.16120  0.08180  Biso   1.000  C
  C26      1.0000 0.18760  0.20630  0.13990  Biso   1.000  C
  C27      1.0000 0.25330  0.25050  0.08080  Biso   1.000  C
  C28      1.0000 0.18900  0.20620  0.25560  Biso   1.000  C
  C29      1.0000 0.32040  0.29450  0.13750  Biso   1.000  C
  H10      1.0000 0.25230  0.25060  0.00310  Biso   1.000  H
  C30      1.0000 0.25610  0.25030  0.31226  Biso   1.000  C
  H11      1.0000 0.14490  0.17660  0.29530  Biso   1.000  H
  C31      1.0000 0.32180  0.29440  0.25320  Biso   1.000  C
  C32      1.0000 0.38770  0.33980  0.07690  Biso   1.000  C
  H12      1.0000 0.36680  0.32400  0.29130  Biso   1.000  H
  O15      1.0000 0.46380  0.35730  0.12230  Biso   1.000  O
  O16      1.0000 0.37490  0.36480  0.97470  Biso   1.000  O
  O17      1.0000 0.12390  0.13360  0.76390  Biso   1.000  O
  O18      1.0000 0.15610  0.03950  0.62710  Biso   1.000  O
  C33      1.0000 0.16120  0.11880  0.66820  Biso   1.000  C
  C34      1.0000 0.20630  0.18760  0.61010  Biso   1.000  C
  C35      1.0000 0.25050  0.25330  0.66920  Biso   1.000  C
  C36      1.0000 0.20620  0.18900  0.49440  Biso   1.000  C
  C37      1.0000 0.29450  0.32040  0.61250  Biso   1.000  C
  H13      1.0000 0.25060  0.25230  0.74690  Biso   1.000  H
  C38      1.0000 0.25030  0.25610  0.43774  Biso   1.000  C
  H14      1.0000 0.17660  0.14490  0.45470  Biso   1.000  H
  C39      1.0000 0.29440  0.32180  0.49680  Biso   1.000  C
  C40      1.0000 0.33980  0.38770  0.67310  Biso   1.000  C
  H15      1.0000 0.32400  0.36680  0.45870  Biso   1.000  H
  O19      1.0000 0.35730  0.46380  0.62770  Biso   1.000  O
  O20      1.0000 0.36480  0.37490  0.77530  Biso   1.000  O
  O21      1.0000 0.87610  0.86640  0.26390  Biso   1.000  O
  O22      1.0000 0.84390  0.96050  0.12710  Biso   1.000  O
  C41      1.0000 0.83880  0.88120  0.16820  Biso   1.000  C
  C42      1.0000 0.79370  0.81240  0.11010  Biso   1.000  C
  C43      1.0000 0.74950  0.74670  0.16920  Biso   1.000  C
  C44      1.0000 0.79380  0.81100  0.99440  Biso   1.000  C
  C45      1.0000 0.70550  0.67960  0.11250  Biso   1.000  C
  H16      1.0000 0.74940  0.74770  0.24690  Biso   1.000  H
  C46      1.0000 0.74970  0.74390  0.93774  Biso   1.000  C
  H17      1.0000 0.82340  0.85510  0.95470  Biso   1.000  H
  C47      1.0000 0.70560  0.67820  0.99680  Biso   1.000  C
  C48      1.0000 0.66020  0.61230  0.17310  Biso   1.000  C
  H18      1.0000 0.67600  0.63320  0.95870  Biso   1.000  H
  O23      1.0000 0.64270  0.53620  0.12770  Biso   1.000  O
  O24      1.0000 0.63520  0.62510  0.27530  Biso   1.000  O
  O25      1.0000 0.13360  0.87610  0.51390  Biso   1.000  O
  O26      1.0000 0.03950  0.84390  0.37710  Biso   1.000  O
  C49      1.0000 0.11880  0.83880  0.41820  Biso   1.000  C
  C50      1.0000 0.18760  0.79370  0.36010  Biso   1.000  C
  C51      1.0000 0.25330  0.74950  0.41920  Biso   1.000  C
  C52      1.0000 0.18900  0.79380  0.24440  Biso   1.000  C
  C53      1.0000 0.32040  0.70550  0.36250  Biso   1.000  C
  H19      1.0000 0.25230  0.74940  0.49690  Biso   1.000  H
  C54      1.0000 0.25610  0.74970  0.18774  Biso   1.000  C
  H20      1.0000 0.14490  0.82340  0.20470  Biso   1.000  H
  C55      1.0000 0.32180  0.70560  0.24680  Biso   1.000  C
  C56      1.0000 0.38770  0.66020  0.42310  Biso   1.000  C
  H21      1.0000 0.36680  0.67600  0.20870  Biso   1.000  H
  O27      1.0000 0.46380  0.64270  0.37770  Biso   1.000  O
  O28      1.0000 0.37490  0.63520  0.52530  Biso   1.000  O
  O29      1.0000 0.86640  0.12390  0.01390  Biso   1.000  O
  O30      1.0000 0.96050  0.15610  0.87710  Biso   1.000  O
  C57      1.0000 0.88120  0.16120  0.91820  Biso   1.000  C
  C58      1.0000 0.81240  0.20630  0.86010  Biso   1.000  C
  C59      1.0000 0.74670  0.25050  0.91920  Biso   1.000  C
  C60      1.0000 0.81100  0.20620  0.74440  Biso   1.000  C
  C61      1.0000 0.67960  0.29450  0.86250  Biso   1.000  C
  H22      1.0000 0.74770  0.25060  0.99690  Biso   1.000  H
  C62      1.0000 0.74390  0.25030  0.68774  Biso   1.000  C
  H23      1.0000 0.85510  0.17660  0.70470  Biso   1.000  H
  C63      1.0000 0.67820  0.29440  0.74680  Biso   1.000  C
  C64      1.0000 0.61230  0.33980  0.92310  Biso   1.000  C
  H24      1.0000 0.63320  0.32400  0.70870  Biso   1.000  H
  O31      1.0000 0.53620  0.35730  0.87770  Biso   1.000  O
  O32      1.0000 0.62510  0.36480  0.02530  Biso   1.000  O
  V1       1.0000 0.93600  0.06400  0.12500  Biso   1.000  V
  V2       1.0000 0.06400  0.93600  0.62500  Biso   1.000  V
  V3       1.0000 0.93600  0.93600  0.37500  Biso   1.000  V
  V4       1.0000 0.06400  0.06400  0.87500  Biso   1.000  V
  O33      1.0000 0.97660  0.00000  0.25000  Biso   1.000  O
  O34      1.0000 0.02340  0.00000  0.75000  Biso   1.000  O
  O35      1.0000 0.00000  0.97660  0.50000  Biso   1.000  O
  O36      1.0000 0.00000  0.02340  0.00000  Biso   1.000  O
  V5       1.0000 0.55600  0.55600  0.37500  Biso   1.000  V
  V6       1.0000 0.44400  0.44400  0.87500  Biso   1.000  V
  V7       1.0000 0.44400  0.55600  0.62500  Biso   1.000  V
  V8       1.0000 0.55600  0.44400  0.12500  Biso   1.000  V
  O37      1.0000 0.48780  0.50000  0.25000  Biso   1.000  O
  O38      1.0000 0.51220  0.50000  0.75000  Biso   1.000  O
  O39      1.0000 0.50000  0.48780  0.50000  Biso   1.000  O
  O40      1.0000 0.50000  0.51220  0.00000  Biso   1.000  O
