data_FAQGEL_clean
_audit_creation_date              2014-07-02
_audit_creation_method            'Materials Studio'
_symmetry_space_group_name_H-M    'P1'
_symmetry_Int_Tables_number       1
_symmetry_cell_setting            triclinic
loop_
_symmetry_equiv_pos_as_xyz
  x,y,z
_cell_length_a                    16.3680
_cell_length_b                    16.3680
_cell_length_c                    22.2061
_cell_angle_alpha                 68.3740
_cell_angle_beta                  68.3740
_cell_angle_gamma                 60.0000
loop_
_atom_site_label
_atom_site_type_symbol
_atom_site_fract_x
_atom_site_fract_y
_atom_site_fract_z
_atom_site_U_iso_or_equiv
_atom_site_adp_type
_atom_site_occupancy
Cd1    Cd    0.04514   0.30938   0.78134   0.01267  Uiso   1.00
Cd2    Cd    0.30938   0.86414   0.78134   0.01267  Uiso   1.00
Cd3    Cd    0.86414   0.04514   0.78134   0.01267  Uiso   1.00
Cd4    Cd    0.45486   0.63586   0.71866   0.01267  Uiso   1.00
Cd5    Cd    0.19062   0.45486   0.71866   0.01267  Uiso   1.00
Cd6    Cd    0.63586   0.19062   0.71866   0.01267  Uiso   1.00
Cd7    Cd    0.95486   0.69062   0.21866   0.01267  Uiso   1.00
Cd8    Cd    0.69062   0.13586   0.21866   0.01267  Uiso   1.00
Cd9    Cd    0.13586   0.95486   0.21866   0.01267  Uiso   1.00
Cd10   Cd    0.54514   0.36414   0.28134   0.01267  Uiso   1.00
Cd11   Cd    0.80938   0.54514   0.28134   0.01267  Uiso   1.00
Cd12   Cd    0.36414   0.80938   0.28134   0.01267  Uiso   1.00
H1     H     0.33300   0.29000   0.90400   0.01267  Uiso   1.00
H2     H     0.32950   0.21350   0.03150   0.01267  Uiso   1.00
H3     H     0.96720   0.16320   0.90940   0.01267  Uiso   1.00
H4     H     0.07080   0.12680   0.90760   0.01267  Uiso   1.00
H5     H     0.91600   0.18700   0.81100   0.01267  Uiso   1.00
H6     H     0.99290   0.15590   0.74830   0.01267  Uiso   1.00
H7     H     0.29000   0.47300   0.90400   0.01267  Uiso   1.00
H8     H     0.21350   0.42550   0.03150   0.01267  Uiso   1.00
H9     H     0.16320   0.96020   0.90940   0.01267  Uiso   1.00
H10    H     0.12680   0.89480   0.90760   0.01267  Uiso   1.00
H11    H     0.18700   0.08600   0.81100   0.01267  Uiso   1.00
H12    H     0.15590   0.10290   0.74830   0.01267  Uiso   1.00
H13    H     0.47300   0.33300   0.90400   0.01267  Uiso   1.00
H14    H     0.42550   0.32950   0.03150   0.01267  Uiso   1.00
H15    H     0.96020   0.96720   0.90940   0.01267  Uiso   1.00
H16    H     0.89480   0.07080   0.90760   0.01267  Uiso   1.00
H17    H     0.08600   0.91600   0.81100   0.01267  Uiso   1.00
H18    H     0.10290   0.99290   0.74830   0.01267  Uiso   1.00
H19    H     0.16700   0.02700   0.59600   0.01267  Uiso   1.00
H20    H     0.17050   0.07450   0.46850   0.01267  Uiso   1.00
H21    H     0.53280   0.53980   0.59060   0.01267  Uiso   1.00
H22    H     0.42920   0.60520   0.59240   0.01267  Uiso   1.00
H23    H     0.58400   0.41400   0.68900   0.01267  Uiso   1.00
H24    H     0.50710   0.39710   0.75170   0.01267  Uiso   1.00
H25    H     0.21000   0.16700   0.59600   0.01267  Uiso   1.00
H26    H     0.28650   0.17050   0.46850   0.01267  Uiso   1.00
H27    H     0.33680   0.53280   0.59060   0.01267  Uiso   1.00
H28    H     0.37320   0.42920   0.59240   0.01267  Uiso   1.00
H29    H     0.31300   0.58400   0.68900   0.01267  Uiso   1.00
H30    H     0.34410   0.50710   0.75170   0.01267  Uiso   1.00
H31    H     0.02700   0.21000   0.59600   0.01267  Uiso   1.00
H32    H     0.07450   0.28650   0.46850   0.01267  Uiso   1.00
H33    H     0.53980   0.33680   0.59060   0.01267  Uiso   1.00
H34    H     0.60520   0.37320   0.59240   0.01267  Uiso   1.00
H35    H     0.41400   0.31300   0.68900   0.01267  Uiso   1.00
H36    H     0.39710   0.34410   0.75170   0.01267  Uiso   1.00
H37    H     0.66700   0.71000   0.09600   0.01267  Uiso   1.00
H38    H     0.67050   0.78650   0.96850   0.01267  Uiso   1.00
H39    H     0.03280   0.83680   0.09060   0.01267  Uiso   1.00
H40    H     0.92920   0.87320   0.09240   0.01267  Uiso   1.00
H41    H     0.08400   0.81300   0.18900   0.01267  Uiso   1.00
H42    H     0.00710   0.84410   0.25170   0.01267  Uiso   1.00
H43    H     0.71000   0.52700   0.09600   0.01267  Uiso   1.00
H44    H     0.78650   0.57450   0.96850   0.01267  Uiso   1.00
H45    H     0.83680   0.03980   0.09060   0.01267  Uiso   1.00
H46    H     0.87320   0.10520   0.09240   0.01267  Uiso   1.00
H47    H     0.81300   0.91400   0.18900   0.01267  Uiso   1.00
H48    H     0.84410   0.89710   0.25170   0.01267  Uiso   1.00
H49    H     0.52700   0.66700   0.09600   0.01267  Uiso   1.00
H50    H     0.57450   0.67050   0.96850   0.01267  Uiso   1.00
H51    H     0.03980   0.03280   0.09060   0.01267  Uiso   1.00
H52    H     0.10520   0.92920   0.09240   0.01267  Uiso   1.00
H53    H     0.91400   0.08400   0.18900   0.01267  Uiso   1.00
H54    H     0.89710   0.00710   0.25170   0.01267  Uiso   1.00
H55    H     0.83300   0.97300   0.40400   0.01267  Uiso   1.00
H56    H     0.82950   0.92550   0.53150   0.01267  Uiso   1.00
H57    H     0.46720   0.46020   0.40940   0.01267  Uiso   1.00
H58    H     0.57080   0.39480   0.40760   0.01267  Uiso   1.00
H59    H     0.41600   0.58600   0.31100   0.01267  Uiso   1.00
H60    H     0.49290   0.60290   0.24830   0.01267  Uiso   1.00
H61    H     0.79000   0.83300   0.40400   0.01267  Uiso   1.00
H62    H     0.71350   0.82950   0.53150   0.01267  Uiso   1.00
H63    H     0.66320   0.46720   0.40940   0.01267  Uiso   1.00
H64    H     0.62680   0.57080   0.40760   0.01267  Uiso   1.00
H65    H     0.68700   0.41600   0.31100   0.01267  Uiso   1.00
H66    H     0.65590   0.49290   0.24830   0.01267  Uiso   1.00
H67    H     0.97300   0.79000   0.40400   0.01267  Uiso   1.00
H68    H     0.92550   0.71350   0.53150   0.01267  Uiso   1.00
H69    H     0.46020   0.66320   0.40940   0.01267  Uiso   1.00
H70    H     0.39480   0.62680   0.40760   0.01267  Uiso   1.00
H71    H     0.58600   0.68700   0.31100   0.01267  Uiso   1.00
H72    H     0.60290   0.65590   0.24830   0.01267  Uiso   1.00
C1     C     0.22498   0.09408   0.10446   0.01267  Uiso   1.00
C2     C     0.23512   0.15612   0.03564   0.01267  Uiso   1.00
C3     C     0.28797   0.20967   0.00819   0.01267  Uiso   1.00
C4     C     0.28058   0.26088   0.94156   0.01267  Uiso   1.00
C5     C     0.22279   0.24549   0.92053   0.01267  Uiso   1.00
C6     C     0.19910   0.28590   0.85330   0.01267  Uiso   1.00
C7     C     0.02311   0.12451   0.89317   0.01267  Uiso   1.00
C8     C     0.97810   0.14612   0.79462   0.01267  Uiso   1.00
C9     C     0.09408   0.57648   0.10446   0.01267  Uiso   1.00
C10    C     0.15612   0.57312   0.03564   0.01267  Uiso   1.00
C11    C     0.20967   0.49417   0.00819   0.01267  Uiso   1.00
C12    C     0.26088   0.51698   0.94156   0.01267  Uiso   1.00
C13    C     0.24549   0.61119   0.92053   0.01267  Uiso   1.00
C14    C     0.28590   0.66170   0.85330   0.01267  Uiso   1.00
C15    C     0.12451   0.95921   0.89317   0.01267  Uiso   1.00
C16    C     0.14612   0.08116   0.79462   0.01267  Uiso   1.00
C17    C     0.57648   0.22498   0.10446   0.01267  Uiso   1.00
C18    C     0.57312   0.23512   0.03564   0.01267  Uiso   1.00
C19    C     0.49417   0.28797   0.00819   0.01267  Uiso   1.00
C20    C     0.51698   0.28058   0.94156   0.01267  Uiso   1.00
C21    C     0.61119   0.22279   0.92053   0.01267  Uiso   1.00
C22    C     0.66170   0.19910   0.85330   0.01267  Uiso   1.00
C23    C     0.95921   0.02311   0.89317   0.01267  Uiso   1.00
C24    C     0.08116   0.97810   0.79462   0.01267  Uiso   1.00
C25    C     0.27502   0.92352   0.39554   0.01267  Uiso   1.00
C26    C     0.26488   0.92688   0.46436   0.01267  Uiso   1.00
C27    C     0.21203   0.00583   0.49181   0.01267  Uiso   1.00
C28    C     0.21942   0.98302   0.55844   0.01267  Uiso   1.00
C29    C     0.27721   0.88881   0.57947   0.01267  Uiso   1.00
C30    C     0.30090   0.83830   0.64670   0.01267  Uiso   1.00
C31    C     0.47689   0.54079   0.60683   0.01267  Uiso   1.00
C32    C     0.52190   0.41884   0.70538   0.01267  Uiso   1.00
C33    C     0.40592   0.27502   0.39554   0.01267  Uiso   1.00
C34    C     0.34388   0.26488   0.46436   0.01267  Uiso   1.00
C35    C     0.29033   0.21203   0.49181   0.01267  Uiso   1.00
C36    C     0.23912   0.21942   0.55844   0.01267  Uiso   1.00
C37    C     0.25451   0.27721   0.57947   0.01267  Uiso   1.00
C38    C     0.21410   0.30090   0.64670   0.01267  Uiso   1.00
C39    C     0.37549   0.47689   0.60683   0.01267  Uiso   1.00
C40    C     0.35388   0.52190   0.70538   0.01267  Uiso   1.00
C41    C     0.92352   0.40592   0.39554   0.01267  Uiso   1.00
C42    C     0.92688   0.34388   0.46436   0.01267  Uiso   1.00
C43    C     0.00583   0.29033   0.49181   0.01267  Uiso   1.00
C44    C     0.98302   0.23912   0.55844   0.01267  Uiso   1.00
C45    C     0.88881   0.25451   0.57947   0.01267  Uiso   1.00
C46    C     0.83830   0.21410   0.64670   0.01267  Uiso   1.00
C47    C     0.54079   0.37549   0.60683   0.01267  Uiso   1.00
C48    C     0.41884   0.35388   0.70538   0.01267  Uiso   1.00
C49    C     0.77502   0.90592   0.89554   0.01267  Uiso   1.00
C50    C     0.76488   0.84388   0.96436   0.01267  Uiso   1.00
C51    C     0.71203   0.79033   0.99181   0.01267  Uiso   1.00
C52    C     0.71942   0.73912   0.05844   0.01267  Uiso   1.00
C53    C     0.77721   0.75451   0.07947   0.01267  Uiso   1.00
C54    C     0.80090   0.71410   0.14670   0.01267  Uiso   1.00
C55    C     0.97689   0.87549   0.10683   0.01267  Uiso   1.00
C56    C     0.02190   0.85388   0.20538   0.01267  Uiso   1.00
C57    C     0.90592   0.42352   0.89554   0.01267  Uiso   1.00
C58    C     0.84388   0.42688   0.96436   0.01267  Uiso   1.00
C59    C     0.79033   0.50583   0.99181   0.01267  Uiso   1.00
C60    C     0.73912   0.48302   0.05844   0.01267  Uiso   1.00
C61    C     0.75451   0.38881   0.07947   0.01267  Uiso   1.00
C62    C     0.71410   0.33830   0.14670   0.01267  Uiso   1.00
C63    C     0.87549   0.04079   0.10683   0.01267  Uiso   1.00
C64    C     0.85388   0.91884   0.20538   0.01267  Uiso   1.00
C65    C     0.42352   0.77502   0.89554   0.01267  Uiso   1.00
C66    C     0.42688   0.76488   0.96436   0.01267  Uiso   1.00
C67    C     0.50583   0.71203   0.99181   0.01267  Uiso   1.00
C68    C     0.48302   0.71942   0.05844   0.01267  Uiso   1.00
C69    C     0.38881   0.77721   0.07947   0.01267  Uiso   1.00
C70    C     0.33830   0.80090   0.14670   0.01267  Uiso   1.00
C71    C     0.04079   0.97689   0.10683   0.01267  Uiso   1.00
C72    C     0.91884   0.02190   0.20538   0.01267  Uiso   1.00
C73    C     0.72498   0.07648   0.60446   0.01267  Uiso   1.00
C74    C     0.73512   0.07312   0.53564   0.01267  Uiso   1.00
C75    C     0.78797   0.99417   0.50819   0.01267  Uiso   1.00
C76    C     0.78058   0.01698   0.44156   0.01267  Uiso   1.00
C77    C     0.72279   0.11119   0.42053   0.01267  Uiso   1.00
C78    C     0.69910   0.16170   0.35330   0.01267  Uiso   1.00
C79    C     0.52311   0.45921   0.39317   0.01267  Uiso   1.00
C80    C     0.47810   0.58116   0.29462   0.01267  Uiso   1.00
C81    C     0.59408   0.72498   0.60446   0.01267  Uiso   1.00
C82    C     0.65612   0.73512   0.53564   0.01267  Uiso   1.00
C83    C     0.70967   0.78797   0.50819   0.01267  Uiso   1.00
C84    C     0.76088   0.78058   0.44156   0.01267  Uiso   1.00
C85    C     0.74549   0.72279   0.42053   0.01267  Uiso   1.00
C86    C     0.78590   0.69910   0.35330   0.01267  Uiso   1.00
C87    C     0.62451   0.52311   0.39317   0.01267  Uiso   1.00
C88    C     0.64612   0.47810   0.29462   0.01267  Uiso   1.00
C89    C     0.07648   0.59408   0.60446   0.01267  Uiso   1.00
C90    C     0.07312   0.65612   0.53564   0.01267  Uiso   1.00
C91    C     0.99417   0.70967   0.50819   0.01267  Uiso   1.00
C92    C     0.01698   0.76088   0.44156   0.01267  Uiso   1.00
C93    C     0.11119   0.74549   0.42053   0.01267  Uiso   1.00
C94    C     0.16170   0.78590   0.35330   0.01267  Uiso   1.00
C95    C     0.45921   0.62451   0.39317   0.01267  Uiso   1.00
C96    C     0.58116   0.64612   0.29462   0.01267  Uiso   1.00
S1     S     0.17589   0.16819   0.98110   0.01267  Uiso   1.00
S2     S     0.16819   0.67482   0.98110   0.01267  Uiso   1.00
S3     S     0.67482   0.17589   0.98110   0.01267  Uiso   1.00
S4     S     0.32411   0.82518   0.51890   0.01267  Uiso   1.00
S5     S     0.33181   0.32411   0.51890   0.01267  Uiso   1.00
S6     S     0.82518   0.33181   0.51890   0.01267  Uiso   1.00
S7     S     0.82411   0.83181   0.01890   0.01267  Uiso   1.00
S8     S     0.83181   0.32518   0.01890   0.01267  Uiso   1.00
S9     S     0.32518   0.82411   0.01890   0.01267  Uiso   1.00
S10    S     0.67589   0.17482   0.48110   0.01267  Uiso   1.00
S11    S     0.66819   0.67589   0.48110   0.01267  Uiso   1.00
S12    S     0.17482   0.66819   0.48110   0.01267  Uiso   1.00
N1     N     0.04750   0.15278   0.81865   0.01267  Uiso   1.00
N2     N     0.15278   0.98107   0.81865   0.01267  Uiso   1.00
N3     N     0.98107   0.04750   0.81865   0.01267  Uiso   1.00
N4     N     0.45250   0.51893   0.68135   0.01267  Uiso   1.00
N5     N     0.34722   0.45250   0.68135   0.01267  Uiso   1.00
N6     N     0.51893   0.34722   0.68135   0.01267  Uiso   1.00
N7     N     0.95250   0.84722   0.18135   0.01267  Uiso   1.00
N8     N     0.84722   0.01893   0.18135   0.01267  Uiso   1.00
N9     N     0.01893   0.95250   0.18135   0.01267  Uiso   1.00
N10    N     0.54750   0.48107   0.31865   0.01267  Uiso   1.00
N11    N     0.65278   0.54750   0.31865   0.01267  Uiso   1.00
N12    N     0.48107   0.65278   0.31865   0.01267  Uiso   1.00
N13    N     0.02754   0.02754   0.91738   0.01267  Uiso   1.00
N14    N     0.47246   0.47246   0.58262   0.01267  Uiso   1.00
N15    N     0.97246   0.97246   0.08262   0.01267  Uiso   1.00
N16    N     0.52754   0.52754   0.41738   0.01267  Uiso   1.00
O1     O     0.15825   0.06697   0.12375   0.01267  Uiso   1.00
O2     O     0.28236   0.07596   0.13632   0.01267  Uiso   1.00
O3     O     0.15565   0.25073   0.84175   0.01267  Uiso   1.00
O4     O     0.22626   0.35089   0.81565   0.01267  Uiso   1.00
O5     O     0.06697   0.65103   0.12375   0.01267  Uiso   1.00
O6     O     0.07596   0.50536   0.13632   0.01267  Uiso   1.00
O7     O     0.25073   0.75187   0.84175   0.01267  Uiso   1.00
O8     O     0.35089   0.60720   0.81565   0.01267  Uiso   1.00
O9     O     0.65103   0.15825   0.12375   0.01267  Uiso   1.00
O10    O     0.50536   0.28236   0.13632   0.01267  Uiso   1.00
O11    O     0.75187   0.15565   0.84175   0.01267  Uiso   1.00
O12    O     0.60720   0.22626   0.81565   0.01267  Uiso   1.00
O13    O     0.34175   0.84897   0.37625   0.01267  Uiso   1.00
O14    O     0.21764   0.99464   0.36368   0.01267  Uiso   1.00
O15    O     0.34435   0.74813   0.65825   0.01267  Uiso   1.00
O16    O     0.27374   0.89280   0.68435   0.01267  Uiso   1.00
O17    O     0.43303   0.34175   0.37625   0.01267  Uiso   1.00
O18    O     0.42404   0.21764   0.36368   0.01267  Uiso   1.00
O19    O     0.24927   0.34435   0.65825   0.01267  Uiso   1.00
O20    O     0.14911   0.27374   0.68435   0.01267  Uiso   1.00
O21    O     0.84897   0.43303   0.37625   0.01267  Uiso   1.00
O22    O     0.99464   0.42404   0.36368   0.01267  Uiso   1.00
O23    O     0.74813   0.24927   0.65825   0.01267  Uiso   1.00
O24    O     0.89280   0.14911   0.68435   0.01267  Uiso   1.00
O25    O     0.84175   0.93303   0.87625   0.01267  Uiso   1.00
O26    O     0.71764   0.92404   0.86368   0.01267  Uiso   1.00
O27    O     0.84435   0.74927   0.15825   0.01267  Uiso   1.00
O28    O     0.77374   0.64911   0.18435   0.01267  Uiso   1.00
O29    O     0.93303   0.34897   0.87625   0.01267  Uiso   1.00
O30    O     0.92404   0.49464   0.86368   0.01267  Uiso   1.00
O31    O     0.74927   0.24813   0.15825   0.01267  Uiso   1.00
O32    O     0.64911   0.39280   0.18435   0.01267  Uiso   1.00
O33    O     0.34897   0.84175   0.87625   0.01267  Uiso   1.00
O34    O     0.49464   0.71764   0.86368   0.01267  Uiso   1.00
O35    O     0.24813   0.84435   0.15825   0.01267  Uiso   1.00
O36    O     0.39280   0.77374   0.18435   0.01267  Uiso   1.00
O37    O     0.65825   0.15103   0.62375   0.01267  Uiso   1.00
O38    O     0.78236   0.00536   0.63632   0.01267  Uiso   1.00
O39    O     0.65565   0.25187   0.34175   0.01267  Uiso   1.00
O40    O     0.72626   0.10720   0.31565   0.01267  Uiso   1.00
O41    O     0.56697   0.65825   0.62375   0.01267  Uiso   1.00
O42    O     0.57596   0.78236   0.63632   0.01267  Uiso   1.00
O43    O     0.75073   0.65565   0.34175   0.01267  Uiso   1.00
O44    O     0.85089   0.72626   0.31565   0.01267  Uiso   1.00
O45    O     0.15103   0.56697   0.62375   0.01267  Uiso   1.00
O46    O     0.00536   0.57596   0.63632   0.01267  Uiso   1.00
O47    O     0.25187   0.75073   0.34175   0.01267  Uiso   1.00
O48    O     0.10720   0.85089   0.31565   0.01267  Uiso   1.00
O49    O     0.03418   0.46582   0.75000   0.01267  Uiso   1.00
O50    O     0.46582   0.75000   0.75000   0.01267  Uiso   1.00
O51    O     0.75000   0.03418   0.75000   0.01267  Uiso   1.00
O52    O     0.96582   0.53418   0.25000   0.01267  Uiso   1.00
O53    O     0.53418   0.25000   0.25000   0.01267  Uiso   1.00
O54    O     0.25000   0.96582   0.25000   0.01267  Uiso   1.00
