data_image0
_cell_length_a       15.1658
_cell_length_b       15.1658
_cell_length_c       12.0568
_cell_angle_alpha    90
_cell_angle_beta     90
_cell_angle_gamma    90

_symmetry_space_group_name_H-M    "P 1"
_symmetry_int_tables_number       1

loop_
  _symmetry_equiv_pos_as_xyz
  'x, y, z'

loop_
  _atom_site_label
  _atom_site_occupancy
  _atom_site_fract_x
  _atom_site_fract_y
  _atom_site_fract_z
  _atom_site_thermal_displace_type
  _atom_site_B_iso_or_equiv
  _atom_site_type_symbol
  O1       1.0000 0.61950  0.38140  0.60820  Biso   1.000  O
  O2       1.0000 0.59690  0.28850  0.74690  Biso   1.000  O
  C1       1.0000 0.58870  0.36310  0.70240  Biso   1.000  C
  C2       1.0000 0.54138  0.43165  0.76280  Biso   1.000  C
  C3       1.0000 0.54138  0.43165  0.87890  Biso   1.000  C
  H1       1.0000 0.57240  0.38040  0.92240  Biso   1.000  H
  O3       1.0000 0.11950  0.88140  0.10820  Biso   1.000  O
  O4       1.0000 0.09690  0.78850  0.24690  Biso   1.000  O
  C4       1.0000 0.08870  0.86310  0.20240  Biso   1.000  C
  C5       1.0000 0.04138  0.93165  0.26280  Biso   1.000  C
  C6       1.0000 0.04138  0.93165  0.37890  Biso   1.000  C
  H2       1.0000 0.07240  0.88040  0.42240  Biso   1.000  H
  O5       1.0000 0.88050  0.11860  0.10820  Biso   1.000  O
  O6       1.0000 0.90310  0.21150  0.24690  Biso   1.000  O
  C7       1.0000 0.91130  0.13690  0.20240  Biso   1.000  C
  C8       1.0000 0.95862  0.06835  0.26280  Biso   1.000  C
  C9       1.0000 0.95862  0.06835  0.37890  Biso   1.000  C
  H3       1.0000 0.92760  0.11960  0.42240  Biso   1.000  H
  O7       1.0000 0.38050  0.61860  0.60820  Biso   1.000  O
  O8       1.0000 0.40310  0.71150  0.74690  Biso   1.000  O
  C10      1.0000 0.41130  0.63690  0.70240  Biso   1.000  C
  C11      1.0000 0.45862  0.56835  0.76280  Biso   1.000  C
  C12      1.0000 0.45862  0.56835  0.87890  Biso   1.000  C
  H4       1.0000 0.42760  0.61960  0.92240  Biso   1.000  H
  O9       1.0000 0.61860  0.11950  0.85820  Biso   1.000  O
  O10      1.0000 0.71150  0.09690  0.99690  Biso   1.000  O
  C13      1.0000 0.63690  0.08870  0.95240  Biso   1.000  C
  C14      1.0000 0.56835  0.04138  0.01280  Biso   1.000  C
  C15      1.0000 0.56835  0.04138  0.12890  Biso   1.000  C
  H5       1.0000 0.61960  0.07240  0.17240  Biso   1.000  H
  O11      1.0000 0.11860  0.61950  0.35820  Biso   1.000  O
  O12      1.0000 0.21150  0.59690  0.49690  Biso   1.000  O
  C16      1.0000 0.13690  0.58870  0.45240  Biso   1.000  C
  C17      1.0000 0.06835  0.54138  0.51280  Biso   1.000  C
  C18      1.0000 0.06835  0.54138  0.62890  Biso   1.000  C
  H6       1.0000 0.11960  0.57240  0.67240  Biso   1.000  H
  O13      1.0000 0.88140  0.38050  0.35820  Biso   1.000  O
  O14      1.0000 0.78850  0.40310  0.49690  Biso   1.000  O
  C19      1.0000 0.86310  0.41130  0.45240  Biso   1.000  C
  C20      1.0000 0.93165  0.45862  0.51280  Biso   1.000  C
  C21      1.0000 0.93165  0.45862  0.62890  Biso   1.000  C
  H7       1.0000 0.88040  0.42760  0.67240  Biso   1.000  H
  O15      1.0000 0.38140  0.88050  0.85820  Biso   1.000  O
  O16      1.0000 0.28850  0.90310  0.99690  Biso   1.000  O
  C22      1.0000 0.36310  0.91130  0.95240  Biso   1.000  C
  C23      1.0000 0.43165  0.95862  0.01280  Biso   1.000  C
  C24      1.0000 0.43165  0.95862  0.12890  Biso   1.000  C
  H8       1.0000 0.38040  0.92760  0.17240  Biso   1.000  H
  O17      1.0000 0.88050  0.38140  0.14180  Biso   1.000  O
  O18      1.0000 0.90310  0.28850  0.00310  Biso   1.000  O
  C25      1.0000 0.91130  0.36310  0.04760  Biso   1.000  C
  C26      1.0000 0.95862  0.43165  0.98720  Biso   1.000  C
  C27      1.0000 0.95862  0.43165  0.87110  Biso   1.000  C
  H9       1.0000 0.92760  0.38040  0.82760  Biso   1.000  H
  O19      1.0000 0.38050  0.88140  0.64180  Biso   1.000  O
  O20      1.0000 0.40310  0.78850  0.50310  Biso   1.000  O
  C28      1.0000 0.41130  0.86310  0.54760  Biso   1.000  C
  C29      1.0000 0.45862  0.93165  0.48720  Biso   1.000  C
  C30      1.0000 0.45862  0.93165  0.37110  Biso   1.000  C
  H10      1.0000 0.42760  0.88040  0.32760  Biso   1.000  H
  O21      1.0000 0.61950  0.11860  0.64180  Biso   1.000  O
  O22      1.0000 0.59690  0.21150  0.50310  Biso   1.000  O
  C31      1.0000 0.58870  0.13690  0.54760  Biso   1.000  C
  C32      1.0000 0.54138  0.06835  0.48720  Biso   1.000  C
  C33      1.0000 0.54138  0.06835  0.37110  Biso   1.000  C
  H11      1.0000 0.57240  0.11960  0.32760  Biso   1.000  H
  O23      1.0000 0.11950  0.61860  0.14180  Biso   1.000  O
  O24      1.0000 0.09690  0.71150  0.00310  Biso   1.000  O
  C34      1.0000 0.08870  0.63690  0.04760  Biso   1.000  C
  C35      1.0000 0.04138  0.56835  0.98720  Biso   1.000  C
  C36      1.0000 0.04138  0.56835  0.87110  Biso   1.000  C
  H12      1.0000 0.07240  0.61960  0.82760  Biso   1.000  H
  O25      1.0000 0.88140  0.11950  0.89180  Biso   1.000  O
  O26      1.0000 0.78850  0.09690  0.75310  Biso   1.000  O
  C37      1.0000 0.86310  0.08870  0.79760  Biso   1.000  C
  C38      1.0000 0.93165  0.04138  0.73720  Biso   1.000  C
  C39      1.0000 0.93165  0.04138  0.62110  Biso   1.000  C
  H13      1.0000 0.88040  0.07240  0.57760  Biso   1.000  H
  O27      1.0000 0.38140  0.61950  0.39180  Biso   1.000  O
  O28      1.0000 0.28850  0.59690  0.25310  Biso   1.000  O
  C40      1.0000 0.36310  0.58870  0.29760  Biso   1.000  C
  C41      1.0000 0.43165  0.54138  0.23720  Biso   1.000  C
  C42      1.0000 0.43165  0.54138  0.12110  Biso   1.000  C
  H14      1.0000 0.38040  0.57240  0.07760  Biso   1.000  H
  O29      1.0000 0.61860  0.38050  0.39180  Biso   1.000  O
  O30      1.0000 0.71150  0.40310  0.25310  Biso   1.000  O
  C43      1.0000 0.63690  0.41130  0.29760  Biso   1.000  C
  C44      1.0000 0.56835  0.45862  0.23720  Biso   1.000  C
  C45      1.0000 0.56835  0.45862  0.12110  Biso   1.000  C
  H15      1.0000 0.61960  0.42760  0.07760  Biso   1.000  H
  O31      1.0000 0.11860  0.88050  0.89180  Biso   1.000  O
  O32      1.0000 0.21150  0.90310  0.75310  Biso   1.000  O
  C46      1.0000 0.13690  0.91130  0.79760  Biso   1.000  C
  C47      1.0000 0.06835  0.95862  0.73720  Biso   1.000  C
  C48      1.0000 0.06835  0.95862  0.62110  Biso   1.000  C
  H16      1.0000 0.11960  0.92760  0.57760  Biso   1.000  H
  V1       1.0000 0.69800  0.30200  0.50000  Biso   1.000  V
  V2       1.0000 0.19800  0.80200  0.00000  Biso   1.000  V
  V3       1.0000 0.80200  0.19800  0.00000  Biso   1.000  V
  V4       1.0000 0.30200  0.69800  0.50000  Biso   1.000  V
  V5       1.0000 0.69800  0.19800  0.75000  Biso   1.000  V
  V6       1.0000 0.19800  0.69800  0.25000  Biso   1.000  V
  V7       1.0000 0.80200  0.30200  0.25000  Biso   1.000  V
  V8       1.0000 0.30200  0.80200  0.75000  Biso   1.000  V
  O33      1.0000 0.75090  0.25000  0.62500  Biso   1.000  O
  H17      1.0000 0.82180  0.25000  0.62500  Biso   1.000  H
  O34      1.0000 0.25090  0.75000  0.12500  Biso   1.000  O
  H18      1.0000 0.32180  0.75000  0.12500  Biso   1.000  H
  O35      1.0000 0.74910  0.25000  0.12500  Biso   1.000  O
  H19      1.0000 0.67820  0.25000  0.12500  Biso   1.000  H
  O36      1.0000 0.24910  0.75000  0.62500  Biso   1.000  O
  H20      1.0000 0.17820  0.75000  0.62500  Biso   1.000  H
  O37      1.0000 0.75000  0.25090  0.87500  Biso   1.000  O
  H21      1.0000 0.75000  0.32180  0.87500  Biso   1.000  H
  O38      1.0000 0.25000  0.75090  0.37500  Biso   1.000  O
  H22      1.0000 0.25000  0.82180  0.37500  Biso   1.000  H
  O39      1.0000 0.75000  0.24910  0.37500  Biso   1.000  O
  H23      1.0000 0.75000  0.17820  0.37500  Biso   1.000  H
  O40      1.0000 0.25000  0.74910  0.87500  Biso   1.000  O
  H24      1.0000 0.25000  0.67820  0.87500  Biso   1.000  H
  C49      1.0000 0.50000  0.50000  0.70480  Biso   1.000  C
  C50      1.0000 0.50000  0.50000  0.93690  Biso   1.000  C
  H25      1.0000 0.50000  0.50000  0.61770  Biso   1.000  H
  C51      1.0000 0.00000  0.00000  0.20480  Biso   1.000  C
  C52      1.0000 0.00000  0.00000  0.43690  Biso   1.000  C
  H26      1.0000 0.00000  0.00000  0.11770  Biso   1.000  H
  C53      1.0000 0.50000  0.00000  0.95480  Biso   1.000  C
  C54      1.0000 0.50000  0.00000  0.18690  Biso   1.000  C
  H27      1.0000 0.50000  0.00000  0.86770  Biso   1.000  H
  C55      1.0000 0.00000  0.50000  0.45480  Biso   1.000  C
  C56      1.0000 0.00000  0.50000  0.68690  Biso   1.000  C
  H28      1.0000 0.00000  0.50000  0.36770  Biso   1.000  H
  C57      1.0000 0.00000  0.50000  0.04520  Biso   1.000  C
  C58      1.0000 0.00000  0.50000  0.81310  Biso   1.000  C
  H29      1.0000 0.00000  0.50000  0.13230  Biso   1.000  H
  C59      1.0000 0.50000  0.00000  0.54520  Biso   1.000  C
  C60      1.0000 0.50000  0.00000  0.31310  Biso   1.000  C
  H30      1.0000 0.50000  0.00000  0.63230  Biso   1.000  H
  C61      1.0000 0.00000  0.00000  0.79520  Biso   1.000  C
  C62      1.0000 0.00000  0.00000  0.56310  Biso   1.000  C
  H31      1.0000 0.00000  0.00000  0.88230  Biso   1.000  H
  C63      1.0000 0.50000  0.50000  0.29520  Biso   1.000  C
  C64      1.0000 0.50000  0.50000  0.06310  Biso   1.000  C
  H32      1.0000 0.50000  0.50000  0.38230  Biso   1.000  H
