data_FAQVEA_clean
_audit_creation_date              2014-07-02
_audit_creation_method            'Materials Studio'
_symmetry_space_group_name_H-M    'P1'
_symmetry_Int_Tables_number       1
_symmetry_cell_setting            triclinic
loop_
_symmetry_equiv_pos_as_xyz
  x,y,z
_cell_length_a                    9.7748
_cell_length_b                    11.9795
_cell_length_c                    11.9795
_cell_angle_alpha                 90.3078
_cell_angle_beta                  110.0490
_cell_angle_gamma                 110.0490
loop_
_atom_site_label
_atom_site_type_symbol
_atom_site_fract_x
_atom_site_fract_y
_atom_site_fract_z
_atom_site_U_iso_or_equiv
_atom_site_adp_type
_atom_site_occupancy
Zn1    Zn    0.84653   0.15922   0.37406   0.01267  Uiso   1.00
Zn2    Zn    0.34653   0.37406   0.15922   0.01267  Uiso   1.00
H1     H     0.19940   0.47340   0.74460   0.01267  Uiso   1.00
H2     H     0.99310   0.12610   0.76090   0.01267  Uiso   1.00
H3     H     0.32260   0.50380   0.94900   0.01267  Uiso   1.00
H4     H     0.12470   0.16460   0.96480   0.01267  Uiso   1.00
H5     H     0.20290   0.47770   0.34430   0.01267  Uiso   1.00
H6     H     0.05540   0.44810   0.22590   0.01267  Uiso   1.00
H7     H     0.03460   0.41880   0.34780   0.01267  Uiso   1.00
H8     H     0.69940   0.74460   0.47340   0.01267  Uiso   1.00
H9     H     0.49310   0.76090   0.12610   0.01267  Uiso   1.00
H10    H     0.82260   0.94900   0.50380   0.01267  Uiso   1.00
H11    H     0.62470   0.96480   0.16460   0.01267  Uiso   1.00
H12    H     0.70290   0.34430   0.47770   0.01267  Uiso   1.00
H13    H     0.55540   0.22590   0.44810   0.01267  Uiso   1.00
H14    H     0.53460   0.34780   0.41880   0.01267  Uiso   1.00
C1     C     0.00010   0.27710   0.59610   0.01267  Uiso   1.00
C2     C     0.10170   0.30240   0.27980   0.01267  Uiso   1.00
C3     C     0.08140   0.29650   0.73030   0.01267  Uiso   1.00
C4     C     0.18180   0.40930   0.78810   0.01267  Uiso   1.00
C5     C     0.05990   0.20360   0.79740   0.01267  Uiso   1.00
C6     C     0.25590   0.42680   0.91060   0.01267  Uiso   1.00
C7     C     0.13910   0.22780   0.91980   0.01267  Uiso   1.00
C8     C     0.09830   0.42210   0.30130   0.01267  Uiso   1.00
C9     C     0.50010   0.59610   0.27710   0.01267  Uiso   1.00
C10    C     0.60170   0.27980   0.30240   0.01267  Uiso   1.00
C11    C     0.58140   0.73030   0.29650   0.01267  Uiso   1.00
C12    C     0.68180   0.78810   0.40930   0.01267  Uiso   1.00
C13    C     0.55990   0.79740   0.20360   0.01267  Uiso   1.00
C14    C     0.75590   0.91060   0.42680   0.01267  Uiso   1.00
C15    C     0.63910   0.91980   0.22780   0.01267  Uiso   1.00
C16    C     0.59830   0.30130   0.42210   0.01267  Uiso   1.00
N1     N     0.01510   0.20038   0.30582   0.01267  Uiso   1.00
N2     N     0.23570   0.33719   0.97689   0.01267  Uiso   1.00
N3     N     0.05460   0.11300   0.27060   0.01267  Uiso   1.00
N4     N     0.19300   0.27865   0.22915   0.01267  Uiso   1.00
N5     N     0.16060   0.15920   0.22520   0.01267  Uiso   1.00
N6     N     0.51510   0.30582   0.20038   0.01267  Uiso   1.00
N7     N     0.73570   0.97689   0.33719   0.01267  Uiso   1.00
N8     N     0.55460   0.27060   0.11300   0.01267  Uiso   1.00
N9     N     0.69300   0.22915   0.27865   0.01267  Uiso   1.00
N10    N     0.66060   0.22520   0.15920   0.01267  Uiso   1.00
O1     O     0.91040   0.16993   0.54817   0.01267  Uiso   1.00
O2     O     0.02040   0.36089   0.53891   0.01267  Uiso   1.00
O3     O     0.41040   0.54817   0.16993   0.01267  Uiso   1.00
O4     O     0.52040   0.53891   0.36089   0.01267  Uiso   1.00
Zn3    Zn    0.65347   0.62594   0.84078   0.01267  Uiso   1.00
Zn4    Zn    0.15347   0.84078   0.62594   0.01267  Uiso   1.00
H15    H     0.30060   0.25540   0.52660   0.01267  Uiso   1.00
H16    H     0.50690   0.23910   0.87390   0.01267  Uiso   1.00
H17    H     0.17740   0.05100   0.49620   0.01267  Uiso   1.00
H18    H     0.37530   0.03520   0.83540   0.01267  Uiso   1.00
H19    H     0.29710   0.65570   0.52230   0.01267  Uiso   1.00
H20    H     0.44460   0.77410   0.55190   0.01267  Uiso   1.00
H21    H     0.46540   0.65220   0.58120   0.01267  Uiso   1.00
H22    H     0.80060   0.52660   0.25540   0.01267  Uiso   1.00
H23    H     0.00690   0.87390   0.23910   0.01267  Uiso   1.00
H24    H     0.67740   0.49620   0.05100   0.01267  Uiso   1.00
H25    H     0.87530   0.83540   0.03520   0.01267  Uiso   1.00
H26    H     0.79710   0.52230   0.65570   0.01267  Uiso   1.00
H27    H     0.94460   0.55190   0.77410   0.01267  Uiso   1.00
H28    H     0.96540   0.58120   0.65220   0.01267  Uiso   1.00
C17    C     0.49990   0.40390   0.72290   0.01267  Uiso   1.00
C18    C     0.39830   0.72020   0.69760   0.01267  Uiso   1.00
C19    C     0.41860   0.26970   0.70350   0.01267  Uiso   1.00
C20    C     0.31820   0.21190   0.59070   0.01267  Uiso   1.00
C21    C     0.44010   0.20260   0.79640   0.01267  Uiso   1.00
C22    C     0.24410   0.08940   0.57320   0.01267  Uiso   1.00
C23    C     0.36090   0.08020   0.77220   0.01267  Uiso   1.00
C24    C     0.40170   0.69870   0.57790   0.01267  Uiso   1.00
C25    C     0.99990   0.72290   0.40390   0.01267  Uiso   1.00
C26    C     0.89830   0.69760   0.72020   0.01267  Uiso   1.00
C27    C     0.91860   0.70350   0.26970   0.01267  Uiso   1.00
C28    C     0.81820   0.59070   0.21190   0.01267  Uiso   1.00
C29    C     0.94010   0.79640   0.20260   0.01267  Uiso   1.00
C30    C     0.74410   0.57320   0.08940   0.01267  Uiso   1.00
C31    C     0.86090   0.77220   0.08020   0.01267  Uiso   1.00
C32    C     0.90170   0.57790   0.69870   0.01267  Uiso   1.00
N11    N     0.48490   0.69418   0.79962   0.01267  Uiso   1.00
N12    N     0.26430   0.02311   0.66281   0.01267  Uiso   1.00
N13    N     0.44540   0.72940   0.88700   0.01267  Uiso   1.00
N14    N     0.30700   0.77085   0.72135   0.01267  Uiso   1.00
N15    N     0.33940   0.77480   0.84080   0.01267  Uiso   1.00
N16    N     0.98490   0.79962   0.69418   0.01267  Uiso   1.00
N17    N     0.76430   0.66281   0.02311   0.01267  Uiso   1.00
N18    N     0.94540   0.88700   0.72940   0.01267  Uiso   1.00
N19    N     0.80700   0.72135   0.77085   0.01267  Uiso   1.00
N20    N     0.83940   0.84080   0.77480   0.01267  Uiso   1.00
O5     O     0.58960   0.45183   0.83007   0.01267  Uiso   1.00
O6     O     0.47960   0.46109   0.63911   0.01267  Uiso   1.00
O7     O     0.08960   0.83007   0.45183   0.01267  Uiso   1.00
O8     O     0.97960   0.63911   0.46109   0.01267  Uiso   1.00
