data_FARHIR_ion_b
_audit_creation_date              2014-07-02
_audit_creation_method            'Materials Studio'
_symmetry_space_group_name_H-M    'P1'
_symmetry_Int_Tables_number       1
_symmetry_cell_setting            triclinic
loop_
_symmetry_equiv_pos_as_xyz
  x,y,z
_cell_length_a                    13.5107
_cell_length_b                    23.3800
_cell_length_c                    5.8727
_cell_angle_alpha                 90.0000
_cell_angle_beta                  90.0000
_cell_angle_gamma                 90.0000
loop_
_atom_site_label
_atom_site_type_symbol
_atom_site_fract_x
_atom_site_fract_y
_atom_site_fract_z
_atom_site_U_iso_or_equiv
_atom_site_adp_type
_atom_site_occupancy
O1     O     0.62800   0.67910   0.40900   0.00000  Uiso   1.00
O2     O     0.61890   0.65920   0.77480   0.00000  Uiso   1.00
C4     C     0.59350   0.65260   0.57660   0.00000  Uiso   1.00
C5     C     0.51060   0.61110   0.52780   0.00000  Uiso   1.00
C6     C     0.47810   0.57340   0.69160   0.00000  Uiso   1.00
H7     H     0.50960   0.57210   0.83230   0.00000  Uiso   1.00
C8     C     0.39860   0.53720   0.64880   0.00000  Uiso   1.00
H9     H     0.37650   0.51230   0.76100   0.00000  Uiso   1.00
C10    C     0.35350   0.53850   0.44200   0.00000  Uiso   1.00
C11    C     0.38490   0.57560   0.26910   0.00000  Uiso   1.00
H12    H     0.35300   0.57650   0.12880   0.00000  Uiso   1.00
C13    C     0.46500   0.61080   0.31380   0.00000  Uiso   1.00
H14    H     0.48890   0.63470   0.19980   0.00000  Uiso   1.00
O15    O     0.87200   0.82090   0.40900   0.00000  Uiso   1.00
O16    O     0.88110   0.84080   0.77480   0.00000  Uiso   1.00
C18    C     0.90650   0.84740   0.57660   0.00000  Uiso   1.00
C19    C     0.98940   0.88890   0.52780   0.00000  Uiso   1.00
C20    C     0.02190   0.92660   0.69160   0.00000  Uiso   1.00
H21    H     0.99040   0.92790   0.83230   0.00000  Uiso   1.00
C22    C     0.10140   0.96280   0.64880   0.00000  Uiso   1.00
H23    H     0.12350   0.98770   0.76100   0.00000  Uiso   1.00
C24    C     0.14650   0.96150   0.44200   0.00000  Uiso   1.00
C25    C     0.11510   0.92440   0.26910   0.00000  Uiso   1.00
H26    H     0.14700   0.92350   0.12880   0.00000  Uiso   1.00
C27    C     0.03500   0.88920   0.31380   0.00000  Uiso   1.00
H28    H     0.01110   0.86530   0.19980   0.00000  Uiso   1.00
O29    O     0.37200   0.17910   0.59100   0.00000  Uiso   1.00
O30    O     0.38110   0.15920   0.22520   0.00000  Uiso   1.00
C32    C     0.40650   0.15260   0.42340   0.00000  Uiso   1.00
C33    C     0.48940   0.11110   0.47220   0.00000  Uiso   1.00
C34    C     0.52190   0.07340   0.30840   0.00000  Uiso   1.00
H35    H     0.49040   0.07210   0.16770   0.00000  Uiso   1.00
C36    C     0.60140   0.03720   0.35120   0.00000  Uiso   1.00
H37    H     0.62350   0.01230   0.23900   0.00000  Uiso   1.00
C38    C     0.64650   0.03850   0.55800   0.00000  Uiso   1.00
C39    C     0.61510   0.07560   0.73090   0.00000  Uiso   1.00
H40    H     0.64700   0.07650   0.87120   0.00000  Uiso   1.00
C41    C     0.53500   0.11080   0.68620   0.00000  Uiso   1.00
H42    H     0.51110   0.13470   0.80020   0.00000  Uiso   1.00
O43    O     0.12800   0.32090   0.59100   0.00000  Uiso   1.00
O44    O     0.11890   0.34080   0.22520   0.00000  Uiso   1.00
C46    C     0.09350   0.34740   0.42340   0.00000  Uiso   1.00
C47    C     0.01060   0.38890   0.47220   0.00000  Uiso   1.00
C48    C     0.97810   0.42660   0.30840   0.00000  Uiso   1.00
H49    H     0.00960   0.42790   0.16770   0.00000  Uiso   1.00
C50    C     0.89860   0.46280   0.35120   0.00000  Uiso   1.00
H51    H     0.87650   0.48770   0.23900   0.00000  Uiso   1.00
C52    C     0.85350   0.46150   0.55800   0.00000  Uiso   1.00
C53    C     0.88490   0.42440   0.73090   0.00000  Uiso   1.00
H54    H     0.85300   0.42350   0.87120   0.00000  Uiso   1.00
C55    C     0.96500   0.38920   0.68620   0.00000  Uiso   1.00
H56    H     0.98890   0.36530   0.80020   0.00000  Uiso   1.00
O57    O     0.37200   0.32090   0.59100   0.00000  Uiso   1.00
O58    O     0.38110   0.34080   0.22520   0.00000  Uiso   1.00
C60    C     0.40650   0.34740   0.42340   0.00000  Uiso   1.00
C61    C     0.48940   0.38890   0.47220   0.00000  Uiso   1.00
C62    C     0.52190   0.42660   0.30840   0.00000  Uiso   1.00
H63    H     0.49040   0.42790   0.16770   0.00000  Uiso   1.00
C64    C     0.60140   0.46280   0.35120   0.00000  Uiso   1.00
H65    H     0.62350   0.48770   0.23900   0.00000  Uiso   1.00
C66    C     0.64650   0.46150   0.55800   0.00000  Uiso   1.00
C67    C     0.61510   0.42440   0.73090   0.00000  Uiso   1.00
H68    H     0.64700   0.42350   0.87120   0.00000  Uiso   1.00
C69    C     0.53500   0.38920   0.68620   0.00000  Uiso   1.00
H70    H     0.51110   0.36530   0.80020   0.00000  Uiso   1.00
O71    O     0.12800   0.17910   0.59100   0.00000  Uiso   1.00
O72    O     0.11890   0.15920   0.22520   0.00000  Uiso   1.00
C74    C     0.09350   0.15260   0.42340   0.00000  Uiso   1.00
C75    C     0.01060   0.11110   0.47220   0.00000  Uiso   1.00
C76    C     0.97810   0.07340   0.30840   0.00000  Uiso   1.00
H77    H     0.00960   0.07210   0.16770   0.00000  Uiso   1.00
C78    C     0.89860   0.03720   0.35120   0.00000  Uiso   1.00
H79    H     0.87650   0.01230   0.23900   0.00000  Uiso   1.00
C80    C     0.85350   0.03850   0.55800   0.00000  Uiso   1.00
C81    C     0.88490   0.07560   0.73090   0.00000  Uiso   1.00
H82    H     0.85300   0.07650   0.87120   0.00000  Uiso   1.00
C83    C     0.96500   0.11080   0.68620   0.00000  Uiso   1.00
H84    H     0.98890   0.13470   0.80020   0.00000  Uiso   1.00
O85    O     0.62800   0.82090   0.40900   0.00000  Uiso   1.00
O86    O     0.61890   0.84080   0.77480   0.00000  Uiso   1.00
C88    C     0.59350   0.84740   0.57660   0.00000  Uiso   1.00
C89    C     0.51060   0.88890   0.52780   0.00000  Uiso   1.00
C90    C     0.47810   0.92660   0.69160   0.00000  Uiso   1.00
H91    H     0.50960   0.92790   0.83230   0.00000  Uiso   1.00
C92    C     0.39860   0.96280   0.64880   0.00000  Uiso   1.00
H93    H     0.37650   0.98770   0.76100   0.00000  Uiso   1.00
C94    C     0.35350   0.96150   0.44200   0.00000  Uiso   1.00
C95    C     0.38490   0.92440   0.26910   0.00000  Uiso   1.00
H96    H     0.35300   0.92350   0.12880   0.00000  Uiso   1.00
C97    C     0.46500   0.88920   0.31380   0.00000  Uiso   1.00
H98    H     0.48890   0.86530   0.19980   0.00000  Uiso   1.00
O99    O     0.87200   0.67910   0.40900   0.00000  Uiso   1.00
O100   O     0.88110   0.65920   0.77480   0.00000  Uiso   1.00
C102   C     0.90650   0.65260   0.57660   0.00000  Uiso   1.00
C103   C     0.98940   0.61110   0.52780   0.00000  Uiso   1.00
C104   C     0.02190   0.57340   0.69160   0.00000  Uiso   1.00
H105   H     0.99040   0.57210   0.83230   0.00000  Uiso   1.00
C106   C     0.10140   0.53720   0.64880   0.00000  Uiso   1.00
H107   H     0.12350   0.51230   0.76100   0.00000  Uiso   1.00
C108   C     0.14650   0.53850   0.44200   0.00000  Uiso   1.00
C109   C     0.11510   0.57560   0.26910   0.00000  Uiso   1.00
H110   H     0.14700   0.57650   0.12880   0.00000  Uiso   1.00
C111   C     0.03500   0.61080   0.31380   0.00000  Uiso   1.00
H112   H     0.01110   0.63470   0.19980   0.00000  Uiso   1.00
Pb113  Pb    0.75000   0.75000   0.66987   0.00000  Uiso   1.00
O114   O     0.75000   0.75000   0.09070   0.00000  Uiso   1.00
Pb115  Pb    0.25000   0.25000   0.33013   0.00000  Uiso   1.00
O116   O     0.25000   0.25000   0.90930   0.00000  Uiso   1.00
K117   K     0.25000   0.37312   0.90820   0.00000  Uiso   1.00
S118   S     0.25000   0.49411   0.38730   0.00000  Uiso   1.00
O119   O     0.25000   0.48070   0.14640   0.00000  Uiso   1.00
O120   O     0.25000   0.44910   0.55370   0.00000  Uiso   1.00
K122   K     0.25000   0.12688   0.90820   0.00000  Uiso   1.00
S123   S     0.25000   0.00589   0.38730   0.00000  Uiso   1.00
O124   O     0.25000   0.01930   0.14640   0.00000  Uiso   1.00
O125   O     0.25000   0.05090   0.55370   0.00000  Uiso   1.00
K127   K     0.75000   0.87312   0.09180   0.00000  Uiso   1.00
S128   S     0.75000   0.99411   0.61270   0.00000  Uiso   1.00
O129   O     0.75000   0.98070   0.85360   0.00000  Uiso   1.00
O130   O     0.75000   0.94910   0.44630   0.00000  Uiso   1.00
K132   K     0.75000   0.62688   0.09180   0.00000  Uiso   1.00
S133   S     0.75000   0.50589   0.61270   0.00000  Uiso   1.00
O134   O     0.75000   0.51930   0.85360   0.00000  Uiso   1.00
O135   O     0.75000   0.55090   0.44630   0.00000  Uiso   1.00
loop_
_geom_bond_atom_site_label_1
_geom_bond_atom_site_label_2
_geom_bond_distance
_geom_bond_site_symmetry_2
_ccdc_geom_bond_type
O1     C4      1.253   .     A
O1     K132    2.771   .     S
O2     C4      1.223   .     A
O2     K132    2.678   1_556 A
C4     C5      1.509   .     S
C5     C6      1.377   .     A
C5     C13     1.400   .     A
C6     H7      0.930   .     S
C6     C8      1.390   .     A
C8     H9      0.929   .     S
C8     C10     1.359   .     A
C10    C11     1.401   .     A
C10    S118    1.771   .     S
C11    H12     0.930   .     S
C11    C13     1.385   .     A
C13    H14     0.930   .     S
O15    C18     1.253   .     A
O15    K127    2.771   .     S
O16    C18     1.223   .     A
O16    K127    2.678   1_556 S
C18    C19     1.509   .     S
C19    C20     1.377   1_655 A
C19    C27     1.400   1_655 S
C20    C22     1.390   .     A
C20    C19     1.377   1_455 A
C20    H21     0.930   1_455 A
H21    C20     0.930   1_655 A
C22    H23     0.929   .     S
C22    C24     1.359   .     A
C24    C25     1.401   .     A
C24    S123    1.771   1_565 A
C25    H26     0.930   .     S
C25    C27     1.385   .     A
C27    H28     0.930   .     S
C27    C19     1.400   1_455 S
O29    C32     1.253   .     A
O29    K122    2.771   .     S
O30    C32     1.223   .     A
O30    K122    2.678   1_554 A
C32    C33     1.509   .     S
C33    C34     1.377   .     A
C33    C41     1.400   .     A
C34    H35     0.930   .     S
C34    C36     1.390   .     A
C36    H37     0.929   .     S
C36    C38     1.359   .     A
C38    C39     1.401   .     A
C38    S128    1.771   1_545 A
C39    H40     0.930   .     S
C39    C41     1.385   .     A
C41    H42     0.930   .     S
O43    C46     1.253   .     A
O43    K117    2.771   .     S
O44    C46     1.223   .     A
O44    K117    2.678   1_554 S
C46    C47     1.509   .     S
C47    C48     1.377   1_455 S
C47    C55     1.400   1_455 A
C48    C50     1.390   .     A
C48    C47     1.377   1_655 S
C48    H49     0.930   1_655 A
H49    C48     0.930   1_455 A
C50    H51     0.929   .     S
C50    C52     1.359   .     A
C52    C53     1.401   .     A
C52    S133    1.771   .     S
C53    H54     0.930   .     S
C53    C55     1.385   .     A
C55    H56     0.930   .     S
C55    C47     1.400   1_655 A
O57    C60     1.253   .     A
O57    K117    2.771   .     S
O58    C60     1.223   .     A
O58    K117    2.678   1_554 S
C60    C61     1.509   .     S
C61    C62     1.377   .     A
C61    C69     1.400   .     A
C62    H63     0.930   .     S
C62    C64     1.390   .     A
C64    H65     0.929   .     S
C64    C66     1.359   .     A
C66    C67     1.401   .     A
C66    S133    1.771   .     S
C67    H68     0.930   .     S
C67    C69     1.385   .     A
C69    H70     0.930   .     S
O71    C74     1.253   .     A
O71    K122    2.771   .     S
O72    C74     1.223   .     A
O72    K122    2.678   1_554 A
C74    C75     1.509   .     S
C75    C76     1.377   1_455 S
C75    C83     1.400   1_455 A
C76    C78     1.390   .     A
C76    C75     1.377   1_655 S
C76    H77     0.930   1_655 S
H77    C76     0.930   1_455 S
C78    H79     0.929   .     S
C78    C80     1.359   .     A
C80    C81     1.401   .     A
C80    S128    1.771   1_545 S
C81    H82     0.930   .     S
C81    C83     1.385   .     A
C83    H84     0.930   .     S
C83    C75     1.400   1_655 A
O85    C88     1.253   .     A
O85    K127    2.771   .     S
O86    C88     1.223   .     A
O86    K127    2.678   1_556 S
C88    C89     1.509   .     S
C89    C90     1.377   .     A
C89    C97     1.400   .     A
C90    H91     0.930   .     S
C90    C92     1.390   .     A
C92    H93     0.929   .     S
C92    C94     1.359   .     A
C94    C95     1.401   .     A
C94    S123    1.771   1_565 A
C95    H96     0.930   .     S
C95    C97     1.385   .     A
C97    H98     0.930   .     S
O99    C102    1.253   .     A
O99    K132    2.771   .     S
O100   C102    1.223   .     A
O100   K132    2.678   1_556 S
C102   C103    1.509   .     S
C103   C104    1.377   1_655 A
C103   C111    1.400   1_655 A
C104   C106    1.390   .     A
C104   C103    1.377   1_455 A
C104   H105    0.930   1_455 A
H105   C104    0.930   1_655 A
C106   H107    0.929   .     S
C106   C108    1.359   .     A
C108   C109    1.401   .     A
C108   S118    1.771   .     S
C109   H110    0.930   .     S
C109   C111    1.385   .     A
C111   H112    0.930   .     S
C111   C103    1.400   1_455 A
Pb113  O114    2.471   1_556 A
Pb113  K127    3.798   1_556 S
Pb113  K132    3.798   1_556 A
O114   K127    2.879   .     S
O114   K132    2.879   .     S
O114   Pb113   2.471   1_554 A
Pb115  O116    2.471   1_554 A
Pb115  K117    3.798   1_554 S
Pb115  K122    3.798   1_554 A
O116   K117    2.879   .     S
O116   K122    2.879   .     S
O116   Pb115   2.471   1_556 A
K117   O120    2.737   .     S
K117   O44     2.678   1_556 S
K117   O58     2.678   1_556 S
K117   Pb115   3.798   1_556 S
K117   O119    2.878   1_556 A
S118   O119    1.449   .     D
S118   O120    1.436   .     D
O119   K117    2.878   1_554 A
K122   O125    2.737   .     S
K122   O30     2.678   1_556 A
K122   O72     2.678   1_556 A
K122   Pb115   3.798   1_556 A
K122   O124    2.878   1_556 A
S123   O124    1.449   .     D
S123   O125    1.436   .     D
S123   C24     1.771   1_545 A
S123   C94     1.771   1_545 A
O124   K122    2.878   1_554 A
K127   O130    2.737   .     S
K127   O16     2.678   1_554 S
K127   O86     2.678   1_554 S
K127   Pb113   3.798   1_554 S
K127   O129    2.878   1_554 A
S128   O129    1.449   .     D
S128   O130    1.436   .     D
S128   C38     1.771   1_565 A
S128   C80     1.771   1_565 S
O129   K127    2.878   1_556 A
K132   O135    2.737   .     S
K132   O2      2.678   1_554 A
K132   O100    2.678   1_554 S
K132   Pb113   3.798   1_554 A
K132   O134    2.878   1_554 S
S133   O134    1.449   .     D
S133   O135    1.436   .     D
O134   K132    2.878   1_556 S
