data_image0
_cell_length_a       12.8171
_cell_length_b       17.2131
_cell_length_c       16.9466
_cell_angle_alpha    90
_cell_angle_beta     108.736
_cell_angle_gamma    90

_symmetry_space_group_name_H-M    "P 1"
_symmetry_int_tables_number       1

loop_
  _symmetry_equiv_pos_as_xyz
  'x, y, z'

loop_
  _atom_site_label
  _atom_site_occupancy
  _atom_site_fract_x
  _atom_site_fract_y
  _atom_site_fract_z
  _atom_site_thermal_displace_type
  _atom_site_B_iso_or_equiv
  _atom_site_type_symbol
  Re1      1.0000 0.69417  0.37919  0.06298  Biso   1.000  Re
  Re2      1.0000 0.79556  0.38130  0.93404  Biso   1.000  Re
  Re3      1.0000 0.85601  0.26521  0.06272  Biso   1.000  Re
  Re4      1.0000 0.64455  0.26043  0.93686  Biso   1.000  Re
  Nd1      1.0000 0.31727  0.30665  0.14879  Biso   1.000  Nd
  Te1      1.0000 0.82941  0.23472  0.90449  Biso   1.000  Te
  Te2      1.0000 0.67411  0.23165  0.09568  Biso   1.000  Te
  Te3      1.0000 0.58297  0.40699  0.90551  Biso   1.000  Te
  Te4      1.0000 0.90349  0.41427  0.09068  Biso   1.000  Te
  N1       1.0000 0.45800  0.37600  0.09310  Biso   1.000  N
  N2       1.0000 0.76090  0.40090  0.26360  Biso   1.000  N
  N3       1.0000 0.67380  0.56420  0.09150  Biso   1.000  N
  N4       1.0000 0.79050  0.56660  0.89650  Biso   1.000  N
  N5       1.0000 0.72200  0.39920  0.73280  Biso   1.000  N
  N6       1.0000 0.03670  0.40060  0.91250  Biso   1.000  N
  N7       1.0000 0.11760  0.25830  0.08860  Biso   1.000  N
  N8       1.0000 0.89140  0.07900  0.08210  Biso   1.000  N
  N9       1.0000 0.96880  0.25680  0.26310  Biso   1.000  N
  N10      1.0000 0.62570  0.07200  0.91820  Biso   1.000  N
  N11      1.0000 0.51700  0.23870  0.73930  Biso   1.000  N
  N12      1.0000 0.38840  0.22930  0.91650  Biso   1.000  N
  C1       1.0000 0.53910  0.37990  0.07890  Biso   1.000  C
  C2       1.0000 0.73870  0.39050  0.19170  Biso   1.000  C
  C3       1.0000 0.67870  0.49970  0.07820  Biso   1.000  C
  C4       1.0000 0.79420  0.50280  0.91510  Biso   1.000  C
  C5       1.0000 0.74680  0.38940  0.80320  Biso   1.000  C
  C6       1.0000 0.95250  0.39220  0.92030  Biso   1.000  C
  C7       1.0000 0.02410  0.25990  0.07520  Biso   1.000  C
  C8       1.0000 0.87940  0.14510  0.07530  Biso   1.000  C
  C9       1.0000 0.92650  0.25970  0.19260  Biso   1.000  C
  C10      1.0000 0.63590  0.13650  0.92670  Biso   1.000  C
  C11      1.0000 0.57080  0.24870  0.80800  Biso   1.000  C
  C12      1.0000 0.47810  0.24370  0.92630  Biso   1.000  C
  Re5      1.0000 0.30583  0.87919  0.43702  Biso   1.000  Re
  Re6      1.0000 0.20444  0.88130  0.56596  Biso   1.000  Re
  Re7      1.0000 0.14399  0.76521  0.43728  Biso   1.000  Re
  Re8      1.0000 0.35545  0.76043  0.56314  Biso   1.000  Re
  Nd2      1.0000 0.68273  0.80665  0.35121  Biso   1.000  Nd
  Te5      1.0000 0.17059  0.73472  0.59551  Biso   1.000  Te
  Te6      1.0000 0.32589  0.73165  0.40432  Biso   1.000  Te
  Te7      1.0000 0.41703  0.90699  0.59449  Biso   1.000  Te
  Te8      1.0000 0.09651  0.91427  0.40932  Biso   1.000  Te
  N13      1.0000 0.54200  0.87600  0.40690  Biso   1.000  N
  N14      1.0000 0.23910  0.90090  0.23640  Biso   1.000  N
  N15      1.0000 0.32620  0.06420  0.40850  Biso   1.000  N
  N16      1.0000 0.20950  0.06660  0.60350  Biso   1.000  N
  N17      1.0000 0.27800  0.89920  0.76720  Biso   1.000  N
  N18      1.0000 0.96330  0.90060  0.58750  Biso   1.000  N
  N19      1.0000 0.88240  0.75830  0.41140  Biso   1.000  N
  N20      1.0000 0.10860  0.57900  0.41790  Biso   1.000  N
  N21      1.0000 0.03120  0.75680  0.23690  Biso   1.000  N
  N22      1.0000 0.37430  0.57200  0.58180  Biso   1.000  N
  N23      1.0000 0.48300  0.73870  0.76070  Biso   1.000  N
  N24      1.0000 0.61160  0.72930  0.58350  Biso   1.000  N
  C13      1.0000 0.46090  0.87990  0.42110  Biso   1.000  C
  C14      1.0000 0.26130  0.89050  0.30830  Biso   1.000  C
  C15      1.0000 0.32130  0.99970  0.42180  Biso   1.000  C
  C16      1.0000 0.20580  0.00280  0.58490  Biso   1.000  C
  C17      1.0000 0.25320  0.88940  0.69680  Biso   1.000  C
  C18      1.0000 0.04750  0.89220  0.57970  Biso   1.000  C
  C19      1.0000 0.97590  0.75990  0.42480  Biso   1.000  C
  C20      1.0000 0.12060  0.64510  0.42470  Biso   1.000  C
  C21      1.0000 0.07350  0.75970  0.30740  Biso   1.000  C
  C22      1.0000 0.36410  0.63650  0.57330  Biso   1.000  C
  C23      1.0000 0.42920  0.74870  0.69200  Biso   1.000  C
  C24      1.0000 0.52190  0.74370  0.57370  Biso   1.000  C
  Re9      1.0000 0.30583  0.62081  0.93702  Biso   1.000  Re
  Re10     1.0000 0.20444  0.61870  0.06596  Biso   1.000  Re
  Re11     1.0000 0.14399  0.73479  0.93728  Biso   1.000  Re
  Re12     1.0000 0.35545  0.73957  0.06314  Biso   1.000  Re
  Nd3      1.0000 0.68273  0.69335  0.85121  Biso   1.000  Nd
  Te9      1.0000 0.17059  0.76528  0.09551  Biso   1.000  Te
  Te10     1.0000 0.32589  0.76835  0.90432  Biso   1.000  Te
  Te11     1.0000 0.41703  0.59301  0.09449  Biso   1.000  Te
  Te12     1.0000 0.09651  0.58573  0.90932  Biso   1.000  Te
  N25      1.0000 0.54200  0.62400  0.90690  Biso   1.000  N
  N26      1.0000 0.23910  0.59910  0.73640  Biso   1.000  N
  N27      1.0000 0.32620  0.43580  0.90850  Biso   1.000  N
  N28      1.0000 0.20950  0.43340  0.10350  Biso   1.000  N
  N29      1.0000 0.27800  0.60080  0.26720  Biso   1.000  N
  N30      1.0000 0.96330  0.59940  0.08750  Biso   1.000  N
  N31      1.0000 0.88240  0.74170  0.91140  Biso   1.000  N
  N32      1.0000 0.10860  0.92100  0.91790  Biso   1.000  N
  N33      1.0000 0.03120  0.74320  0.73690  Biso   1.000  N
  N34      1.0000 0.37430  0.92800  0.08180  Biso   1.000  N
  N35      1.0000 0.48300  0.76130  0.26070  Biso   1.000  N
  N36      1.0000 0.61160  0.77070  0.08350  Biso   1.000  N
  C25      1.0000 0.46090  0.62010  0.92110  Biso   1.000  C
  C26      1.0000 0.26130  0.60950  0.80830  Biso   1.000  C
  C27      1.0000 0.32130  0.50030  0.92180  Biso   1.000  C
  C28      1.0000 0.20580  0.49720  0.08490  Biso   1.000  C
  C29      1.0000 0.25320  0.61060  0.19680  Biso   1.000  C
  C30      1.0000 0.04750  0.60780  0.07970  Biso   1.000  C
  C31      1.0000 0.97590  0.74010  0.92480  Biso   1.000  C
  C32      1.0000 0.12060  0.85490  0.92470  Biso   1.000  C
  C33      1.0000 0.07350  0.74030  0.80740  Biso   1.000  C
  C34      1.0000 0.36410  0.86350  0.07330  Biso   1.000  C
  C35      1.0000 0.42920  0.75130  0.19200  Biso   1.000  C
  C36      1.0000 0.52190  0.75630  0.07370  Biso   1.000  C
  Re13     1.0000 0.69417  0.12081  0.56298  Biso   1.000  Re
  Re14     1.0000 0.79556  0.11870  0.43404  Biso   1.000  Re
  Re15     1.0000 0.85601  0.23479  0.56272  Biso   1.000  Re
  Re16     1.0000 0.64455  0.23957  0.43686  Biso   1.000  Re
  Nd4      1.0000 0.31727  0.19335  0.64879  Biso   1.000  Nd
  Te13     1.0000 0.82941  0.26528  0.40449  Biso   1.000  Te
  Te14     1.0000 0.67411  0.26835  0.59568  Biso   1.000  Te
  Te15     1.0000 0.58297  0.09301  0.40551  Biso   1.000  Te
  Te16     1.0000 0.90349  0.08573  0.59068  Biso   1.000  Te
  N37      1.0000 0.45800  0.12400  0.59310  Biso   1.000  N
  N38      1.0000 0.76090  0.09910  0.76360  Biso   1.000  N
  N39      1.0000 0.67380  0.93580  0.59150  Biso   1.000  N
  N40      1.0000 0.79050  0.93340  0.39650  Biso   1.000  N
  N41      1.0000 0.72200  0.10080  0.23280  Biso   1.000  N
  N42      1.0000 0.03670  0.09940  0.41250  Biso   1.000  N
  N43      1.0000 0.11760  0.24170  0.58860  Biso   1.000  N
  N44      1.0000 0.89140  0.42100  0.58210  Biso   1.000  N
  N45      1.0000 0.96880  0.24320  0.76310  Biso   1.000  N
  N46      1.0000 0.62570  0.42800  0.41820  Biso   1.000  N
  N47      1.0000 0.51700  0.26130  0.23930  Biso   1.000  N
  N48      1.0000 0.38840  0.27070  0.41650  Biso   1.000  N
  C37      1.0000 0.53910  0.12010  0.57890  Biso   1.000  C
  C38      1.0000 0.73870  0.10950  0.69170  Biso   1.000  C
  C39      1.0000 0.67870  0.00030  0.57820  Biso   1.000  C
  C40      1.0000 0.79420  0.99720  0.41510  Biso   1.000  C
  C41      1.0000 0.74680  0.11060  0.30320  Biso   1.000  C
  C42      1.0000 0.95250  0.10780  0.42030  Biso   1.000  C
  C43      1.0000 0.02410  0.24010  0.57520  Biso   1.000  C
  C44      1.0000 0.87940  0.35490  0.57530  Biso   1.000  C
  C45      1.0000 0.92650  0.24030  0.69260  Biso   1.000  C
  C46      1.0000 0.63590  0.36350  0.42670  Biso   1.000  C
  C47      1.0000 0.57080  0.25130  0.30800  Biso   1.000  C
  C48      1.0000 0.47810  0.25630  0.42630  Biso   1.000  C
