data_image0
_cell_length_a       15.377
_cell_length_b       15.377
_cell_length_c       9.915
_cell_angle_alpha    90
_cell_angle_beta     90
_cell_angle_gamma    90

_symmetry_space_group_name_H-M    "P 1"
_symmetry_int_tables_number       1

loop_
  _symmetry_equiv_pos_as_xyz
  'x, y, z'

loop_
  _atom_site_label
  _atom_site_occupancy
  _atom_site_fract_x
  _atom_site_fract_y
  _atom_site_fract_z
  _atom_site_thermal_displace_type
  _atom_site_B_iso_or_equiv
  _atom_site_type_symbol
  O1       1.0000 0.03106  0.87113  0.12089  Biso   1.000  O
  C1       1.0000 0.88646  0.74406  0.87942  Biso   1.000  C
  H1       1.0000 0.91090  0.76240  0.79850  Biso   1.000  H
  C2       1.0000 0.81200  0.69346  0.87950  Biso   1.000  C
  H2       1.0000 0.78740  0.67630  0.79800  Biso   1.000  H
  O2       1.0000 0.96894  0.12887  0.12089  Biso   1.000  O
  C3       1.0000 0.11354  0.25594  0.87942  Biso   1.000  C
  H3       1.0000 0.08910  0.23760  0.79850  Biso   1.000  H
  C4       1.0000 0.18800  0.30654  0.87950  Biso   1.000  C
  H4       1.0000 0.21260  0.32370  0.79800  Biso   1.000  H
  O3       1.0000 0.12887  0.03106  0.12089  Biso   1.000  O
  C5       1.0000 0.25594  0.88646  0.87942  Biso   1.000  C
  H5       1.0000 0.23760  0.91090  0.79850  Biso   1.000  H
  C6       1.0000 0.30654  0.81200  0.87950  Biso   1.000  C
  H6       1.0000 0.32370  0.78740  0.79800  Biso   1.000  H
  O4       1.0000 0.87113  0.96894  0.12089  Biso   1.000  O
  C7       1.0000 0.74406  0.11354  0.87942  Biso   1.000  C
  H7       1.0000 0.76240  0.08910  0.79850  Biso   1.000  H
  C8       1.0000 0.69346  0.18800  0.87950  Biso   1.000  C
  H8       1.0000 0.67630  0.21260  0.79800  Biso   1.000  H
  O5       1.0000 0.96894  0.87113  0.37911  Biso   1.000  O
  C9       1.0000 0.11354  0.74406  0.62058  Biso   1.000  C
  H9       1.0000 0.08910  0.76240  0.70150  Biso   1.000  H
  C10      1.0000 0.18800  0.69346  0.62050  Biso   1.000  C
  H10      1.0000 0.21260  0.67630  0.70200  Biso   1.000  H
  O6       1.0000 0.03106  0.12887  0.37911  Biso   1.000  O
  C11      1.0000 0.88646  0.25594  0.62058  Biso   1.000  C
  H11      1.0000 0.91090  0.23760  0.70150  Biso   1.000  H
  C12      1.0000 0.81200  0.30654  0.62050  Biso   1.000  C
  H12      1.0000 0.78740  0.32370  0.70200  Biso   1.000  H
  O7       1.0000 0.87113  0.03106  0.37911  Biso   1.000  O
  C13      1.0000 0.74406  0.88646  0.62058  Biso   1.000  C
  H13      1.0000 0.76240  0.91090  0.70150  Biso   1.000  H
  C14      1.0000 0.69346  0.81200  0.62050  Biso   1.000  C
  H14      1.0000 0.67630  0.78740  0.70200  Biso   1.000  H
  O8       1.0000 0.12887  0.96894  0.37911  Biso   1.000  O
  C15      1.0000 0.25594  0.11354  0.62058  Biso   1.000  C
  H15      1.0000 0.23760  0.08910  0.70150  Biso   1.000  H
  C16      1.0000 0.30654  0.18800  0.62050  Biso   1.000  C
  H16      1.0000 0.32370  0.21260  0.70200  Biso   1.000  H
  O9       1.0000 0.96894  0.12887  0.87911  Biso   1.000  O
  C17      1.0000 0.11354  0.25594  0.12058  Biso   1.000  C
  H17      1.0000 0.08910  0.23760  0.20150  Biso   1.000  H
  C18      1.0000 0.18800  0.30654  0.12050  Biso   1.000  C
  H18      1.0000 0.21260  0.32370  0.20200  Biso   1.000  H
  O10      1.0000 0.03106  0.87113  0.87911  Biso   1.000  O
  C19      1.0000 0.88646  0.74406  0.12058  Biso   1.000  C
  H19      1.0000 0.91090  0.76240  0.20150  Biso   1.000  H
  C20      1.0000 0.81200  0.69346  0.12050  Biso   1.000  C
  H20      1.0000 0.78740  0.67630  0.20200  Biso   1.000  H
  O11      1.0000 0.87113  0.96894  0.87911  Biso   1.000  O
  C21      1.0000 0.74406  0.11354  0.12058  Biso   1.000  C
  H21      1.0000 0.76240  0.08910  0.20150  Biso   1.000  H
  C22      1.0000 0.69346  0.18800  0.12050  Biso   1.000  C
  H22      1.0000 0.67630  0.21260  0.20200  Biso   1.000  H
  O12      1.0000 0.12887  0.03106  0.87911  Biso   1.000  O
  C23      1.0000 0.25594  0.88646  0.12058  Biso   1.000  C
  H23      1.0000 0.23760  0.91090  0.20150  Biso   1.000  H
  C24      1.0000 0.30654  0.81200  0.12050  Biso   1.000  C
  H24      1.0000 0.32370  0.78740  0.20200  Biso   1.000  H
  O13      1.0000 0.03106  0.12887  0.62089  Biso   1.000  O
  C25      1.0000 0.88646  0.25594  0.37942  Biso   1.000  C
  H25      1.0000 0.91090  0.23760  0.29850  Biso   1.000  H
  C26      1.0000 0.81200  0.30654  0.37950  Biso   1.000  C
  H26      1.0000 0.78740  0.32370  0.29800  Biso   1.000  H
  O14      1.0000 0.96894  0.87113  0.62089  Biso   1.000  O
  C27      1.0000 0.11354  0.74406  0.37942  Biso   1.000  C
  H27      1.0000 0.08910  0.76240  0.29850  Biso   1.000  H
  C28      1.0000 0.18800  0.69346  0.37950  Biso   1.000  C
  H28      1.0000 0.21260  0.67630  0.29800  Biso   1.000  H
  O15      1.0000 0.12887  0.96894  0.62089  Biso   1.000  O
  C29      1.0000 0.25594  0.11354  0.37942  Biso   1.000  C
  H29      1.0000 0.23760  0.08910  0.29850  Biso   1.000  H
  C30      1.0000 0.30654  0.18800  0.37950  Biso   1.000  C
  H30      1.0000 0.32370  0.21260  0.29800  Biso   1.000  H
  O16      1.0000 0.87113  0.03106  0.62089  Biso   1.000  O
  C31      1.0000 0.74406  0.88646  0.37942  Biso   1.000  C
  H31      1.0000 0.76240  0.91090  0.29850  Biso   1.000  H
  C32      1.0000 0.69346  0.81200  0.37950  Biso   1.000  C
  H32      1.0000 0.67630  0.78740  0.29800  Biso   1.000  H
  Sm1      1.0000 0.00000  0.00000  0.25000  Biso   1.000  Sm
  Sm2      1.0000 0.00000  0.00000  0.75000  Biso   1.000  Sm
  S1       1.0000 0.02635  0.81898  0.00000  Biso   1.000  S
  N1       1.0000 0.53032  0.62897  0.00000  Biso   1.000  N
  O17      1.0000 0.08936  0.75032  0.00000  Biso   1.000  O
  C33      1.0000 0.92388  0.76685  0.00000  Biso   1.000  C
  C34      1.0000 0.77357  0.66802  0.00000  Biso   1.000  C
  C35      1.0000 0.68939  0.61760  0.00000  Biso   1.000  C
  C36      1.0000 0.61372  0.66597  0.00000  Biso   1.000  C
  C37      1.0000 0.60528  0.75694  0.00000  Biso   1.000  C
  H33      1.0000 0.65110  0.79640  0.00000  Biso   1.000  H
  C38      1.0000 0.52193  0.77765  0.00000  Biso   1.000  C
  H34      1.0000 0.49900  0.83360  0.00000  Biso   1.000  H
  C39      1.0000 0.47265  0.69739  0.00000  Biso   1.000  C
  S2       1.0000 0.97365  0.18102  0.00000  Biso   1.000  S
  N2       1.0000 0.46968  0.37103  0.00000  Biso   1.000  N
  O18      1.0000 0.91064  0.24968  0.00000  Biso   1.000  O
  C40      1.0000 0.07612  0.23315  0.00000  Biso   1.000  C
  C41      1.0000 0.22643  0.33198  0.00000  Biso   1.000  C
  C42      1.0000 0.31061  0.38240  0.00000  Biso   1.000  C
  C43      1.0000 0.38628  0.33403  0.00000  Biso   1.000  C
  C44      1.0000 0.39472  0.24306  0.00000  Biso   1.000  C
  H35      1.0000 0.34890  0.20360  0.00000  Biso   1.000  H
  C45      1.0000 0.47807  0.22235  0.00000  Biso   1.000  C
  H36      1.0000 0.50100  0.16640  0.00000  Biso   1.000  H
  C46      1.0000 0.52735  0.30261  0.00000  Biso   1.000  C
  S3       1.0000 0.18102  0.02635  0.00000  Biso   1.000  S
  N3       1.0000 0.37103  0.53032  0.00000  Biso   1.000  N
  O19      1.0000 0.24968  0.08936  0.00000  Biso   1.000  O
  C47      1.0000 0.23315  0.92388  0.00000  Biso   1.000  C
  C48      1.0000 0.33198  0.77357  0.00000  Biso   1.000  C
  C49      1.0000 0.38240  0.68939  0.00000  Biso   1.000  C
  C50      1.0000 0.33403  0.61372  0.00000  Biso   1.000  C
  C51      1.0000 0.24306  0.60528  0.00000  Biso   1.000  C
  H37      1.0000 0.20360  0.65110  0.00000  Biso   1.000  H
  C52      1.0000 0.22235  0.52193  0.00000  Biso   1.000  C
  H38      1.0000 0.16640  0.49900  0.00000  Biso   1.000  H
  C53      1.0000 0.30261  0.47265  0.00000  Biso   1.000  C
  S4       1.0000 0.81898  0.97365  0.00000  Biso   1.000  S
  N4       1.0000 0.62897  0.46968  0.00000  Biso   1.000  N
  O20      1.0000 0.75032  0.91064  0.00000  Biso   1.000  O
  C54      1.0000 0.76685  0.07612  0.00000  Biso   1.000  C
  C55      1.0000 0.66802  0.22643  0.00000  Biso   1.000  C
  C56      1.0000 0.61760  0.31061  0.00000  Biso   1.000  C
  C57      1.0000 0.66597  0.38628  0.00000  Biso   1.000  C
  C58      1.0000 0.75694  0.39472  0.00000  Biso   1.000  C
  H39      1.0000 0.79640  0.34890  0.00000  Biso   1.000  H
  C59      1.0000 0.77765  0.47807  0.00000  Biso   1.000  C
  H40      1.0000 0.83360  0.50100  0.00000  Biso   1.000  H
  C60      1.0000 0.69739  0.52735  0.00000  Biso   1.000  C
  S5       1.0000 0.97365  0.81898  0.50000  Biso   1.000  S
  N5       1.0000 0.46968  0.62897  0.50000  Biso   1.000  N
  O21      1.0000 0.91064  0.75032  0.50000  Biso   1.000  O
  C61      1.0000 0.07612  0.76685  0.50000  Biso   1.000  C
  C62      1.0000 0.22643  0.66802  0.50000  Biso   1.000  C
  C63      1.0000 0.31061  0.61760  0.50000  Biso   1.000  C
  C64      1.0000 0.38628  0.66597  0.50000  Biso   1.000  C
  C65      1.0000 0.39472  0.75694  0.50000  Biso   1.000  C
  H41      1.0000 0.34890  0.79640  0.50000  Biso   1.000  H
  C66      1.0000 0.47807  0.77765  0.50000  Biso   1.000  C
  H42      1.0000 0.50100  0.83360  0.50000  Biso   1.000  H
  C67      1.0000 0.52735  0.69739  0.50000  Biso   1.000  C
  S6       1.0000 0.02635  0.18102  0.50000  Biso   1.000  S
  N6       1.0000 0.53032  0.37103  0.50000  Biso   1.000  N
  O22      1.0000 0.08936  0.24968  0.50000  Biso   1.000  O
  C68      1.0000 0.92388  0.23315  0.50000  Biso   1.000  C
  C69      1.0000 0.77357  0.33198  0.50000  Biso   1.000  C
  C70      1.0000 0.68939  0.38240  0.50000  Biso   1.000  C
  C71      1.0000 0.61372  0.33403  0.50000  Biso   1.000  C
  C72      1.0000 0.60528  0.24306  0.50000  Biso   1.000  C
  H43      1.0000 0.65110  0.20360  0.50000  Biso   1.000  H
  C73      1.0000 0.52193  0.22235  0.50000  Biso   1.000  C
  H44      1.0000 0.49900  0.16640  0.50000  Biso   1.000  H
  C74      1.0000 0.47265  0.30261  0.50000  Biso   1.000  C
  S7       1.0000 0.81898  0.02635  0.50000  Biso   1.000  S
  N7       1.0000 0.62897  0.53032  0.50000  Biso   1.000  N
  O23      1.0000 0.75032  0.08936  0.50000  Biso   1.000  O
  C75      1.0000 0.76685  0.92388  0.50000  Biso   1.000  C
  C76      1.0000 0.66802  0.77357  0.50000  Biso   1.000  C
  C77      1.0000 0.61760  0.68939  0.50000  Biso   1.000  C
  C78      1.0000 0.66597  0.61372  0.50000  Biso   1.000  C
  C79      1.0000 0.75694  0.60528  0.50000  Biso   1.000  C
  H45      1.0000 0.79640  0.65110  0.50000  Biso   1.000  H
  C80      1.0000 0.77765  0.52193  0.50000  Biso   1.000  C
  H46      1.0000 0.83360  0.49900  0.50000  Biso   1.000  H
  C81      1.0000 0.69739  0.47265  0.50000  Biso   1.000  C
  S8       1.0000 0.18102  0.97365  0.50000  Biso   1.000  S
  N8       1.0000 0.37103  0.46968  0.50000  Biso   1.000  N
  O24      1.0000 0.24968  0.91064  0.50000  Biso   1.000  O
  C82      1.0000 0.23315  0.07612  0.50000  Biso   1.000  C
  C83      1.0000 0.33198  0.22643  0.50000  Biso   1.000  C
  C84      1.0000 0.38240  0.31061  0.50000  Biso   1.000  C
  C85      1.0000 0.33403  0.38628  0.50000  Biso   1.000  C
  C86      1.0000 0.24306  0.39472  0.50000  Biso   1.000  C
  H47      1.0000 0.20360  0.34890  0.50000  Biso   1.000  H
  C87      1.0000 0.22235  0.47807  0.50000  Biso   1.000  C
  H48      1.0000 0.16640  0.50100  0.50000  Biso   1.000  H
  C88      1.0000 0.30261  0.52735  0.50000  Biso   1.000  C
