data_image0
_cell_length_a       15.44
_cell_length_b       15.44
_cell_length_c       10.021
_cell_angle_alpha    90
_cell_angle_beta     90
_cell_angle_gamma    90

_symmetry_space_group_name_H-M    "P 1"
_symmetry_int_tables_number       1

loop_
  _symmetry_equiv_pos_as_xyz
  'x, y, z'

loop_
  _atom_site_label
  _atom_site_occupancy
  _atom_site_fract_x
  _atom_site_fract_y
  _atom_site_fract_z
  _atom_site_thermal_displace_type
  _atom_site_B_iso_or_equiv
  _atom_site_type_symbol
  O1       1.0000 0.53163  0.63300  0.11790  Biso   1.000  O
  C1       1.0000 0.38640  0.75820  0.88100  Biso   1.000  C
  H1       1.0000 0.41140  0.74160  0.80040  Biso   1.000  H
  C2       1.0000 0.31010  0.80630  0.88310  Biso   1.000  C
  H2       1.0000 0.28460  0.82200  0.80260  Biso   1.000  H
  O2       1.0000 0.46837  0.36700  0.11790  Biso   1.000  O
  C3       1.0000 0.61360  0.24180  0.88100  Biso   1.000  C
  H3       1.0000 0.58860  0.25840  0.80040  Biso   1.000  H
  C4       1.0000 0.68990  0.19370  0.88310  Biso   1.000  C
  H4       1.0000 0.71540  0.17800  0.80260  Biso   1.000  H
  O3       1.0000 0.36700  0.53163  0.11790  Biso   1.000  O
  C5       1.0000 0.24180  0.38640  0.88100  Biso   1.000  C
  H5       1.0000 0.25840  0.41140  0.80040  Biso   1.000  H
  C6       1.0000 0.19370  0.31010  0.88310  Biso   1.000  C
  H6       1.0000 0.17800  0.28460  0.80260  Biso   1.000  H
  O4       1.0000 0.63300  0.46837  0.11790  Biso   1.000  O
  C7       1.0000 0.75820  0.61360  0.88100  Biso   1.000  C
  H7       1.0000 0.74160  0.58860  0.80040  Biso   1.000  H
  C8       1.0000 0.80630  0.68990  0.88310  Biso   1.000  C
  H8       1.0000 0.82200  0.71540  0.80260  Biso   1.000  H
  O5       1.0000 0.46837  0.63300  0.38210  Biso   1.000  O
  C9       1.0000 0.61360  0.75820  0.61900  Biso   1.000  C
  H9       1.0000 0.58860  0.74160  0.69960  Biso   1.000  H
  C10      1.0000 0.68990  0.80630  0.61690  Biso   1.000  C
  H10      1.0000 0.71540  0.82200  0.69740  Biso   1.000  H
  O6       1.0000 0.53163  0.36700  0.38210  Biso   1.000  O
  C11      1.0000 0.38640  0.24180  0.61900  Biso   1.000  C
  H11      1.0000 0.41140  0.25840  0.69960  Biso   1.000  H
  C12      1.0000 0.31010  0.19370  0.61690  Biso   1.000  C
  H12      1.0000 0.28460  0.17800  0.69740  Biso   1.000  H
  O7       1.0000 0.63300  0.53163  0.38210  Biso   1.000  O
  C13      1.0000 0.75820  0.38640  0.61900  Biso   1.000  C
  H13      1.0000 0.74160  0.41140  0.69960  Biso   1.000  H
  C14      1.0000 0.80630  0.31010  0.61690  Biso   1.000  C
  H14      1.0000 0.82200  0.28460  0.69740  Biso   1.000  H
  O8       1.0000 0.36700  0.46837  0.38210  Biso   1.000  O
  C15      1.0000 0.24180  0.61360  0.61900  Biso   1.000  C
  H15      1.0000 0.25840  0.58860  0.69960  Biso   1.000  H
  C16      1.0000 0.19370  0.68990  0.61690  Biso   1.000  C
  H16      1.0000 0.17800  0.71540  0.69740  Biso   1.000  H
  O9       1.0000 0.46837  0.36700  0.88210  Biso   1.000  O
  C17      1.0000 0.61360  0.24180  0.11900  Biso   1.000  C
  H17      1.0000 0.58860  0.25840  0.19960  Biso   1.000  H
  C18      1.0000 0.68990  0.19370  0.11690  Biso   1.000  C
  H18      1.0000 0.71540  0.17800  0.19740  Biso   1.000  H
  O10      1.0000 0.53163  0.63300  0.88210  Biso   1.000  O
  C19      1.0000 0.38640  0.75820  0.11900  Biso   1.000  C
  H19      1.0000 0.41140  0.74160  0.19960  Biso   1.000  H
  C20      1.0000 0.31010  0.80630  0.11690  Biso   1.000  C
  H20      1.0000 0.28460  0.82200  0.19740  Biso   1.000  H
  O11      1.0000 0.63300  0.46837  0.88210  Biso   1.000  O
  C21      1.0000 0.75820  0.61360  0.11900  Biso   1.000  C
  H21      1.0000 0.74160  0.58860  0.19960  Biso   1.000  H
  C22      1.0000 0.80630  0.68990  0.11690  Biso   1.000  C
  H22      1.0000 0.82200  0.71540  0.19740  Biso   1.000  H
  O12      1.0000 0.36700  0.53163  0.88210  Biso   1.000  O
  C23      1.0000 0.24180  0.38640  0.11900  Biso   1.000  C
  H23      1.0000 0.25840  0.41140  0.19960  Biso   1.000  H
  C24      1.0000 0.19370  0.31010  0.11690  Biso   1.000  C
  H24      1.0000 0.17800  0.28460  0.19740  Biso   1.000  H
  O13      1.0000 0.53163  0.36700  0.61790  Biso   1.000  O
  C25      1.0000 0.38640  0.24180  0.38100  Biso   1.000  C
  H25      1.0000 0.41140  0.25840  0.30040  Biso   1.000  H
  C26      1.0000 0.31010  0.19370  0.38310  Biso   1.000  C
  H26      1.0000 0.28460  0.17800  0.30260  Biso   1.000  H
  O14      1.0000 0.46837  0.63300  0.61790  Biso   1.000  O
  C27      1.0000 0.61360  0.75820  0.38100  Biso   1.000  C
  H27      1.0000 0.58860  0.74160  0.30040  Biso   1.000  H
  C28      1.0000 0.68990  0.80630  0.38310  Biso   1.000  C
  H28      1.0000 0.71540  0.82200  0.30260  Biso   1.000  H
  O15      1.0000 0.36700  0.46837  0.61790  Biso   1.000  O
  C29      1.0000 0.24180  0.61360  0.38100  Biso   1.000  C
  H29      1.0000 0.25840  0.58860  0.30040  Biso   1.000  H
  C30      1.0000 0.19370  0.68990  0.38310  Biso   1.000  C
  H30      1.0000 0.17800  0.71540  0.30260  Biso   1.000  H
  O16      1.0000 0.63300  0.53163  0.61790  Biso   1.000  O
  C31      1.0000 0.75820  0.38640  0.38100  Biso   1.000  C
  H31      1.0000 0.74160  0.41140  0.30040  Biso   1.000  H
  C32      1.0000 0.80630  0.31010  0.38310  Biso   1.000  C
  H32      1.0000 0.82200  0.28460  0.30260  Biso   1.000  H
  La1      1.0000 0.50000  0.50000  0.25000  Biso   1.000  La
  La2      1.0000 0.50000  0.50000  0.75000  Biso   1.000  La
  S1       1.0000 0.52633  0.68505  0.00000  Biso   1.000  S
  N1       1.0000 0.12900  0.03050  0.00000  Biso   1.000  N
  O17      1.0000 0.58815  0.75351  0.00000  Biso   1.000  O
  C33      1.0000 0.42410  0.73590  0.00000  Biso   1.000  C
  C34      1.0000 0.27120  0.83110  0.00000  Biso   1.000  C
  C35      1.0000 0.18980  0.88190  0.00000  Biso   1.000  C
  C36      1.0000 0.19730  0.97190  0.00000  Biso   1.000  C
  C37      1.0000 0.27570  0.02030  0.00000  Biso   1.000  C
  H33      1.0000 0.33130  0.99710  0.00000  Biso   1.000  H
  C38      1.0000 0.25620  0.10490  0.00000  Biso   1.000  C
  H34      1.0000 0.29570  0.15040  0.00000  Biso   1.000  H
  C39      1.0000 0.16520  0.11260  0.00000  Biso   1.000  C
  S2       1.0000 0.47367  0.31495  0.00000  Biso   1.000  S
  N2       1.0000 0.87100  0.96950  0.00000  Biso   1.000  N
  O18      1.0000 0.41185  0.24649  0.00000  Biso   1.000  O
  C40      1.0000 0.57590  0.26410  0.00000  Biso   1.000  C
  C41      1.0000 0.72880  0.16890  0.00000  Biso   1.000  C
  C42      1.0000 0.81020  0.11810  0.00000  Biso   1.000  C
  C43      1.0000 0.80270  0.02810  0.00000  Biso   1.000  C
  C44      1.0000 0.72430  0.97970  0.00000  Biso   1.000  C
  H35      1.0000 0.66870  0.00290  0.00000  Biso   1.000  H
  C45      1.0000 0.74380  0.89510  0.00000  Biso   1.000  C
  H36      1.0000 0.70430  0.84960  0.00000  Biso   1.000  H
  C46      1.0000 0.83480  0.88740  0.00000  Biso   1.000  C
  S3       1.0000 0.31495  0.52633  0.00000  Biso   1.000  S
  N3       1.0000 0.96950  0.12900  0.00000  Biso   1.000  N
  O19      1.0000 0.24649  0.58815  0.00000  Biso   1.000  O
  C47      1.0000 0.26410  0.42410  0.00000  Biso   1.000  C
  C48      1.0000 0.16890  0.27120  0.00000  Biso   1.000  C
  C49      1.0000 0.11810  0.18980  0.00000  Biso   1.000  C
  C50      1.0000 0.02810  0.19730  0.00000  Biso   1.000  C
  C51      1.0000 0.97970  0.27570  0.00000  Biso   1.000  C
  H37      1.0000 0.00290  0.33130  0.00000  Biso   1.000  H
  C52      1.0000 0.89510  0.25620  0.00000  Biso   1.000  C
  H38      1.0000 0.84960  0.29570  0.00000  Biso   1.000  H
  C53      1.0000 0.88740  0.16520  0.00000  Biso   1.000  C
  S4       1.0000 0.68505  0.47367  0.00000  Biso   1.000  S
  N4       1.0000 0.03050  0.87100  0.00000  Biso   1.000  N
  O20      1.0000 0.75351  0.41185  0.00000  Biso   1.000  O
  C54      1.0000 0.73590  0.57590  0.00000  Biso   1.000  C
  C55      1.0000 0.83110  0.72880  0.00000  Biso   1.000  C
  C56      1.0000 0.88190  0.81020  0.00000  Biso   1.000  C
  C57      1.0000 0.97190  0.80270  0.00000  Biso   1.000  C
  C58      1.0000 0.02030  0.72430  0.00000  Biso   1.000  C
  H39      1.0000 0.99710  0.66870  0.00000  Biso   1.000  H
  C59      1.0000 0.10490  0.74380  0.00000  Biso   1.000  C
  H40      1.0000 0.15040  0.70430  0.00000  Biso   1.000  H
  C60      1.0000 0.11260  0.83480  0.00000  Biso   1.000  C
  S5       1.0000 0.47367  0.68505  0.50000  Biso   1.000  S
  N5       1.0000 0.87100  0.03050  0.50000  Biso   1.000  N
  O21      1.0000 0.41185  0.75351  0.50000  Biso   1.000  O
  C61      1.0000 0.57590  0.73590  0.50000  Biso   1.000  C
  C62      1.0000 0.72880  0.83110  0.50000  Biso   1.000  C
  C63      1.0000 0.81020  0.88190  0.50000  Biso   1.000  C
  C64      1.0000 0.80270  0.97190  0.50000  Biso   1.000  C
  C65      1.0000 0.72430  0.02030  0.50000  Biso   1.000  C
  H41      1.0000 0.66870  0.99710  0.50000  Biso   1.000  H
  C66      1.0000 0.74380  0.10490  0.50000  Biso   1.000  C
  H42      1.0000 0.70430  0.15040  0.50000  Biso   1.000  H
  C67      1.0000 0.83480  0.11260  0.50000  Biso   1.000  C
  S6       1.0000 0.52633  0.31495  0.50000  Biso   1.000  S
  N6       1.0000 0.12900  0.96950  0.50000  Biso   1.000  N
  O22      1.0000 0.58815  0.24649  0.50000  Biso   1.000  O
  C68      1.0000 0.42410  0.26410  0.50000  Biso   1.000  C
  C69      1.0000 0.27120  0.16890  0.50000  Biso   1.000  C
  C70      1.0000 0.18980  0.11810  0.50000  Biso   1.000  C
  C71      1.0000 0.19730  0.02810  0.50000  Biso   1.000  C
  C72      1.0000 0.27570  0.97970  0.50000  Biso   1.000  C
  H43      1.0000 0.33130  0.00290  0.50000  Biso   1.000  H
  C73      1.0000 0.25620  0.89510  0.50000  Biso   1.000  C
  H44      1.0000 0.29570  0.84960  0.50000  Biso   1.000  H
  C74      1.0000 0.16520  0.88740  0.50000  Biso   1.000  C
  S7       1.0000 0.68505  0.52633  0.50000  Biso   1.000  S
  N7       1.0000 0.03050  0.12900  0.50000  Biso   1.000  N
  O23      1.0000 0.75351  0.58815  0.50000  Biso   1.000  O
  C75      1.0000 0.73590  0.42410  0.50000  Biso   1.000  C
  C76      1.0000 0.83110  0.27120  0.50000  Biso   1.000  C
  C77      1.0000 0.88190  0.18980  0.50000  Biso   1.000  C
  C78      1.0000 0.97190  0.19730  0.50000  Biso   1.000  C
  C79      1.0000 0.02030  0.27570  0.50000  Biso   1.000  C
  H45      1.0000 0.99710  0.33130  0.50000  Biso   1.000  H
  C80      1.0000 0.10490  0.25620  0.50000  Biso   1.000  C
  H46      1.0000 0.15040  0.29570  0.50000  Biso   1.000  H
  C81      1.0000 0.11260  0.16520  0.50000  Biso   1.000  C
  S8       1.0000 0.31495  0.47367  0.50000  Biso   1.000  S
  N8       1.0000 0.96950  0.87100  0.50000  Biso   1.000  N
  O24      1.0000 0.24649  0.41185  0.50000  Biso   1.000  O
  C82      1.0000 0.26410  0.57590  0.50000  Biso   1.000  C
  C83      1.0000 0.16890  0.72880  0.50000  Biso   1.000  C
  C84      1.0000 0.11810  0.81020  0.50000  Biso   1.000  C
  C85      1.0000 0.02810  0.80270  0.50000  Biso   1.000  C
  C86      1.0000 0.97970  0.72430  0.50000  Biso   1.000  C
  H47      1.0000 0.00290  0.66870  0.50000  Biso   1.000  H
  C87      1.0000 0.89510  0.74380  0.50000  Biso   1.000  C
  H48      1.0000 0.84960  0.70430  0.50000  Biso   1.000  H
  C88      1.0000 0.88740  0.83480  0.50000  Biso   1.000  C
