data_image0
_cell_length_a       7.4054
_cell_length_b       18.811
_cell_length_c       12.006
_cell_angle_alpha    90
_cell_angle_beta     97.06
_cell_angle_gamma    90

_symmetry_space_group_name_H-M    "P 1"
_symmetry_int_tables_number       1

loop_
  _symmetry_equiv_pos_as_xyz
  'x, y, z'

loop_
  _atom_site_label
  _atom_site_occupancy
  _atom_site_fract_x
  _atom_site_fract_y
  _atom_site_fract_z
  _atom_site_thermal_displace_type
  _atom_site_B_iso_or_equiv
  _atom_site_type_symbol
  C1       1.0000 0.03140  0.17640  0.32610  Biso   1.000  C
  C2       1.0000 0.95970  0.23890  0.25690  Biso   1.000  C
  C3       1.0000 0.77730  0.25720  0.25260  Biso   1.000  C
  H1       1.0000 0.70200  0.23150  0.29430  Biso   1.000  H
  C4       1.0000 0.70820  0.31220  0.18820  Biso   1.000  C
  H2       1.0000 0.58530  0.32300  0.18610  Biso   1.000  H
  C5       1.0000 0.81640  0.35370  0.12400  Biso   1.000  C
  C6       1.0000 0.00000  0.33540  0.12690  Biso   1.000  C
  C7       1.0000 0.06930  0.27780  0.19500  Biso   1.000  C
  H3       1.0000 0.19180  0.26600  0.19800  Biso   1.000  H
  C8       1.0000 0.12430  0.37480  0.06140  Biso   1.000  C
  Cu1      1.0000 0.93761  0.07552  0.49378  Biso   1.000  Cu
  Cu2      1.0000 0.31740  0.05901  0.43150  Biso   1.000  Cu
  O1       1.0000 0.91110  0.14550  0.37690  Biso   1.000  O
  O2       1.0000 0.19510  0.15894  0.33100  Biso   1.000  O
  O3       1.0000 0.29490  0.36657  0.08770  Biso   1.000  O
  O4       1.0000 0.06650  0.41676  0.98170  Biso   1.000  O
  O5       1.0000 0.91970  0.99160  0.58980  Biso   1.000  O
  O6       1.0000 0.73690  0.40738  0.06670  Biso   1.000  O
  C9       1.0000 0.46860  0.67640  0.17390  Biso   1.000  C
  C10      1.0000 0.54030  0.73890  0.24310  Biso   1.000  C
  C11      1.0000 0.72270  0.75720  0.24740  Biso   1.000  C
  H4       1.0000 0.79800  0.73150  0.20570  Biso   1.000  H
  C12      1.0000 0.79180  0.81220  0.31180  Biso   1.000  C
  H5       1.0000 0.91470  0.82300  0.31390  Biso   1.000  H
  C13      1.0000 0.68360  0.85370  0.37600  Biso   1.000  C
  C14      1.0000 0.50000  0.83540  0.37310  Biso   1.000  C
  C15      1.0000 0.43070  0.77780  0.30500  Biso   1.000  C
  H6       1.0000 0.30820  0.76600  0.30200  Biso   1.000  H
  C16      1.0000 0.37570  0.87480  0.43860  Biso   1.000  C
  Cu3      1.0000 0.56239  0.57552  0.00622  Biso   1.000  Cu
  Cu4      1.0000 0.18260  0.55901  0.06850  Biso   1.000  Cu
  O7       1.0000 0.58890  0.64550  0.12310  Biso   1.000  O
  O8       1.0000 0.30490  0.65894  0.16900  Biso   1.000  O
  O9       1.0000 0.20510  0.86657  0.41230  Biso   1.000  O
  O10      1.0000 0.43350  0.91676  0.51830  Biso   1.000  O
  O11      1.0000 0.58030  0.49160  0.91020  Biso   1.000  O
  O12      1.0000 0.76310  0.90738  0.43330  Biso   1.000  O
  C17      1.0000 0.96860  0.82360  0.67390  Biso   1.000  C
  C18      1.0000 0.04030  0.76110  0.74310  Biso   1.000  C
  C19      1.0000 0.22270  0.74280  0.74740  Biso   1.000  C
  H7       1.0000 0.29800  0.76850  0.70570  Biso   1.000  H
  C20      1.0000 0.29180  0.68780  0.81180  Biso   1.000  C
  H8       1.0000 0.41470  0.67700  0.81390  Biso   1.000  H
  C21      1.0000 0.18360  0.64630  0.87600  Biso   1.000  C
  C22      1.0000 0.00000  0.66460  0.87310  Biso   1.000  C
  C23      1.0000 0.93070  0.72220  0.80500  Biso   1.000  C
  H9       1.0000 0.80820  0.73400  0.80200  Biso   1.000  H
  C24      1.0000 0.87570  0.62520  0.93860  Biso   1.000  C
  Cu5      1.0000 0.06239  0.92448  0.50622  Biso   1.000  Cu
  Cu6      1.0000 0.68260  0.94099  0.56850  Biso   1.000  Cu
  O13      1.0000 0.08890  0.85450  0.62310  Biso   1.000  O
  O14      1.0000 0.80490  0.84106  0.66900  Biso   1.000  O
  O15      1.0000 0.70510  0.63343  0.91230  Biso   1.000  O
  O16      1.0000 0.93350  0.58324  0.01830  Biso   1.000  O
  O17      1.0000 0.08030  0.00840  0.41020  Biso   1.000  O
  O18      1.0000 0.26310  0.59262  0.93330  Biso   1.000  O
  C25      1.0000 0.53140  0.32360  0.82610  Biso   1.000  C
  C26      1.0000 0.45970  0.26110  0.75690  Biso   1.000  C
  C27      1.0000 0.27730  0.24280  0.75260  Biso   1.000  C
  H10      1.0000 0.20200  0.26850  0.79430  Biso   1.000  H
  C28      1.0000 0.20820  0.18780  0.68820  Biso   1.000  C
  H11      1.0000 0.08530  0.17700  0.68610  Biso   1.000  H
  C29      1.0000 0.31640  0.14630  0.62400  Biso   1.000  C
  C30      1.0000 0.50000  0.16460  0.62690  Biso   1.000  C
  C31      1.0000 0.56930  0.22220  0.69500  Biso   1.000  C
  H12      1.0000 0.69180  0.23400  0.69800  Biso   1.000  H
  C32      1.0000 0.62430  0.12520  0.56140  Biso   1.000  C
  Cu7      1.0000 0.43761  0.42448  0.99378  Biso   1.000  Cu
  Cu8      1.0000 0.81740  0.44099  0.93150  Biso   1.000  Cu
  O19      1.0000 0.41110  0.35450  0.87690  Biso   1.000  O
  O20      1.0000 0.69510  0.34106  0.83100  Biso   1.000  O
  O21      1.0000 0.79490  0.13343  0.58770  Biso   1.000  O
  O22      1.0000 0.56650  0.08324  0.48170  Biso   1.000  O
  O23      1.0000 0.41970  0.50840  0.08980  Biso   1.000  O
  O24      1.0000 0.23690  0.09262  0.56670  Biso   1.000  O
