data_FATKAO_clean
_audit_creation_date              2014-07-02
_audit_creation_method            'Materials Studio'
_symmetry_space_group_name_H-M    'P1'
_symmetry_Int_Tables_number       1
_symmetry_cell_setting            triclinic
loop_
_symmetry_equiv_pos_as_xyz
  x,y,z
_cell_length_a                    10.1900
_cell_length_b                    11.2320
_cell_length_c                    22.1400
_cell_angle_alpha                 90.0000
_cell_angle_beta                  96.8630
_cell_angle_gamma                 90.0000
loop_
_atom_site_label
_atom_site_type_symbol
_atom_site_fract_x
_atom_site_fract_y
_atom_site_fract_z
_atom_site_U_iso_or_equiv
_atom_site_adp_type
_atom_site_occupancy
Gd1    Gd    0.38895   0.68617   0.27453   0.01267  Uiso   1.00
Gd2    Gd    0.74112   0.41173   0.43609   0.01267  Uiso   1.00
Gd3    Gd    0.11105   0.18617   0.22547   0.01267  Uiso   1.00
Gd4    Gd    0.75888   0.91173   0.06391   0.01267  Uiso   1.00
Gd5    Gd    0.61105   0.31383   0.72547   0.01267  Uiso   1.00
Gd6    Gd    0.25888   0.58827   0.56391   0.01267  Uiso   1.00
Gd7    Gd    0.88895   0.81383   0.77453   0.01267  Uiso   1.00
Gd8    Gd    0.24112   0.08827   0.93609   0.01267  Uiso   1.00
H1     H     0.75010   0.38970   0.07430   0.01267  Uiso   1.00
H2     H     0.90310   0.36920   0.08720   0.01267  Uiso   1.00
H3     H     0.80590   0.26120   0.08790   0.01267  Uiso   1.00
H4     H     0.04020   0.66870   0.20380   0.01267  Uiso   1.00
H5     H     0.93010   0.58070   0.21970   0.01267  Uiso   1.00
H6     H     0.91090   0.71840   0.22640   0.01267  Uiso   1.00
H7     H     0.66200   0.47050   0.16480   0.01267  Uiso   1.00
H8     H     0.88200   0.61800   0.33860   0.01267  Uiso   1.00
H9     H     0.74990   0.88970   0.42570   0.01267  Uiso   1.00
H10    H     0.59690   0.86920   0.41280   0.01267  Uiso   1.00
H11    H     0.69410   0.76120   0.41210   0.01267  Uiso   1.00
H12    H     0.45980   0.16870   0.29620   0.01267  Uiso   1.00
H13    H     0.56990   0.08070   0.28030   0.01267  Uiso   1.00
H14    H     0.58910   0.21840   0.27360   0.01267  Uiso   1.00
H15    H     0.83800   0.97050   0.33520   0.01267  Uiso   1.00
H16    H     0.61800   0.11800   0.16140   0.01267  Uiso   1.00
H17    H     0.24990   0.61030   0.92570   0.01267  Uiso   1.00
H18    H     0.09690   0.63080   0.91280   0.01267  Uiso   1.00
H19    H     0.19410   0.73880   0.91210   0.01267  Uiso   1.00
H20    H     0.95980   0.33130   0.79620   0.01267  Uiso   1.00
H21    H     0.06990   0.41930   0.78030   0.01267  Uiso   1.00
H22    H     0.08910   0.28160   0.77360   0.01267  Uiso   1.00
H23    H     0.33800   0.52950   0.83520   0.01267  Uiso   1.00
H24    H     0.11800   0.38200   0.66140   0.01267  Uiso   1.00
H25    H     0.25010   0.11030   0.57430   0.01267  Uiso   1.00
H26    H     0.40310   0.13080   0.58720   0.01267  Uiso   1.00
H27    H     0.30590   0.23880   0.58790   0.01267  Uiso   1.00
H28    H     0.54020   0.83130   0.70380   0.01267  Uiso   1.00
H29    H     0.43010   0.91930   0.71970   0.01267  Uiso   1.00
H30    H     0.41090   0.78160   0.72640   0.01267  Uiso   1.00
H31    H     0.16200   0.02950   0.66480   0.01267  Uiso   1.00
H32    H     0.38200   0.88200   0.83860   0.01267  Uiso   1.00
C1     C     0.92110   0.31130   0.32060   0.01267  Uiso   1.00
C2     C     0.84940   0.35400   0.26250   0.01267  Uiso   1.00
C3     C     0.74270   0.42710   0.24850   0.01267  Uiso   1.00
C4     C     0.65940   0.50480   0.28370   0.01267  Uiso   1.00
C5     C     0.81210   0.36330   0.16440   0.01267  Uiso   1.00
C6     C     0.81840   0.34410   0.09740   0.01267  Uiso   1.00
C7     C     0.30780   0.65280   0.41240   0.01267  Uiso   1.00
C8     C     0.17430   0.64960   0.37620   0.01267  Uiso   1.00
C9     C     0.05060   0.62870   0.39430   0.01267  Uiso   1.00
C10    C     0.99440   0.61490   0.45260   0.01267  Uiso   1.00
C11    C     0.03750   0.64870   0.29390   0.01267  Uiso   1.00
C12    C     0.97410   0.65460   0.23040   0.01267  Uiso   1.00
C13    C     0.29590   0.40760   0.27850   0.01267  Uiso   1.00
C14    C     0.23670   0.45330   0.21500   0.01267  Uiso   1.00
C15    C     0.57890   0.81130   0.17940   0.01267  Uiso   1.00
C16    C     0.65060   0.85400   0.23750   0.01267  Uiso   1.00
C17    C     0.75730   0.92710   0.25150   0.01267  Uiso   1.00
C18    C     0.84060   0.00480   0.21630   0.01267  Uiso   1.00
C19    C     0.68790   0.86330   0.33560   0.01267  Uiso   1.00
C20    C     0.68160   0.84410   0.40260   0.01267  Uiso   1.00
C21    C     0.19220   0.15280   0.08760   0.01267  Uiso   1.00
C22    C     0.32570   0.14960   0.12380   0.01267  Uiso   1.00
C23    C     0.44940   0.12870   0.10570   0.01267  Uiso   1.00
C24    C     0.50560   0.11490   0.04740   0.01267  Uiso   1.00
C25    C     0.46250   0.14870   0.20610   0.01267  Uiso   1.00
C26    C     0.52590   0.15460   0.26960   0.01267  Uiso   1.00
C27    C     0.20410   0.90760   0.22150   0.01267  Uiso   1.00
C28    C     0.26330   0.95330   0.28500   0.01267  Uiso   1.00
C29    C     0.07890   0.68870   0.67940   0.01267  Uiso   1.00
C30    C     0.15060   0.64600   0.73750   0.01267  Uiso   1.00
C31    C     0.25730   0.57290   0.75150   0.01267  Uiso   1.00
C32    C     0.34060   0.49520   0.71630   0.01267  Uiso   1.00
C33    C     0.18790   0.63670   0.83560   0.01267  Uiso   1.00
C34    C     0.18160   0.65590   0.90260   0.01267  Uiso   1.00
C35    C     0.69220   0.34720   0.58760   0.01267  Uiso   1.00
C36    C     0.82570   0.35040   0.62380   0.01267  Uiso   1.00
C37    C     0.94940   0.37130   0.60570   0.01267  Uiso   1.00
C38    C     0.00560   0.38510   0.54740   0.01267  Uiso   1.00
C39    C     0.96250   0.35130   0.70610   0.01267  Uiso   1.00
C40    C     0.02590   0.34540   0.76960   0.01267  Uiso   1.00
C41    C     0.70410   0.59240   0.72150   0.01267  Uiso   1.00
C42    C     0.76330   0.54670   0.78500   0.01267  Uiso   1.00
C43    C     0.42110   0.18870   0.82060   0.01267  Uiso   1.00
C44    C     0.34940   0.14600   0.76250   0.01267  Uiso   1.00
C45    C     0.24270   0.07290   0.74850   0.01267  Uiso   1.00
C46    C     0.15940   0.99520   0.78370   0.01267  Uiso   1.00
C47    C     0.31210   0.13670   0.66440   0.01267  Uiso   1.00
C48    C     0.31840   0.15590   0.59740   0.01267  Uiso   1.00
C49    C     0.80780   0.84720   0.91240   0.01267  Uiso   1.00
C50    C     0.67430   0.85040   0.87620   0.01267  Uiso   1.00
C51    C     0.55060   0.87130   0.89430   0.01267  Uiso   1.00
C52    C     0.49440   0.88510   0.95260   0.01267  Uiso   1.00
C53    C     0.53750   0.85130   0.79390   0.01267  Uiso   1.00
C54    C     0.47410   0.84540   0.73040   0.01267  Uiso   1.00
C55    C     0.79590   0.09240   0.77850   0.01267  Uiso   1.00
C56    C     0.73670   0.04670   0.71500   0.01267  Uiso   1.00
N1     N     0.89480   0.31240   0.20840   0.01267  Uiso   1.00
N2     N     0.72290   0.43070   0.18620   0.01267  Uiso   1.00
N3     N     0.16460   0.65990   0.31400   0.01267  Uiso   1.00
N4     N     0.96600   0.62870   0.34150   0.01267  Uiso   1.00
N5     N     0.60520   0.81240   0.29160   0.01267  Uiso   1.00
N6     N     0.77710   0.93070   0.31380   0.01267  Uiso   1.00
N7     N     0.33540   0.15990   0.18600   0.01267  Uiso   1.00
N8     N     0.53400   0.12870   0.15850   0.01267  Uiso   1.00
N9     N     0.10520   0.68760   0.79160   0.01267  Uiso   1.00
N10    N     0.27710   0.56930   0.81380   0.01267  Uiso   1.00
N11    N     0.83540   0.34010   0.68600   0.01267  Uiso   1.00
N12    N     0.03400   0.37130   0.65850   0.01267  Uiso   1.00
N13    N     0.39480   0.18760   0.70840   0.01267  Uiso   1.00
N14    N     0.22290   0.06930   0.68620   0.01267  Uiso   1.00
N15    N     0.66460   0.84010   0.81400   0.01267  Uiso   1.00
N16    N     0.46600   0.87130   0.84150   0.01267  Uiso   1.00
O1     O     0.87890   0.33630   0.36900   0.01267  Uiso   1.00
O2     O     0.02490   0.25300   0.31780   0.01267  Uiso   1.00
O3     O     0.68580   0.51340   0.34120   0.01267  Uiso   1.00
O4     O     0.40290   0.67660   0.38380   0.01267  Uiso   1.00
O5     O     0.57090   0.56050   0.25260   0.01267  Uiso   1.00
O6     O     0.32050   0.62990   0.46810   0.01267  Uiso   1.00
O7     O     0.06000   0.63540   0.50170   0.01267  Uiso   1.00
O8     O     0.87220   0.58520   0.44680   0.01267  Uiso   1.00
O9     O     0.36630   0.47860   0.31180   0.01267  Uiso   1.00
O10    O     0.26860   0.30350   0.29140   0.01267  Uiso   1.00
O11    O     0.27270   0.55650   0.20050   0.01267  Uiso   1.00
O12    O     0.15930   0.38560   0.18400   0.01267  Uiso   1.00
O13    O     0.62110   0.83630   0.13100   0.01267  Uiso   1.00
O14    O     0.47510   0.75300   0.18220   0.01267  Uiso   1.00
O15    O     0.81420   0.01340   0.15880   0.01267  Uiso   1.00
O16    O     0.09710   0.17660   0.11620   0.01267  Uiso   1.00
O17    O     0.92910   0.06050   0.24740   0.01267  Uiso   1.00
O18    O     0.17950   0.12990   0.03190   0.01267  Uiso   1.00
O19    O     0.44000   0.13540   0.99830   0.01267  Uiso   1.00
O20    O     0.62780   0.08520   0.05320   0.01267  Uiso   1.00
O21    O     0.13370   0.97860   0.18820   0.01267  Uiso   1.00
O22    O     0.23140   0.80350   0.20860   0.01267  Uiso   1.00
O23    O     0.22730   0.05650   0.29950   0.01267  Uiso   1.00
O24    O     0.34070   0.88560   0.31600   0.01267  Uiso   1.00
O25    O     0.12110   0.66370   0.63100   0.01267  Uiso   1.00
O26    O     0.97510   0.74700   0.68220   0.01267  Uiso   1.00
O27    O     0.31420   0.48660   0.65880   0.01267  Uiso   1.00
O28    O     0.59710   0.32340   0.61620   0.01267  Uiso   1.00
O29    O     0.42910   0.43950   0.74740   0.01267  Uiso   1.00
O30    O     0.67950   0.37010   0.53190   0.01267  Uiso   1.00
O31    O     0.94000   0.36460   0.49830   0.01267  Uiso   1.00
O32    O     0.12780   0.41480   0.55320   0.01267  Uiso   1.00
O33    O     0.63370   0.52140   0.68820   0.01267  Uiso   1.00
O34    O     0.73140   0.69650   0.70860   0.01267  Uiso   1.00
O35    O     0.72730   0.44350   0.79950   0.01267  Uiso   1.00
O36    O     0.84070   0.61440   0.81600   0.01267  Uiso   1.00
O37    O     0.37890   0.16370   0.86900   0.01267  Uiso   1.00
O38    O     0.52490   0.24700   0.81780   0.01267  Uiso   1.00
O39    O     0.18580   0.98660   0.84120   0.01267  Uiso   1.00
O40    O     0.90290   0.82340   0.88380   0.01267  Uiso   1.00
O41    O     0.07090   0.93950   0.75260   0.01267  Uiso   1.00
O42    O     0.82050   0.87010   0.96810   0.01267  Uiso   1.00
O43    O     0.56000   0.86460   0.00170   0.01267  Uiso   1.00
O44    O     0.37220   0.91480   0.94680   0.01267  Uiso   1.00
O45    O     0.86630   0.02140   0.81180   0.01267  Uiso   1.00
O46    O     0.76860   0.19650   0.79140   0.01267  Uiso   1.00
O47    O     0.77270   0.94350   0.70050   0.01267  Uiso   1.00
O48    O     0.65930   0.11440   0.68400   0.01267  Uiso   1.00
