data_FATKUI_clean
_audit_creation_date              2014-07-02
_audit_creation_method            'Materials Studio'
_symmetry_space_group_name_H-M    'P1'
_symmetry_Int_Tables_number       1
_symmetry_cell_setting            triclinic
loop_
_symmetry_equiv_pos_as_xyz
  x,y,z
_cell_length_a                    10.4160
_cell_length_b                    11.4400
_cell_length_c                    22.4570
_cell_angle_alpha                 90.0000
_cell_angle_beta                  97.6950
_cell_angle_gamma                 90.0000
loop_
_atom_site_label
_atom_site_type_symbol
_atom_site_fract_x
_atom_site_fract_y
_atom_site_fract_z
_atom_site_U_iso_or_equiv
_atom_site_adp_type
_atom_site_occupancy
Ce1    Ce    0.39228   0.30702   0.77481   0.01267  Uiso   1.00
Ce2    Ce    0.73688   0.58000   0.93495   0.01267  Uiso   1.00
Ce3    Ce    0.10772   0.80702   0.72519   0.01267  Uiso   1.00
Ce4    Ce    0.76312   0.08000   0.56505   0.01267  Uiso   1.00
Ce5    Ce    0.60772   0.69298   0.22519   0.01267  Uiso   1.00
Ce6    Ce    0.26312   0.42000   0.06505   0.01267  Uiso   1.00
Ce7    Ce    0.89228   0.19298   0.27481   0.01267  Uiso   1.00
Ce8    Ce    0.23688   0.92000   0.43495   0.01267  Uiso   1.00
H1     H     0.88630   0.37560   0.83790   0.01267  Uiso   1.00
H2     H     0.66360   0.52120   0.66320   0.01267  Uiso   1.00
H3     H     0.02300   0.28190   0.71050   0.01267  Uiso   1.00
H4     H     0.88780   0.31020   0.73040   0.01267  Uiso   1.00
H5     H     0.97620   0.41190   0.71270   0.01267  Uiso   1.00
H6     H     0.90560   0.63420   0.59070   0.01267  Uiso   1.00
H7     H     0.76200   0.59150   0.57560   0.01267  Uiso   1.00
H8     H     0.79170   0.72450   0.58700   0.01267  Uiso   1.00
H9     H     0.61370   0.87560   0.66210   0.01267  Uiso   1.00
H10    H     0.83640   0.02120   0.83680   0.01267  Uiso   1.00
H11    H     0.47700   0.78190   0.78950   0.01267  Uiso   1.00
H12    H     0.61220   0.81020   0.76960   0.01267  Uiso   1.00
H13    H     0.52380   0.91190   0.78730   0.01267  Uiso   1.00
H14    H     0.59440   0.13420   0.90930   0.01267  Uiso   1.00
H15    H     0.73800   0.09150   0.92440   0.01267  Uiso   1.00
H16    H     0.70830   0.22450   0.91300   0.01267  Uiso   1.00
H17    H     0.11370   0.62440   0.16210   0.01267  Uiso   1.00
H18    H     0.33640   0.47880   0.33680   0.01267  Uiso   1.00
H19    H     0.97700   0.71810   0.28950   0.01267  Uiso   1.00
H20    H     0.11220   0.68980   0.26960   0.01267  Uiso   1.00
H21    H     0.02380   0.58810   0.28730   0.01267  Uiso   1.00
H22    H     0.09440   0.36580   0.40930   0.01267  Uiso   1.00
H23    H     0.23800   0.40850   0.42440   0.01267  Uiso   1.00
H24    H     0.20830   0.27550   0.41300   0.01267  Uiso   1.00
H25    H     0.38630   0.12440   0.33790   0.01267  Uiso   1.00
H26    H     0.16360   0.97880   0.16320   0.01267  Uiso   1.00
H27    H     0.52300   0.21810   0.21050   0.01267  Uiso   1.00
H28    H     0.38780   0.18980   0.23040   0.01267  Uiso   1.00
H29    H     0.47620   0.08810   0.21270   0.01267  Uiso   1.00
H30    H     0.40560   0.86580   0.09070   0.01267  Uiso   1.00
H31    H     0.26200   0.90850   0.07560   0.01267  Uiso   1.00
H32    H     0.29170   0.77550   0.08700   0.01267  Uiso   1.00
C1     C     0.99580   0.38280   0.95125   0.01267  Uiso   1.00
C2     C     0.05240   0.36870   0.89424   0.01267  Uiso   1.00
C3     C     0.17300   0.35020   0.87750   0.01267  Uiso   1.00
C4     C     0.30420   0.34830   0.91304   0.01267  Uiso   1.00
C5     C     0.03730   0.34550   0.79546   0.01267  Uiso   1.00
C6     C     0.97560   0.33660   0.73153   0.01267  Uiso   1.00
C7     C     0.91660   0.67770   0.81930   0.01267  Uiso   1.00
C8     C     0.84600   0.63790   0.76076   0.01267  Uiso   1.00
C9     C     0.74170   0.56430   0.74685   0.01267  Uiso   1.00
C10    C     0.66040   0.48730   0.78051   0.01267  Uiso   1.00
C11    C     0.81090   0.62950   0.66374   0.01267  Uiso   1.00
C12    C     0.81820   0.64640   0.59844   0.01267  Uiso   1.00
C13    C     0.29610   0.58570   0.77676   0.01267  Uiso   1.00
C14    C     0.23440   0.53970   0.71416   0.01267  Uiso   1.00
C15    C     0.50420   0.88280   0.54875   0.01267  Uiso   1.00
C16    C     0.44760   0.86870   0.60576   0.01267  Uiso   1.00
C17    C     0.32700   0.85020   0.62250   0.01267  Uiso   1.00
C18    C     0.19580   0.84830   0.58696   0.01267  Uiso   1.00
C19    C     0.46270   0.84550   0.70454   0.01267  Uiso   1.00
C20    C     0.52440   0.83660   0.76847   0.01267  Uiso   1.00
C21    C     0.58340   0.17770   0.68070   0.01267  Uiso   1.00
C22    C     0.65400   0.13790   0.73924   0.01267  Uiso   1.00
C23    C     0.75830   0.06430   0.75315   0.01267  Uiso   1.00
C24    C     0.83960   0.98730   0.71949   0.01267  Uiso   1.00
C25    C     0.68910   0.12950   0.83626   0.01267  Uiso   1.00
C26    C     0.68180   0.14640   0.90156   0.01267  Uiso   1.00
C27    C     0.20390   0.08570   0.72324   0.01267  Uiso   1.00
C28    C     0.26560   0.03970   0.78584   0.01267  Uiso   1.00
C29    C     0.00420   0.61720   0.04875   0.01267  Uiso   1.00
C30    C     0.94760   0.63130   0.10576   0.01267  Uiso   1.00
C31    C     0.82700   0.64980   0.12250   0.01267  Uiso   1.00
C32    C     0.69580   0.65170   0.08696   0.01267  Uiso   1.00
C33    C     0.96270   0.65450   0.20454   0.01267  Uiso   1.00
C34    C     0.02440   0.66340   0.26847   0.01267  Uiso   1.00
C35    C     0.08340   0.32230   0.18070   0.01267  Uiso   1.00
C36    C     0.15400   0.36210   0.23924   0.01267  Uiso   1.00
C37    C     0.25830   0.43570   0.25315   0.01267  Uiso   1.00
C38    C     0.33960   0.51270   0.21949   0.01267  Uiso   1.00
C39    C     0.18910   0.37050   0.33626   0.01267  Uiso   1.00
C40    C     0.18180   0.35360   0.40156   0.01267  Uiso   1.00
C41    C     0.70390   0.41430   0.22324   0.01267  Uiso   1.00
C42    C     0.76560   0.46030   0.28584   0.01267  Uiso   1.00
C43    C     0.49580   0.11720   0.45125   0.01267  Uiso   1.00
C44    C     0.55240   0.13130   0.39424   0.01267  Uiso   1.00
C45    C     0.67300   0.14980   0.37750   0.01267  Uiso   1.00
C46    C     0.80420   0.15170   0.41304   0.01267  Uiso   1.00
C47    C     0.53730   0.15450   0.29546   0.01267  Uiso   1.00
C48    C     0.47560   0.16340   0.23153   0.01267  Uiso   1.00
C49    C     0.41660   0.82230   0.31930   0.01267  Uiso   1.00
C50    C     0.34600   0.86210   0.26076   0.01267  Uiso   1.00
C51    C     0.24170   0.93570   0.24685   0.01267  Uiso   1.00
C52    C     0.16040   0.01270   0.28051   0.01267  Uiso   1.00
C53    C     0.31090   0.87050   0.16374   0.01267  Uiso   1.00
C54    C     0.31820   0.85360   0.09844   0.01267  Uiso   1.00
C55    C     0.79610   0.91430   0.27676   0.01267  Uiso   1.00
C56    C     0.73440   0.96030   0.21416   0.01267  Uiso   1.00
N1     N     0.96880   0.36590   0.84122   0.01267  Uiso   1.00
N2     N     0.16210   0.33600   0.81572   0.01267  Uiso   1.00
N3     N     0.88870   0.67780   0.70871   0.01267  Uiso   1.00
N4     N     0.72260   0.56090   0.68486   0.01267  Uiso   1.00
N5     N     0.53120   0.86590   0.65878   0.01267  Uiso   1.00
N6     N     0.33790   0.83600   0.68428   0.01267  Uiso   1.00
N7     N     0.61130   0.17780   0.79129   0.01267  Uiso   1.00
N8     N     0.77740   0.06090   0.81514   0.01267  Uiso   1.00
N9     N     0.03120   0.63410   0.15878   0.01267  Uiso   1.00
N10    N     0.83790   0.66400   0.18428   0.01267  Uiso   1.00
N11    N     0.11130   0.32220   0.29129   0.01267  Uiso   1.00
N12    N     0.27740   0.43910   0.31514   0.01267  Uiso   1.00
N13    N     0.46880   0.13410   0.34122   0.01267  Uiso   1.00
N14    N     0.66210   0.16400   0.31572   0.01267  Uiso   1.00
N15    N     0.38870   0.82220   0.20871   0.01267  Uiso   1.00
N16    N     0.22260   0.93910   0.18486   0.01267  Uiso   1.00
O1     O     0.87680   0.40730   0.94510   0.01267  Uiso   1.00
O2     O     0.06330   0.36620   0.00050   0.01267  Uiso   1.00
O3     O     0.39800   0.31934   0.88568   0.01267  Uiso   1.00
O4     O     0.31920   0.37710   0.96689   0.01267  Uiso   1.00
O5     O     0.02060   0.73160   0.81759   0.01267  Uiso   1.00
O6     O     0.87090   0.65880   0.86663   0.01267  Uiso   1.00
O7     O     0.68510   0.47830   0.83664   0.01267  Uiso   1.00
O8     O     0.57380   0.43300   0.74833   0.01267  Uiso   1.00
O9     O     0.36880   0.51650   0.80887   0.01267  Uiso   1.00
O10    O     0.26980   0.68765   0.79018   0.01267  Uiso   1.00
O11    O     0.15680   0.60636   0.68384   0.01267  Uiso   1.00
O12    O     0.26710   0.43910   0.69915   0.01267  Uiso   1.00
O13    O     0.62320   0.90730   0.55490   0.01267  Uiso   1.00
O14    O     0.43670   0.86620   0.49950   0.01267  Uiso   1.00
O15    O     0.10200   0.81934   0.61432   0.01267  Uiso   1.00
O16    O     0.18080   0.87710   0.53311   0.01267  Uiso   1.00
O17    O     0.47940   0.23160   0.68241   0.01267  Uiso   1.00
O18    O     0.62910   0.15880   0.63337   0.01267  Uiso   1.00
O19    O     0.81490   0.97830   0.66336   0.01267  Uiso   1.00
O20    O     0.92620   0.93300   0.75167   0.01267  Uiso   1.00
O21    O     0.13120   0.01650   0.69113   0.01267  Uiso   1.00
O22    O     0.23020   0.18765   0.70982   0.01267  Uiso   1.00
O23    O     0.34320   0.10636   0.81616   0.01267  Uiso   1.00
O24    O     0.23290   0.93910   0.80085   0.01267  Uiso   1.00
O25    O     0.12320   0.59270   0.05490   0.01267  Uiso   1.00
O26    O     0.93670   0.63380   0.99950   0.01267  Uiso   1.00
O27    O     0.60200   0.68066   0.11432   0.01267  Uiso   1.00
O28    O     0.68080   0.62290   0.03311   0.01267  Uiso   1.00
O29    O     0.97940   0.26840   0.18241   0.01267  Uiso   1.00
O30    O     0.12910   0.34120   0.13337   0.01267  Uiso   1.00
O31    O     0.31490   0.52170   0.16336   0.01267  Uiso   1.00
O32    O     0.42620   0.56700   0.25167   0.01267  Uiso   1.00
O33    O     0.63120   0.48350   0.19113   0.01267  Uiso   1.00
O34    O     0.73020   0.31235   0.20982   0.01267  Uiso   1.00
O35    O     0.84320   0.39364   0.31616   0.01267  Uiso   1.00
O36    O     0.73290   0.56090   0.30085   0.01267  Uiso   1.00
O37    O     0.37680   0.09270   0.44510   0.01267  Uiso   1.00
O38    O     0.56330   0.13380   0.50050   0.01267  Uiso   1.00
O39    O     0.89800   0.18066   0.38568   0.01267  Uiso   1.00
O40    O     0.81920   0.12290   0.46689   0.01267  Uiso   1.00
O41    O     0.52060   0.76840   0.31759   0.01267  Uiso   1.00
O42    O     0.37090   0.84120   0.36663   0.01267  Uiso   1.00
O43    O     0.18510   0.02170   0.33664   0.01267  Uiso   1.00
O44    O     0.07380   0.06700   0.24833   0.01267  Uiso   1.00
O45    O     0.86880   0.98350   0.30887   0.01267  Uiso   1.00
O46    O     0.76980   0.81235   0.29018   0.01267  Uiso   1.00
O47    O     0.65680   0.89364   0.18384   0.01267  Uiso   1.00
O48    O     0.76710   0.06090   0.19915   0.01267  Uiso   1.00
