data_image0
_cell_length_a       11.3502
_cell_length_b       16.1501
_cell_length_c       11.3658
_cell_angle_alpha    90
_cell_angle_beta     101.935
_cell_angle_gamma    90

_symmetry_space_group_name_H-M    "P 1"
_symmetry_int_tables_number       1

loop_
  _symmetry_equiv_pos_as_xyz
  'x, y, z'

loop_
  _atom_site_label
  _atom_site_occupancy
  _atom_site_fract_x
  _atom_site_fract_y
  _atom_site_fract_z
  _atom_site_thermal_displace_type
  _atom_site_B_iso_or_equiv
  _atom_site_type_symbol
  Cu1      1.0000 0.37257  0.58984  0.61627  Biso   1.000  Cu
  O1       1.0000 0.41844  0.57168  0.45398  Biso   1.000  O
  O2       1.0000 0.39478  0.69272  0.52638  Biso   1.000  O
  O3       1.0000 0.59236  0.51885  0.31050  Biso   1.000  O
  N1       1.0000 0.34169  0.64671  0.76003  Biso   1.000  N
  C1       1.0000 0.46269  0.69039  0.34193  Biso   1.000  C
  C2       1.0000 0.46270  0.77696  0.34100  Biso   1.000  C
  H1       1.0000 0.43740  0.80590  0.40210  Biso   1.000  H
  C3       1.0000 0.42264  0.64886  0.44416  Biso   1.000  C
  C4       1.0000 0.33950  0.72946  0.76480  Biso   1.000  C
  H2       1.0000 0.36220  0.75950  0.70320  Biso   1.000  H
  C5       1.0000 0.30500  0.77190  0.85720  Biso   1.000  C
  H3       1.0000 0.30500  0.82950  0.85750  Biso   1.000  H
  C6       1.0000 0.27003  0.72836  0.95004  Biso   1.000  C
  C7       1.0000 0.27520  0.64253  0.94540  Biso   1.000  C
  H4       1.0000 0.25470  0.61100  0.00670  Biso   1.000  H
  C8       1.0000 0.31060  0.60390  0.85030  Biso   1.000  C
  H5       1.0000 0.31300  0.54640  0.84860  Biso   1.000  H
  Cu2      1.0000 0.87257  0.08984  0.61627  Biso   1.000  Cu
  O4       1.0000 0.91844  0.07168  0.45398  Biso   1.000  O
  O5       1.0000 0.89478  0.19272  0.52638  Biso   1.000  O
  O6       1.0000 0.09236  0.01885  0.31050  Biso   1.000  O
  N2       1.0000 0.84169  0.14671  0.76003  Biso   1.000  N
  C9       1.0000 0.96269  0.19039  0.34193  Biso   1.000  C
  C10      1.0000 0.96270  0.27696  0.34100  Biso   1.000  C
  H6       1.0000 0.93740  0.30590  0.40210  Biso   1.000  H
  C11      1.0000 0.92264  0.14886  0.44416  Biso   1.000  C
  C12      1.0000 0.83950  0.22946  0.76480  Biso   1.000  C
  H7       1.0000 0.86220  0.25950  0.70320  Biso   1.000  H
  C13      1.0000 0.80500  0.27190  0.85720  Biso   1.000  C
  H8       1.0000 0.80500  0.32950  0.85750  Biso   1.000  H
  C14      1.0000 0.77003  0.22836  0.95004  Biso   1.000  C
  C15      1.0000 0.77520  0.14253  0.94540  Biso   1.000  C
  H9       1.0000 0.75470  0.11100  0.00670  Biso   1.000  H
  C16      1.0000 0.81060  0.10390  0.85030  Biso   1.000  C
  H10      1.0000 0.81300  0.04640  0.84860  Biso   1.000  H
  Cu3      1.0000 0.62743  0.58984  0.88373  Biso   1.000  Cu
  O7       1.0000 0.58156  0.57168  0.04602  Biso   1.000  O
  O8       1.0000 0.60522  0.69272  0.97362  Biso   1.000  O
  O9       1.0000 0.40764  0.51885  0.18950  Biso   1.000  O
  N3       1.0000 0.65831  0.64671  0.73997  Biso   1.000  N
  C17      1.0000 0.53731  0.69039  0.15807  Biso   1.000  C
  C18      1.0000 0.53730  0.77696  0.15900  Biso   1.000  C
  H11      1.0000 0.56260  0.80590  0.09790  Biso   1.000  H
  C19      1.0000 0.57736  0.64886  0.05584  Biso   1.000  C
  C20      1.0000 0.66050  0.72946  0.73520  Biso   1.000  C
  H12      1.0000 0.63780  0.75950  0.79680  Biso   1.000  H
  C21      1.0000 0.69500  0.77190  0.64280  Biso   1.000  C
  H13      1.0000 0.69500  0.82950  0.64250  Biso   1.000  H
  C22      1.0000 0.72997  0.72836  0.54996  Biso   1.000  C
  C23      1.0000 0.72480  0.64253  0.55460  Biso   1.000  C
  H14      1.0000 0.74530  0.61100  0.49330  Biso   1.000  H
  C24      1.0000 0.68940  0.60390  0.64970  Biso   1.000  C
  H15      1.0000 0.68700  0.54640  0.65140  Biso   1.000  H
  Cu4      1.0000 0.12743  0.08984  0.88373  Biso   1.000  Cu
  O10      1.0000 0.08156  0.07168  0.04602  Biso   1.000  O
  O11      1.0000 0.10522  0.19272  0.97362  Biso   1.000  O
  O12      1.0000 0.90764  0.01885  0.18950  Biso   1.000  O
  N4       1.0000 0.15831  0.14671  0.73997  Biso   1.000  N
  C25      1.0000 0.03731  0.19039  0.15807  Biso   1.000  C
  C26      1.0000 0.03730  0.27696  0.15900  Biso   1.000  C
  H16      1.0000 0.06260  0.30590  0.09790  Biso   1.000  H
  C27      1.0000 0.07736  0.14886  0.05584  Biso   1.000  C
  C28      1.0000 0.16050  0.22946  0.73520  Biso   1.000  C
  H17      1.0000 0.13780  0.25950  0.79680  Biso   1.000  H
  C29      1.0000 0.19500  0.27190  0.64280  Biso   1.000  C
  H18      1.0000 0.19500  0.32950  0.64250  Biso   1.000  H
  C30      1.0000 0.22997  0.22836  0.54996  Biso   1.000  C
  C31      1.0000 0.22480  0.14253  0.55460  Biso   1.000  C
  H19      1.0000 0.24530  0.11100  0.49330  Biso   1.000  H
  C32      1.0000 0.18940  0.10390  0.64970  Biso   1.000  C
  H20      1.0000 0.18700  0.04640  0.65140  Biso   1.000  H
  Cu5      1.0000 0.62743  0.41016  0.38373  Biso   1.000  Cu
  O13      1.0000 0.58156  0.42832  0.54602  Biso   1.000  O
  O14      1.0000 0.60522  0.30728  0.47362  Biso   1.000  O
  O15      1.0000 0.40764  0.48115  0.68950  Biso   1.000  O
  N5       1.0000 0.65831  0.35329  0.23997  Biso   1.000  N
  C33      1.0000 0.53731  0.30961  0.65807  Biso   1.000  C
  C34      1.0000 0.53730  0.22304  0.65900  Biso   1.000  C
  H21      1.0000 0.56260  0.19410  0.59790  Biso   1.000  H
  C35      1.0000 0.57736  0.35114  0.55584  Biso   1.000  C
  C36      1.0000 0.66050  0.27054  0.23520  Biso   1.000  C
  H22      1.0000 0.63780  0.24050  0.29680  Biso   1.000  H
  C37      1.0000 0.69500  0.22810  0.14280  Biso   1.000  C
  H23      1.0000 0.69500  0.17050  0.14250  Biso   1.000  H
  C38      1.0000 0.72997  0.27164  0.04996  Biso   1.000  C
  C39      1.0000 0.72480  0.35747  0.05460  Biso   1.000  C
  H24      1.0000 0.74530  0.38900  0.99330  Biso   1.000  H
  C40      1.0000 0.68940  0.39610  0.14970  Biso   1.000  C
  H25      1.0000 0.68700  0.45360  0.15140  Biso   1.000  H
  Cu6      1.0000 0.12743  0.91016  0.38373  Biso   1.000  Cu
  O16      1.0000 0.08156  0.92832  0.54602  Biso   1.000  O
  O17      1.0000 0.10522  0.80728  0.47362  Biso   1.000  O
  O18      1.0000 0.90764  0.98115  0.68950  Biso   1.000  O
  N6       1.0000 0.15831  0.85329  0.23997  Biso   1.000  N
  C41      1.0000 0.03731  0.80961  0.65807  Biso   1.000  C
  C42      1.0000 0.03730  0.72304  0.65900  Biso   1.000  C
  H26      1.0000 0.06260  0.69410  0.59790  Biso   1.000  H
  C43      1.0000 0.07736  0.85114  0.55584  Biso   1.000  C
  C44      1.0000 0.16050  0.77054  0.23520  Biso   1.000  C
  H27      1.0000 0.13780  0.74050  0.29680  Biso   1.000  H
  C45      1.0000 0.19500  0.72810  0.14280  Biso   1.000  C
  H28      1.0000 0.19500  0.67050  0.14250  Biso   1.000  H
  C46      1.0000 0.22997  0.77164  0.04996  Biso   1.000  C
  C47      1.0000 0.22480  0.85747  0.05460  Biso   1.000  C
  H29      1.0000 0.24530  0.88900  0.99330  Biso   1.000  H
  C48      1.0000 0.18940  0.89610  0.14970  Biso   1.000  C
  H30      1.0000 0.18700  0.95360  0.15140  Biso   1.000  H
  Cu7      1.0000 0.37257  0.41016  0.11627  Biso   1.000  Cu
  O19      1.0000 0.41844  0.42832  0.95398  Biso   1.000  O
  O20      1.0000 0.39478  0.30728  0.02638  Biso   1.000  O
  O21      1.0000 0.59236  0.48115  0.81050  Biso   1.000  O
  N7       1.0000 0.34169  0.35329  0.26003  Biso   1.000  N
  C49      1.0000 0.46269  0.30961  0.84193  Biso   1.000  C
  C50      1.0000 0.46270  0.22304  0.84100  Biso   1.000  C
  H31      1.0000 0.43740  0.19410  0.90210  Biso   1.000  H
  C51      1.0000 0.42264  0.35114  0.94416  Biso   1.000  C
  C52      1.0000 0.33950  0.27054  0.26480  Biso   1.000  C
  H32      1.0000 0.36220  0.24050  0.20320  Biso   1.000  H
  C53      1.0000 0.30500  0.22810  0.35720  Biso   1.000  C
  H33      1.0000 0.30500  0.17050  0.35750  Biso   1.000  H
  C54      1.0000 0.27003  0.27164  0.45004  Biso   1.000  C
  C55      1.0000 0.27520  0.35747  0.44540  Biso   1.000  C
  H34      1.0000 0.25470  0.38900  0.50670  Biso   1.000  H
  C56      1.0000 0.31060  0.39610  0.35030  Biso   1.000  C
  H35      1.0000 0.31300  0.45360  0.34860  Biso   1.000  H
  Cu8      1.0000 0.87257  0.91016  0.11627  Biso   1.000  Cu
  O22      1.0000 0.91844  0.92832  0.95398  Biso   1.000  O
  O23      1.0000 0.89478  0.80728  0.02638  Biso   1.000  O
  O24      1.0000 0.09236  0.98115  0.81050  Biso   1.000  O
  N8       1.0000 0.84169  0.85329  0.26003  Biso   1.000  N
  C57      1.0000 0.96269  0.80961  0.84193  Biso   1.000  C
  C58      1.0000 0.96270  0.72304  0.84100  Biso   1.000  C
  H36      1.0000 0.93740  0.69410  0.90210  Biso   1.000  H
  C59      1.0000 0.92264  0.85114  0.94416  Biso   1.000  C
  C60      1.0000 0.83950  0.77054  0.26480  Biso   1.000  C
  H37      1.0000 0.86220  0.74050  0.20320  Biso   1.000  H
  C61      1.0000 0.80500  0.72810  0.35720  Biso   1.000  C
  H38      1.0000 0.80500  0.67050  0.35750  Biso   1.000  H
  C62      1.0000 0.77003  0.77164  0.45004  Biso   1.000  C
  C63      1.0000 0.77520  0.85747  0.44540  Biso   1.000  C
  H39      1.0000 0.75470  0.88900  0.50670  Biso   1.000  H
  C64      1.0000 0.81060  0.89610  0.35030  Biso   1.000  C
  H40      1.0000 0.81300  0.95360  0.34860  Biso   1.000  H
  C65      1.0000 0.50000  0.55214  0.25000  Biso   1.000  C
  C66      1.0000 0.50000  0.64611  0.25000  Biso   1.000  C
  C67      1.0000 0.50000  0.81980  0.25000  Biso   1.000  C
  H41      1.0000 0.50000  0.87740  0.25000  Biso   1.000  H
  C68      1.0000 0.00000  0.05214  0.25000  Biso   1.000  C
  C69      1.0000 0.00000  0.14611  0.25000  Biso   1.000  C
  C70      1.0000 0.00000  0.31980  0.25000  Biso   1.000  C
  H42      1.0000 0.00000  0.37740  0.25000  Biso   1.000  H
  C71      1.0000 0.50000  0.44786  0.75000  Biso   1.000  C
  C72      1.0000 0.50000  0.35389  0.75000  Biso   1.000  C
  C73      1.0000 0.50000  0.18020  0.75000  Biso   1.000  C
  H43      1.0000 0.50000  0.12260  0.75000  Biso   1.000  H
  C74      1.0000 0.00000  0.94786  0.75000  Biso   1.000  C
  C75      1.0000 0.00000  0.85389  0.75000  Biso   1.000  C
  C76      1.0000 0.00000  0.68020  0.75000  Biso   1.000  C
  H44      1.0000 0.00000  0.62260  0.75000  Biso   1.000  H
