data_image0
_cell_length_a       11.9
_cell_length_b       12.494
_cell_length_c       12.539
_cell_angle_alpha    90
_cell_angle_beta     98.76
_cell_angle_gamma    90

_symmetry_space_group_name_H-M    "P 1"
_symmetry_int_tables_number       1

loop_
  _symmetry_equiv_pos_as_xyz
  'x, y, z'

loop_
  _atom_site_label
  _atom_site_occupancy
  _atom_site_fract_x
  _atom_site_fract_y
  _atom_site_fract_z
  _atom_site_thermal_displace_type
  _atom_site_B_iso_or_equiv
  _atom_site_type_symbol
  C1       1.0000 0.51550  0.65980  0.50950  Biso   1.000  C
  C2       1.0000 0.61120  0.62580  0.47000  Biso   1.000  C
  H1       1.0000 0.67410  0.60040  0.51620  Biso   1.000  H
  C3       1.0000 0.61160  0.63050  0.35980  Biso   1.000  C
  C4       1.0000 0.51710  0.66590  0.28940  Biso   1.000  C
  H2       1.0000 0.51890  0.66950  0.21560  Biso   1.000  H
  C5       1.0000 0.42020  0.69560  0.33080  Biso   1.000  C
  C6       1.0000 0.41940  0.69720  0.44140  Biso   1.000  C
  H3       1.0000 0.35660  0.72260  0.46960  Biso   1.000  H
  C7       1.0000 0.51300  0.65900  0.62870  Biso   1.000  C
  C8       1.0000 0.72100  0.62020  0.21570  Biso   1.000  C
  H4       1.0000 0.69750  0.69400  0.19760  Biso   1.000  H
  C9       1.0000 0.64220  0.54390  0.14110  Biso   1.000  C
  C10      1.0000 0.84410  0.60820  0.20210  Biso   1.000  C
  H5       1.0000 0.88910  0.65990  0.24640  Biso   1.000  H
  H6       1.0000 0.85190  0.61960  0.12790  Biso   1.000  H
  H7       1.0000 0.86980  0.53740  0.22340  Biso   1.000  H
  C11      1.0000 0.30780  0.70430  0.15590  Biso   1.000  C
  H8       1.0000 0.33900  0.63330  0.14510  Biso   1.000  H
  C12      1.0000 0.36780  0.78510  0.09510  Biso   1.000  C
  C13      1.0000 0.18110  0.70210  0.11590  Biso   1.000  C
  H9       1.0000 0.14550  0.65050  0.15660  Biso   1.000  H
  H10      1.0000 0.16810  0.68270  0.04090  Biso   1.000  H
  H11      1.0000 0.14940  0.77160  0.12470  Biso   1.000  H
  C14      1.0000 0.97920  0.45400  0.90910  Biso   1.000  C
  C15      1.0000 0.03750  0.45130  0.01230  Biso   1.000  C
  H12      1.0000 0.99970  0.46510  0.07050  Biso   1.000  H
  C16      1.0000 0.15330  0.42800  0.02980  Biso   1.000  C
  C17      1.0000 0.21000  0.40930  0.94310  Biso   1.000  C
  H13      1.0000 0.28770  0.39510  0.95400  Biso   1.000  H
  C18      1.0000 0.14800  0.41210  0.83770  Biso   1.000  C
  C19      1.0000 0.03330  0.43390  0.82080  Biso   1.000  C
  H14      1.0000 0.99280  0.43520  0.75130  Biso   1.000  H
  C20      1.0000 0.85510  0.48100  0.89170  Biso   1.000  C
  C21      1.0000 0.31320  0.42690  0.75120  Biso   1.000  C
  H15      1.0000 0.36330  0.37970  0.79940  Biso   1.000  H
  C22      1.0000 0.32750  0.54200  0.79130  Biso   1.000  C
  C23      1.0000 0.34170  0.41920  0.63840  Biso   1.000  C
  H16      1.0000 0.32470  0.34840  0.61070  Biso   1.000  H
  H17      1.0000 0.42120  0.43360  0.63980  Biso   1.000  H
  H18      1.0000 0.29760  0.47050  0.59290  Biso   1.000  H
  C24      1.0000 0.31800  0.39990  0.16290  Biso   1.000  C
  H19      1.0000 0.36580  0.44680  0.12610  Biso   1.000  H
  C25      1.0000 0.33810  0.28390  0.13570  Biso   1.000  C
  C26      1.0000 0.34680  0.41430  0.28510  Biso   1.000  C
  H20      1.0000 0.32990  0.48640  0.30390  Biso   1.000  H
  H21      1.0000 0.42610  0.40020  0.30760  Biso   1.000  H
  H22      1.0000 0.30230  0.36540  0.32050  Biso   1.000  H
  O1       1.0000 0.43620  0.71430  0.66230  Biso   1.000  O
  O2       1.0000 0.58380  0.60230  0.68640  Biso   1.000  O
  O3       1.0000 0.71170  0.60190  0.32540  Biso   1.000  O
  O4       1.0000 0.62020  0.45490  0.17440  Biso   1.000  O
  O5       1.0000 0.60950  0.57890  0.04670  Biso   1.000  O
  O6       1.0000 0.32110  0.72500  0.26740  Biso   1.000  O
  O7       1.0000 0.37450  0.76270  0.99800  Biso   1.000  O
  O8       1.0000 0.40710  0.87140  0.14030  Biso   1.000  O
  O9       1.0000 0.80270  0.50340  0.79940  Biso   1.000  O
  O10      1.0000 0.80150  0.47830  0.97300  Biso   1.000  O
  O11      1.0000 0.20210  0.42970  0.13590  Biso   1.000  O
  O12      1.0000 0.25790  0.21820  0.12300  Biso   1.000  O
  O13      1.0000 0.43870  0.25460  0.12950  Biso   1.000  O
  O14      1.0000 0.19760  0.39430  0.74830  Biso   1.000  O
  O15      1.0000 0.25040  0.60890  0.76850  Biso   1.000  O
  O16      1.0000 0.42380  0.56890  0.84450  Biso   1.000  O
  O17      1.0000 0.23600  0.83210  0.65030  Biso   1.000  O
  H23      1.0000 0.22820  0.88910  0.68640  Biso   1.000  H
  H24      1.0000 0.19510  0.83690  0.58800  Biso   1.000  H
  Sm1      1.0000 0.62739  0.55430  0.86846  Biso   1.000  Sm
  Sm2      1.0000 0.35887  0.77064  0.81305  Biso   1.000  Sm
  C27      1.0000 0.48450  0.15980  0.49050  Biso   1.000  C
  C28      1.0000 0.38880  0.12580  0.53000  Biso   1.000  C
  H25      1.0000 0.32590  0.10040  0.48380  Biso   1.000  H
  C29      1.0000 0.38840  0.13050  0.64020  Biso   1.000  C
  C30      1.0000 0.48290  0.16590  0.71060  Biso   1.000  C
  H26      1.0000 0.48110  0.16950  0.78440  Biso   1.000  H
  C31      1.0000 0.57980  0.19560  0.66920  Biso   1.000  C
  C32      1.0000 0.58060  0.19720  0.55860  Biso   1.000  C
  H27      1.0000 0.64340  0.22260  0.53040  Biso   1.000  H
  C33      1.0000 0.48700  0.15900  0.37130  Biso   1.000  C
  C34      1.0000 0.27900  0.12020  0.78430  Biso   1.000  C
  H28      1.0000 0.30250  0.19400  0.80240  Biso   1.000  H
  C35      1.0000 0.35780  0.04390  0.85890  Biso   1.000  C
  C36      1.0000 0.15590  0.10820  0.79790  Biso   1.000  C
  H29      1.0000 0.11090  0.15990  0.75360  Biso   1.000  H
  H30      1.0000 0.14810  0.11960  0.87210  Biso   1.000  H
  H31      1.0000 0.13020  0.03740  0.77660  Biso   1.000  H
  C37      1.0000 0.69220  0.20430  0.84410  Biso   1.000  C
  H32      1.0000 0.66100  0.13330  0.85490  Biso   1.000  H
  C38      1.0000 0.63220  0.28510  0.90490  Biso   1.000  C
  C39      1.0000 0.81890  0.20210  0.88410  Biso   1.000  C
  H33      1.0000 0.85450  0.15050  0.84340  Biso   1.000  H
  H34      1.0000 0.83190  0.18270  0.95910  Biso   1.000  H
  H35      1.0000 0.85060  0.27160  0.87530  Biso   1.000  H
  C40      1.0000 0.02080  0.95400  0.09090  Biso   1.000  C
  C41      1.0000 0.96250  0.95130  0.98770  Biso   1.000  C
  H36      1.0000 0.00030  0.96510  0.92950  Biso   1.000  H
  C42      1.0000 0.84670  0.92800  0.97020  Biso   1.000  C
  C43      1.0000 0.79000  0.90930  0.05690  Biso   1.000  C
  H37      1.0000 0.71230  0.89510  0.04600  Biso   1.000  H
  C44      1.0000 0.85200  0.91210  0.16230  Biso   1.000  C
  C45      1.0000 0.96670  0.93390  0.17920  Biso   1.000  C
  H38      1.0000 0.00720  0.93520  0.24870  Biso   1.000  H
  C46      1.0000 0.14490  0.98100  0.10830  Biso   1.000  C
  C47      1.0000 0.68680  0.92690  0.24880  Biso   1.000  C
  H39      1.0000 0.63670  0.87970  0.20060  Biso   1.000  H
  C48      1.0000 0.67250  0.04200  0.20870  Biso   1.000  C
  C49      1.0000 0.65830  0.91920  0.36160  Biso   1.000  C
  H40      1.0000 0.67530  0.84840  0.38930  Biso   1.000  H
  H41      1.0000 0.57880  0.93360  0.36020  Biso   1.000  H
  H42      1.0000 0.70240  0.97050  0.40710  Biso   1.000  H
  C50      1.0000 0.68200  0.89990  0.83710  Biso   1.000  C
  H43      1.0000 0.63420  0.94680  0.87390  Biso   1.000  H
  C51      1.0000 0.66190  0.78390  0.86430  Biso   1.000  C
  C52      1.0000 0.65320  0.91430  0.71490  Biso   1.000  C
  H44      1.0000 0.67010  0.98640  0.69610  Biso   1.000  H
  H45      1.0000 0.57390  0.90020  0.69240  Biso   1.000  H
  H46      1.0000 0.69770  0.86540  0.67950  Biso   1.000  H
  O18      1.0000 0.56380  0.21430  0.33770  Biso   1.000  O
  O19      1.0000 0.41620  0.10230  0.31360  Biso   1.000  O
  O20      1.0000 0.28830  0.10190  0.67460  Biso   1.000  O
  O21      1.0000 0.37980  0.95490  0.82560  Biso   1.000  O
  O22      1.0000 0.39050  0.07890  0.95330  Biso   1.000  O
  O23      1.0000 0.67890  0.22500  0.73260  Biso   1.000  O
  O24      1.0000 0.62550  0.26270  0.00200  Biso   1.000  O
  O25      1.0000 0.59290  0.37140  0.85970  Biso   1.000  O
  O26      1.0000 0.19730  0.00340  0.20060  Biso   1.000  O
  O27      1.0000 0.19850  0.97830  0.02700  Biso   1.000  O
  O28      1.0000 0.79790  0.92970  0.86410  Biso   1.000  O
  O29      1.0000 0.74210  0.71820  0.87700  Biso   1.000  O
  O30      1.0000 0.56130  0.75460  0.87050  Biso   1.000  O
  O31      1.0000 0.80240  0.89430  0.25170  Biso   1.000  O
  O32      1.0000 0.74960  0.10890  0.23150  Biso   1.000  O
  O33      1.0000 0.57620  0.06890  0.15550  Biso   1.000  O
  O34      1.0000 0.76400  0.33210  0.34970  Biso   1.000  O
  H47      1.0000 0.77180  0.38910  0.31360  Biso   1.000  H
  H48      1.0000 0.80490  0.33690  0.41200  Biso   1.000  H
  Sm3      1.0000 0.37261  0.05430  0.13154  Biso   1.000  Sm
  Sm4      1.0000 0.64113  0.27064  0.18695  Biso   1.000  Sm
