data_image0
_cell_length_a       12.8414
_cell_length_b       24.1086
_cell_length_c       12.3488
_cell_angle_alpha    90
_cell_angle_beta     90
_cell_angle_gamma    90

_symmetry_space_group_name_H-M    "P 1"
_symmetry_int_tables_number       1

loop_
  _symmetry_equiv_pos_as_xyz
  'x, y, z'

loop_
  _atom_site_label
  _atom_site_occupancy
  _atom_site_fract_x
  _atom_site_fract_y
  _atom_site_fract_z
  _atom_site_thermal_displace_type
  _atom_site_B_iso_or_equiv
  _atom_site_type_symbol
  C1       1.0000 0.27890  0.66860  0.99170  Biso   1.000  C
  C2       1.0000 0.29970  0.72770  0.98540  Biso   1.000  C
  H1       1.0000 0.30160  0.74560  0.91870  Biso   1.000  H
  C3       1.0000 0.31630  0.75610  0.07720  Biso   1.000  C
  C4       1.0000 0.31170  0.73090  0.17690  Biso   1.000  C
  H2       1.0000 0.32200  0.75160  0.23960  Biso   1.000  H
  C5       1.0000 0.29130  0.67350  0.18350  Biso   1.000  C
  C6       1.0000 0.27310  0.64260  0.08870  Biso   1.000  C
  H3       1.0000 0.25730  0.60500  0.09270  Biso   1.000  H
  C7       1.0000 0.23640  0.58660  0.88970  Biso   1.000  C
  H4       1.0000 0.28440  0.56380  0.93240  Biso   1.000  H
  C8       1.0000 0.12690  0.58040  0.93370  Biso   1.000  C
  C9       1.0000 0.24120  0.56940  0.77390  Biso   1.000  C
  H5       1.0000 0.19020  0.58970  0.73310  Biso   1.000  H
  H6       1.0000 0.22700  0.53040  0.76840  Biso   1.000  H
  H7       1.0000 0.30930  0.57700  0.74560  Biso   1.000  H
  C10      1.0000 0.27640  0.59510  0.30530  Biso   1.000  C
  H8       1.0000 0.21160  0.58350  0.27010  Biso   1.000  H
  C11      1.0000 0.36650  0.56240  0.25770  Biso   1.000  C
  C12      1.0000 0.26740  0.58570  0.42390  Biso   1.000  C
  H9       1.0000 0.32790  0.60040  0.45960  Biso   1.000  H
  H10      1.0000 0.26220  0.54670  0.43810  Biso   1.000  H
  H11      1.0000 0.20630  0.60420  0.45070  Biso   1.000  H
  C13      1.0000 0.33980  0.81790  0.06970  Biso   1.000  C
  C14      1.0000 0.02630  0.95180  0.23610  Biso   1.000  C
  C15      1.0000 0.02760  0.95280  0.34960  Biso   1.000  C
  H12      1.0000 0.04710  0.92120  0.38790  Biso   1.000  H
  C16      1.0000 0.05050  0.89580  0.07600  Biso   1.000  C
  H13      1.0000 0.98500  0.91110  0.04840  Biso   1.000  H
  C17      1.0000 0.14120  0.92490  0.01740  Biso   1.000  C
  C18      1.0000 0.05080  0.83350  0.05490  Biso   1.000  C
  H14      1.0000 0.11560  0.81800  0.07910  Biso   1.000  H
  H15      1.0000 0.04270  0.82680  0.97880  Biso   1.000  H
  H16      1.0000 0.99440  0.81660  0.09360  Biso   1.000  H
  C19      1.0000 0.51280  0.05000  0.45280  Biso   1.000  C
  H17      1.0000 0.52120  0.08350  0.41640  Biso   1.000  H
  C20      1.0000 0.51250  0.04740  0.56240  Biso   1.000  C
  C21      1.0000 0.51040  0.10510  0.72570  Biso   1.000  C
  H18      1.0000 0.44690  0.08620  0.74980  Biso   1.000  H
  C22      1.0000 0.60540  0.07830  0.77950  Biso   1.000  C
  C23      1.0000 0.50400  0.16680  0.75470  Biso   1.000  C
  H19      1.0000 0.56960  0.18430  0.73980  Biso   1.000  H
  H20      1.0000 0.48790  0.17070  0.83030  Biso   1.000  H
  H21      1.0000 0.45040  0.18420  0.71240  Biso   1.000  H
  Nd1      1.0000 0.39822  0.93180  0.05460  Biso   1.000  Nd
  Nd2      1.0000 0.62488  0.58231  0.27481  Biso   1.000  Nd
  O1       1.0000 0.29200  0.65340  0.28700  Biso   1.000  O
  O2       1.0000 0.44670  0.58570  0.23130  Biso   1.000  O
  O3       1.0000 0.34640  0.51070  0.25350  Biso   1.000  O
  O4       1.0000 0.26930  0.64350  0.89330  Biso   1.000  O
  O5       1.0000 0.09790  0.53250  0.95950  Biso   1.000  O
  O6       1.0000 0.06810  0.62070  0.93510  Biso   1.000  O
  O7       1.0000 0.33420  0.84110  0.97960  Biso   1.000  O
  O8       1.0000 0.36230  0.84410  0.15440  Biso   1.000  O
  O9       1.0000 0.05200  0.90250  0.19060  Biso   1.000  O
  O10      1.0000 0.21560  0.93970  0.07210  Biso   1.000  O
  O11      1.0000 0.13310  0.92660  0.91790  Biso   1.000  O
  O12      1.0000 0.04160  0.96060  0.57220  Biso   1.000  O
  O13      1.0000 0.58790  0.05870  0.87080  Biso   1.000  O
  O14      1.0000 0.68900  0.07910  0.73420  Biso   1.000  O
  O15      1.0000 0.51960  0.10070  0.60890  Biso   1.000  O
  O16      1.0000 0.45370  0.96070  0.22790  Biso   1.000  O
  C24      1.0000 0.72110  0.33140  0.99170  Biso   1.000  C
  C25      1.0000 0.70030  0.27230  0.98540  Biso   1.000  C
  H22      1.0000 0.69840  0.25440  0.91870  Biso   1.000  H
  C26      1.0000 0.68370  0.24390  0.07720  Biso   1.000  C
  C27      1.0000 0.68830  0.26910  0.17690  Biso   1.000  C
  H23      1.0000 0.67800  0.24840  0.23960  Biso   1.000  H
  C28      1.0000 0.70870  0.32650  0.18350  Biso   1.000  C
  C29      1.0000 0.72690  0.35740  0.08870  Biso   1.000  C
  H24      1.0000 0.74270  0.39500  0.09270  Biso   1.000  H
  C30      1.0000 0.76360  0.41340  0.88970  Biso   1.000  C
  H25      1.0000 0.71560  0.43620  0.93240  Biso   1.000  H
  C31      1.0000 0.87310  0.41960  0.93370  Biso   1.000  C
  C32      1.0000 0.75880  0.43060  0.77390  Biso   1.000  C
  H26      1.0000 0.80980  0.41030  0.73310  Biso   1.000  H
  H27      1.0000 0.77300  0.46960  0.76840  Biso   1.000  H
  H28      1.0000 0.69070  0.42300  0.74560  Biso   1.000  H
  C33      1.0000 0.72360  0.40490  0.30530  Biso   1.000  C
  H29      1.0000 0.78840  0.41650  0.27010  Biso   1.000  H
  C34      1.0000 0.63350  0.43760  0.25770  Biso   1.000  C
  C35      1.0000 0.73260  0.41430  0.42390  Biso   1.000  C
  H30      1.0000 0.67210  0.39960  0.45960  Biso   1.000  H
  H31      1.0000 0.73780  0.45330  0.43810  Biso   1.000  H
  H32      1.0000 0.79370  0.39580  0.45070  Biso   1.000  H
  C36      1.0000 0.66020  0.18210  0.06970  Biso   1.000  C
  C37      1.0000 0.97370  0.04820  0.23610  Biso   1.000  C
  C38      1.0000 0.97240  0.04720  0.34960  Biso   1.000  C
  H33      1.0000 0.95290  0.07880  0.38790  Biso   1.000  H
  C39      1.0000 0.94950  0.10420  0.07600  Biso   1.000  C
  H34      1.0000 0.01500  0.08890  0.04840  Biso   1.000  H
  C40      1.0000 0.85880  0.07510  0.01740  Biso   1.000  C
  C41      1.0000 0.94920  0.16650  0.05490  Biso   1.000  C
  H35      1.0000 0.88440  0.18200  0.07910  Biso   1.000  H
  H36      1.0000 0.95730  0.17320  0.97880  Biso   1.000  H
  H37      1.0000 0.00560  0.18340  0.09360  Biso   1.000  H
  C42      1.0000 0.48720  0.95000  0.45280  Biso   1.000  C
  H38      1.0000 0.47880  0.91650  0.41640  Biso   1.000  H
  C43      1.0000 0.48750  0.95260  0.56240  Biso   1.000  C
  C44      1.0000 0.48960  0.89490  0.72570  Biso   1.000  C
  H39      1.0000 0.55310  0.91380  0.74980  Biso   1.000  H
  C45      1.0000 0.39460  0.92170  0.77950  Biso   1.000  C
  C46      1.0000 0.49600  0.83320  0.75470  Biso   1.000  C
  H40      1.0000 0.43040  0.81570  0.73980  Biso   1.000  H
  H41      1.0000 0.51210  0.82930  0.83030  Biso   1.000  H
  H42      1.0000 0.54960  0.81580  0.71240  Biso   1.000  H
  Nd3      1.0000 0.60178  0.06820  0.05460  Biso   1.000  Nd
  Nd4      1.0000 0.37512  0.41769  0.27481  Biso   1.000  Nd
  O17      1.0000 0.70800  0.34660  0.28700  Biso   1.000  O
  O18      1.0000 0.55330  0.41430  0.23130  Biso   1.000  O
  O19      1.0000 0.65360  0.48930  0.25350  Biso   1.000  O
  O20      1.0000 0.73070  0.35650  0.89330  Biso   1.000  O
  O21      1.0000 0.90210  0.46750  0.95950  Biso   1.000  O
  O22      1.0000 0.93190  0.37930  0.93510  Biso   1.000  O
  O23      1.0000 0.66580  0.15890  0.97960  Biso   1.000  O
  O24      1.0000 0.63770  0.15590  0.15440  Biso   1.000  O
  O25      1.0000 0.94800  0.09750  0.19060  Biso   1.000  O
  O26      1.0000 0.78440  0.06030  0.07210  Biso   1.000  O
  O27      1.0000 0.86690  0.07340  0.91790  Biso   1.000  O
  O28      1.0000 0.95840  0.03940  0.57220  Biso   1.000  O
  O29      1.0000 0.41210  0.94130  0.87080  Biso   1.000  O
  O30      1.0000 0.31100  0.92090  0.73420  Biso   1.000  O
  O31      1.0000 0.48040  0.89930  0.60890  Biso   1.000  O
  O32      1.0000 0.54630  0.03930  0.22790  Biso   1.000  O
  C47      1.0000 0.22110  0.16860  0.00830  Biso   1.000  C
  C48      1.0000 0.20030  0.22770  0.01460  Biso   1.000  C
  H43      1.0000 0.19840  0.24560  0.08130  Biso   1.000  H
  C49      1.0000 0.18370  0.25610  0.92280  Biso   1.000  C
  C50      1.0000 0.18830  0.23090  0.82310  Biso   1.000  C
  H44      1.0000 0.17800  0.25160  0.76040  Biso   1.000  H
  C51      1.0000 0.20870  0.17350  0.81650  Biso   1.000  C
  C52      1.0000 0.22690  0.14260  0.91130  Biso   1.000  C
  H45      1.0000 0.24270  0.10500  0.90730  Biso   1.000  H
  C53      1.0000 0.26360  0.08660  0.11030  Biso   1.000  C
  H46      1.0000 0.21560  0.06380  0.06760  Biso   1.000  H
  C54      1.0000 0.37310  0.08040  0.06630  Biso   1.000  C
  C55      1.0000 0.25880  0.06940  0.22610  Biso   1.000  C
  H47      1.0000 0.30980  0.08970  0.26690  Biso   1.000  H
  H48      1.0000 0.27300  0.03040  0.23160  Biso   1.000  H
  H49      1.0000 0.19070  0.07700  0.25440  Biso   1.000  H
  C56      1.0000 0.22360  0.09510  0.69470  Biso   1.000  C
  H50      1.0000 0.28840  0.08350  0.72990  Biso   1.000  H
  C57      1.0000 0.13350  0.06240  0.74230  Biso   1.000  C
  C58      1.0000 0.23260  0.08570  0.57610  Biso   1.000  C
  H51      1.0000 0.17210  0.10040  0.54040  Biso   1.000  H
  H52      1.0000 0.23780  0.04670  0.56190  Biso   1.000  H
  H53      1.0000 0.29370  0.10420  0.54930  Biso   1.000  H
  C59      1.0000 0.16020  0.31790  0.93030  Biso   1.000  C
  C60      1.0000 0.47370  0.45180  0.76390  Biso   1.000  C
  C61      1.0000 0.47240  0.45280  0.65040  Biso   1.000  C
  H54      1.0000 0.45290  0.42120  0.61210  Biso   1.000  H
  C62      1.0000 0.44950  0.39580  0.92400  Biso   1.000  C
  H55      1.0000 0.51500  0.41110  0.95160  Biso   1.000  H
  C63      1.0000 0.35880  0.42490  0.98260  Biso   1.000  C
  C64      1.0000 0.44920  0.33350  0.94510  Biso   1.000  C
  H56      1.0000 0.38440  0.31800  0.92090  Biso   1.000  H
  H57      1.0000 0.45730  0.32680  0.02120  Biso   1.000  H
  H58      1.0000 0.50560  0.31660  0.90640  Biso   1.000  H
  C65      1.0000 0.98720  0.55000  0.54720  Biso   1.000  C
  H59      1.0000 0.97880  0.58350  0.58360  Biso   1.000  H
  C66      1.0000 0.98750  0.54740  0.43760  Biso   1.000  C
  C67      1.0000 0.98960  0.60510  0.27430  Biso   1.000  C
  H60      1.0000 0.05310  0.58620  0.25020  Biso   1.000  H
  C68      1.0000 0.89460  0.57830  0.22050  Biso   1.000  C
  C69      1.0000 0.99600  0.66680  0.24530  Biso   1.000  C
  H61      1.0000 0.93040  0.68430  0.26020  Biso   1.000  H
  H62      1.0000 0.01210  0.67070  0.16970  Biso   1.000  H
  H63      1.0000 0.04960  0.68420  0.28760  Biso   1.000  H
  Nd5      1.0000 0.10178  0.43180  0.94540  Biso   1.000  Nd
  Nd6      1.0000 0.87512  0.08231  0.72519  Biso   1.000  Nd
  O33      1.0000 0.20800  0.15340  0.71300  Biso   1.000  O
  O34      1.0000 0.05330  0.08570  0.76870  Biso   1.000  O
  O35      1.0000 0.15360  0.01070  0.74650  Biso   1.000  O
  O36      1.0000 0.23070  0.14350  0.10670  Biso   1.000  O
  O37      1.0000 0.40210  0.03250  0.04050  Biso   1.000  O
  O38      1.0000 0.43190  0.12070  0.06490  Biso   1.000  O
  O39      1.0000 0.16580  0.34110  0.02040  Biso   1.000  O
  O40      1.0000 0.13770  0.34410  0.84560  Biso   1.000  O
  O41      1.0000 0.44800  0.40250  0.80940  Biso   1.000  O
  O42      1.0000 0.28440  0.43970  0.92790  Biso   1.000  O
  O43      1.0000 0.36690  0.42660  0.08210  Biso   1.000  O
  O44      1.0000 0.45840  0.46060  0.42780  Biso   1.000  O
  O45      1.0000 0.91210  0.55870  0.12920  Biso   1.000  O
  O46      1.0000 0.81100  0.57910  0.26580  Biso   1.000  O
  O47      1.0000 0.98040  0.60070  0.39110  Biso   1.000  O
  O48      1.0000 0.04630  0.46070  0.77210  Biso   1.000  O
  C70      1.0000 0.77890  0.83140  0.00830  Biso   1.000  C
  C71      1.0000 0.79970  0.77230  0.01460  Biso   1.000  C
  H64      1.0000 0.80160  0.75440  0.08130  Biso   1.000  H
  C72      1.0000 0.81630  0.74390  0.92280  Biso   1.000  C
  C73      1.0000 0.81170  0.76910  0.82310  Biso   1.000  C
  H65      1.0000 0.82200  0.74840  0.76040  Biso   1.000  H
  C74      1.0000 0.79130  0.82650  0.81650  Biso   1.000  C
  C75      1.0000 0.77310  0.85740  0.91130  Biso   1.000  C
  H66      1.0000 0.75730  0.89500  0.90730  Biso   1.000  H
  C76      1.0000 0.73640  0.91340  0.11030  Biso   1.000  C
  H67      1.0000 0.78440  0.93620  0.06760  Biso   1.000  H
  C77      1.0000 0.62690  0.91960  0.06630  Biso   1.000  C
  C78      1.0000 0.74120  0.93060  0.22610  Biso   1.000  C
  H68      1.0000 0.69020  0.91030  0.26690  Biso   1.000  H
  H69      1.0000 0.72700  0.96960  0.23160  Biso   1.000  H
  H70      1.0000 0.80930  0.92300  0.25440  Biso   1.000  H
  C79      1.0000 0.77640  0.90490  0.69470  Biso   1.000  C
  H71      1.0000 0.71160  0.91650  0.72990  Biso   1.000  H
  C80      1.0000 0.86650  0.93760  0.74230  Biso   1.000  C
  C81      1.0000 0.76740  0.91430  0.57610  Biso   1.000  C
  H72      1.0000 0.82790  0.89960  0.54040  Biso   1.000  H
  H73      1.0000 0.76220  0.95330  0.56190  Biso   1.000  H
  H74      1.0000 0.70630  0.89580  0.54930  Biso   1.000  H
  C82      1.0000 0.83980  0.68210  0.93030  Biso   1.000  C
  C83      1.0000 0.52630  0.54820  0.76390  Biso   1.000  C
  C84      1.0000 0.52760  0.54720  0.65040  Biso   1.000  C
  H75      1.0000 0.54710  0.57880  0.61210  Biso   1.000  H
  C85      1.0000 0.55050  0.60420  0.92400  Biso   1.000  C
  H76      1.0000 0.48500  0.58890  0.95160  Biso   1.000  H
  C86      1.0000 0.64120  0.57510  0.98260  Biso   1.000  C
  C87      1.0000 0.55080  0.66650  0.94510  Biso   1.000  C
  H77      1.0000 0.61560  0.68200  0.92090  Biso   1.000  H
  H78      1.0000 0.54270  0.67320  0.02120  Biso   1.000  H
  H79      1.0000 0.49440  0.68340  0.90640  Biso   1.000  H
  C88      1.0000 0.01280  0.45000  0.54720  Biso   1.000  C
  H80      1.0000 0.02120  0.41650  0.58360  Biso   1.000  H
  C89      1.0000 0.01250  0.45260  0.43760  Biso   1.000  C
  C90      1.0000 0.01040  0.39490  0.27430  Biso   1.000  C
  H81      1.0000 0.94690  0.41380  0.25020  Biso   1.000  H
  C91      1.0000 0.10540  0.42170  0.22050  Biso   1.000  C
  C92      1.0000 0.00400  0.33320  0.24530  Biso   1.000  C
  H82      1.0000 0.06960  0.31570  0.26020  Biso   1.000  H
  H83      1.0000 0.98790  0.32930  0.16970  Biso   1.000  H
  H84      1.0000 0.95040  0.31580  0.28760  Biso   1.000  H
  Nd7      1.0000 0.89822  0.56820  0.94540  Biso   1.000  Nd
  Nd8      1.0000 0.12488  0.91769  0.72519  Biso   1.000  Nd
  O49      1.0000 0.79200  0.84660  0.71300  Biso   1.000  O
  O50      1.0000 0.94670  0.91430  0.76870  Biso   1.000  O
  O51      1.0000 0.84640  0.98930  0.74650  Biso   1.000  O
  O52      1.0000 0.76930  0.85650  0.10670  Biso   1.000  O
  O53      1.0000 0.59790  0.96750  0.04050  Biso   1.000  O
  O54      1.0000 0.56810  0.87930  0.06490  Biso   1.000  O
  O55      1.0000 0.83420  0.65890  0.02040  Biso   1.000  O
  O56      1.0000 0.86230  0.65590  0.84560  Biso   1.000  O
  O57      1.0000 0.55200  0.59750  0.80940  Biso   1.000  O
  O58      1.0000 0.71560  0.56030  0.92790  Biso   1.000  O
  O59      1.0000 0.63310  0.57340  0.08210  Biso   1.000  O
  O60      1.0000 0.54160  0.53940  0.42780  Biso   1.000  O
  O61      1.0000 0.08790  0.44130  0.12920  Biso   1.000  O
  O62      1.0000 0.18900  0.42090  0.26580  Biso   1.000  O
  O63      1.0000 0.01960  0.39930  0.39110  Biso   1.000  O
  O64      1.0000 0.95370  0.53930  0.77210  Biso   1.000  O
  C93      1.0000 0.00000  0.00000  0.17740  Biso   1.000  C
  H85      1.0000 0.00000  0.00000  0.10210  Biso   1.000  H
  C94      1.0000 0.00000  0.00000  0.40440  Biso   1.000  C
  C95      1.0000 0.00000  0.00000  0.52570  Biso   1.000  C
  C96      1.0000 0.50000  0.50000  0.82260  Biso   1.000  C
  H86      1.0000 0.50000  0.50000  0.89790  Biso   1.000  H
  C97      1.0000 0.50000  0.50000  0.59560  Biso   1.000  C
  C98      1.0000 0.50000  0.50000  0.47430  Biso   1.000  C
  C99      1.0000 0.50000  0.00000  0.39680  Biso   1.000  C
  C100     1.0000 0.50000  0.00000  0.62090  Biso   1.000  C
  H87      1.0000 0.50000  0.00000  0.69620  Biso   1.000  H
  C101     1.0000 0.50000  0.00000  0.27360  Biso   1.000  C
  C102     1.0000 0.00000  0.50000  0.60320  Biso   1.000  C
  C103     1.0000 0.00000  0.50000  0.37910  Biso   1.000  C
  H88      1.0000 0.00000  0.50000  0.30380  Biso   1.000  H
  C104     1.0000 0.00000  0.50000  0.72640  Biso   1.000  C
