data_image0
_cell_length_a       12.865
_cell_length_b       24.162
_cell_length_c       12.368
_cell_angle_alpha    90
_cell_angle_beta     90
_cell_angle_gamma    90

_symmetry_space_group_name_H-M    "P 1"
_symmetry_int_tables_number       1

loop_
  _symmetry_equiv_pos_as_xyz
  'x, y, z'

loop_
  _atom_site_label
  _atom_site_occupancy
  _atom_site_fract_x
  _atom_site_fract_y
  _atom_site_fract_z
  _atom_site_thermal_displace_type
  _atom_site_B_iso_or_equiv
  _atom_site_type_symbol
  C1       1.0000 0.72220  0.32990  0.50970  Biso   1.000  C
  C2       1.0000 0.70030  0.27260  0.51600  Biso   1.000  C
  H1       1.0000 0.69520  0.25490  0.58260  Biso   1.000  H
  C3       1.0000 0.68670  0.24340  0.42070  Biso   1.000  C
  C4       1.0000 0.69130  0.26950  0.32050  Biso   1.000  C
  H2       1.0000 0.68110  0.24940  0.25720  Biso   1.000  H
  C5       1.0000 0.71150  0.32680  0.31620  Biso   1.000  C
  C6       1.0000 0.72870  0.35670  0.41040  Biso   1.000  C
  H3       1.0000 0.74440  0.39420  0.40710  Biso   1.000  H
  C7       1.0000 0.76300  0.41180  0.61290  Biso   1.000  C
  H4       1.0000 0.71490  0.43410  0.56960  Biso   1.000  H
  C8       1.0000 0.87290  0.41930  0.56970  Biso   1.000  C
  C9       1.0000 0.75560  0.42930  0.72890  Biso   1.000  C
  H5       1.0000 0.80900  0.41120  0.77000  Biso   1.000  H
  H6       1.0000 0.68870  0.41920  0.75710  Biso   1.000  H
  H7       1.0000 0.76440  0.46860  0.73400  Biso   1.000  H
  C10      1.0000 0.72390  0.40640  0.20000  Biso   1.000  C
  H8       1.0000 0.78820  0.41870  0.23500  Biso   1.000  H
  C11      1.0000 0.63390  0.43730  0.24680  Biso   1.000  C
  C12      1.0000 0.73190  0.41650  0.07970  Biso   1.000  C
  H9       1.0000 0.67300  0.40030  0.04400  Biso   1.000  H
  H10      1.0000 0.79450  0.39990  0.05260  Biso   1.000  H
  H11      1.0000 0.73320  0.45560  0.06610  Biso   1.000  H
  C13      1.0000 0.66090  0.18290  0.42530  Biso   1.000  C
  C14      1.0000 0.52670  0.54760  0.74200  Biso   1.000  C
  C15      1.0000 0.52660  0.54750  0.85460  Biso   1.000  C
  H12      1.0000 0.54440  0.57940  0.89250  Biso   1.000  H
  C16      1.0000 0.54760  0.60390  0.58220  Biso   1.000  C
  H13      1.0000 0.48180  0.58840  0.55600  Biso   1.000  H
  C17      1.0000 0.63900  0.57520  0.52180  Biso   1.000  C
  C18      1.0000 0.54880  0.66600  0.56030  Biso   1.000  C
  H14      1.0000 0.61180  0.68170  0.58840  Biso   1.000  H
  H15      1.0000 0.49010  0.68300  0.59500  Biso   1.000  H
  H16      1.0000 0.54520  0.67240  0.48380  Biso   1.000  H
  C19      1.0000 0.98720  0.54850  0.06850  Biso   1.000  C
  C20      1.0000 0.98480  0.54940  0.95680  Biso   1.000  C
  H17      1.0000 0.97330  0.58230  0.91970  Biso   1.000  H
  C21      1.0000 0.98520  0.60390  0.23020  Biso   1.000  C
  H18      1.0000 0.04940  0.58540  0.25290  Biso   1.000  H
  C22      1.0000 0.89500  0.57820  0.28550  Biso   1.000  C
  C23      1.0000 0.99170  0.66490  0.25660  Biso   1.000  C
  H19      1.0000 0.92750  0.68260  0.23720  Biso   1.000  H
  H20      1.0000 0.04780  0.68130  0.21660  Biso   1.000  H
  H21      1.0000 0.00390  0.66950  0.33260  Biso   1.000  H
  Nd1      1.0000 0.89729  0.56812  0.56045  Biso   1.000  Nd
  Nd2      1.0000 0.37584  0.41814  0.23116  Biso   1.000  Nd
  O1       1.0000 0.71310  0.34820  0.21390  Biso   1.000  O
  O2       1.0000 0.55550  0.41320  0.27110  Biso   1.000  O
  O3       1.0000 0.65320  0.48920  0.25500  Biso   1.000  O
  O4       1.0000 0.73190  0.35480  0.60800  Biso   1.000  O
  O5       1.0000 0.90180  0.46759  0.54490  Biso   1.000  O
  O6       1.0000 0.93370  0.37974  0.56970  Biso   1.000  O
  O7       1.0000 0.66740  0.15861  0.51530  Biso   1.000  O
  O8       1.0000 0.63820  0.15710  0.34130  Biso   1.000  O
  O9       1.0000 0.55290  0.59700  0.69580  Biso   1.000  O
  O10      1.0000 0.71430  0.55960  0.57730  Biso   1.000  O
  O11      1.0000 0.62980  0.57240  0.42320  Biso   1.000  O
  O12      1.0000 0.54300  0.53930  0.07730  Biso   1.000  O
  O13      1.0000 0.97500  0.60040  0.11560  Biso   1.000  O
  O14      1.0000 0.91360  0.55830  0.37680  Biso   1.000  O
  O15      1.0000 0.81120  0.57800  0.24260  Biso   1.000  O
  O16      1.0000 0.95370  0.53940  0.73240  Biso   1.000  O
  O17      1.0000 0.31030  0.32920  0.30760  Biso   1.000  O
  H22      1.0000 0.27940  0.30040  0.33020  Biso   1.000  H
  H23      1.0000 0.37300  0.32760  0.32890  Biso   1.000  H
  C24      1.0000 0.27780  0.67010  0.50970  Biso   1.000  C
  C25      1.0000 0.29970  0.72740  0.51600  Biso   1.000  C
  H24      1.0000 0.30480  0.74510  0.58260  Biso   1.000  H
  C26      1.0000 0.31330  0.75660  0.42070  Biso   1.000  C
  C27      1.0000 0.30870  0.73050  0.32050  Biso   1.000  C
  H25      1.0000 0.31890  0.75060  0.25720  Biso   1.000  H
  C28      1.0000 0.28850  0.67320  0.31620  Biso   1.000  C
  C29      1.0000 0.27130  0.64330  0.41040  Biso   1.000  C
  H26      1.0000 0.25560  0.60580  0.40710  Biso   1.000  H
  C30      1.0000 0.23700  0.58820  0.61290  Biso   1.000  C
  H27      1.0000 0.28510  0.56590  0.56960  Biso   1.000  H
  C31      1.0000 0.12710  0.58070  0.56970  Biso   1.000  C
  C32      1.0000 0.24440  0.57070  0.72890  Biso   1.000  C
  H28      1.0000 0.19100  0.58880  0.77000  Biso   1.000  H
  H29      1.0000 0.31130  0.58080  0.75710  Biso   1.000  H
  H30      1.0000 0.23560  0.53140  0.73400  Biso   1.000  H
  C33      1.0000 0.27610  0.59360  0.20000  Biso   1.000  C
  H31      1.0000 0.21180  0.58130  0.23500  Biso   1.000  H
  C34      1.0000 0.36610  0.56270  0.24680  Biso   1.000  C
  C35      1.0000 0.26810  0.58350  0.07970  Biso   1.000  C
  H32      1.0000 0.32700  0.59970  0.04400  Biso   1.000  H
  H33      1.0000 0.20550  0.60010  0.05260  Biso   1.000  H
  H34      1.0000 0.26680  0.54440  0.06610  Biso   1.000  H
  C36      1.0000 0.33910  0.81710  0.42530  Biso   1.000  C
  C37      1.0000 0.47330  0.45240  0.74200  Biso   1.000  C
  C38      1.0000 0.47340  0.45250  0.85460  Biso   1.000  C
  H35      1.0000 0.45560  0.42060  0.89250  Biso   1.000  H
  C39      1.0000 0.45240  0.39610  0.58220  Biso   1.000  C
  H36      1.0000 0.51820  0.41160  0.55600  Biso   1.000  H
  C40      1.0000 0.36100  0.42480  0.52180  Biso   1.000  C
  C41      1.0000 0.45120  0.33400  0.56030  Biso   1.000  C
  H37      1.0000 0.38820  0.31830  0.58840  Biso   1.000  H
  H38      1.0000 0.50990  0.31700  0.59500  Biso   1.000  H
  H39      1.0000 0.45480  0.32760  0.48380  Biso   1.000  H
  C42      1.0000 0.01280  0.45150  0.06850  Biso   1.000  C
  C43      1.0000 0.01520  0.45060  0.95680  Biso   1.000  C
  H40      1.0000 0.02670  0.41770  0.91970  Biso   1.000  H
  C44      1.0000 0.01480  0.39610  0.23020  Biso   1.000  C
  H41      1.0000 0.95060  0.41460  0.25290  Biso   1.000  H
  C45      1.0000 0.10500  0.42180  0.28550  Biso   1.000  C
  C46      1.0000 0.00830  0.33510  0.25660  Biso   1.000  C
  H42      1.0000 0.07250  0.31740  0.23720  Biso   1.000  H
  H43      1.0000 0.95220  0.31870  0.21660  Biso   1.000  H
  H44      1.0000 0.99610  0.33050  0.33260  Biso   1.000  H
  Nd3      1.0000 0.10271  0.43188  0.56045  Biso   1.000  Nd
  Nd4      1.0000 0.62416  0.58186  0.23116  Biso   1.000  Nd
  O18      1.0000 0.28690  0.65180  0.21390  Biso   1.000  O
  O19      1.0000 0.44450  0.58680  0.27110  Biso   1.000  O
  O20      1.0000 0.34680  0.51080  0.25500  Biso   1.000  O
  O21      1.0000 0.26810  0.64520  0.60800  Biso   1.000  O
  O22      1.0000 0.09820  0.53241  0.54490  Biso   1.000  O
  O23      1.0000 0.06630  0.62026  0.56970  Biso   1.000  O
  O24      1.0000 0.33260  0.84139  0.51530  Biso   1.000  O
  O25      1.0000 0.36180  0.84290  0.34130  Biso   1.000  O
  O26      1.0000 0.44710  0.40300  0.69580  Biso   1.000  O
  O27      1.0000 0.28570  0.44040  0.57730  Biso   1.000  O
  O28      1.0000 0.37020  0.42760  0.42320  Biso   1.000  O
  O29      1.0000 0.45700  0.46070  0.07730  Biso   1.000  O
  O30      1.0000 0.02500  0.39960  0.11560  Biso   1.000  O
  O31      1.0000 0.08640  0.44170  0.37680  Biso   1.000  O
  O32      1.0000 0.18880  0.42200  0.24260  Biso   1.000  O
  O33      1.0000 0.04630  0.46060  0.73240  Biso   1.000  O
  O34      1.0000 0.68970  0.67080  0.30760  Biso   1.000  O
  H45      1.0000 0.72060  0.69960  0.33020  Biso   1.000  H
  H46      1.0000 0.62700  0.67240  0.32890  Biso   1.000  H
  C47      1.0000 0.77780  0.82990  0.49030  Biso   1.000  C
  C48      1.0000 0.79970  0.77260  0.48400  Biso   1.000  C
  H47      1.0000 0.80480  0.75490  0.41740  Biso   1.000  H
  C49      1.0000 0.81330  0.74340  0.57930  Biso   1.000  C
  C50      1.0000 0.80870  0.76950  0.67950  Biso   1.000  C
  H48      1.0000 0.81890  0.74940  0.74280  Biso   1.000  H
  C51      1.0000 0.78850  0.82680  0.68380  Biso   1.000  C
  C52      1.0000 0.77130  0.85670  0.58960  Biso   1.000  C
  H49      1.0000 0.75560  0.89420  0.59290  Biso   1.000  H
  C53      1.0000 0.73700  0.91180  0.38710  Biso   1.000  C
  H50      1.0000 0.78510  0.93410  0.43040  Biso   1.000  H
  C54      1.0000 0.62710  0.91930  0.43030  Biso   1.000  C
  C55      1.0000 0.74440  0.92930  0.27110  Biso   1.000  C
  H51      1.0000 0.69100  0.91120  0.23000  Biso   1.000  H
  H52      1.0000 0.81130  0.91920  0.24290  Biso   1.000  H
  H53      1.0000 0.73560  0.96860  0.26600  Biso   1.000  H
  C56      1.0000 0.77610  0.90640  0.80000  Biso   1.000  C
  H54      1.0000 0.71180  0.91870  0.76500  Biso   1.000  H
  C57      1.0000 0.86610  0.93730  0.75320  Biso   1.000  C
  C58      1.0000 0.76810  0.91650  0.92030  Biso   1.000  C
  H55      1.0000 0.82700  0.90030  0.95600  Biso   1.000  H
  H56      1.0000 0.70550  0.89990  0.94740  Biso   1.000  H
  H57      1.0000 0.76680  0.95560  0.93390  Biso   1.000  H
  C59      1.0000 0.83910  0.68290  0.57470  Biso   1.000  C
  C60      1.0000 0.97330  0.04760  0.25800  Biso   1.000  C
  C61      1.0000 0.97340  0.04750  0.14540  Biso   1.000  C
  H58      1.0000 0.95560  0.07940  0.10750  Biso   1.000  H
  C62      1.0000 0.95240  0.10390  0.41780  Biso   1.000  C
  H59      1.0000 0.01820  0.08840  0.44400  Biso   1.000  H
  C63      1.0000 0.86100  0.07520  0.47820  Biso   1.000  C
  C64      1.0000 0.95120  0.16600  0.43970  Biso   1.000  C
  H60      1.0000 0.88820  0.18170  0.41160  Biso   1.000  H
  H61      1.0000 0.00990  0.18300  0.40500  Biso   1.000  H
  H62      1.0000 0.95480  0.17240  0.51620  Biso   1.000  H
  C65      1.0000 0.51280  0.04850  0.93150  Biso   1.000  C
  C66      1.0000 0.51520  0.04940  0.04320  Biso   1.000  C
  H63      1.0000 0.52670  0.08230  0.08030  Biso   1.000  H
  C67      1.0000 0.51480  0.10390  0.76980  Biso   1.000  C
  H64      1.0000 0.45060  0.08540  0.74710  Biso   1.000  H
  C68      1.0000 0.60500  0.07820  0.71450  Biso   1.000  C
  C69      1.0000 0.50830  0.16490  0.74340  Biso   1.000  C
  H65      1.0000 0.57250  0.18260  0.76280  Biso   1.000  H
  H66      1.0000 0.45220  0.18130  0.78340  Biso   1.000  H
  H67      1.0000 0.49610  0.16950  0.66740  Biso   1.000  H
  Nd5      1.0000 0.60271  0.06812  0.43955  Biso   1.000  Nd
  Nd6      1.0000 0.12416  0.91814  0.76884  Biso   1.000  Nd
  O35      1.0000 0.78690  0.84820  0.78610  Biso   1.000  O
  O36      1.0000 0.94450  0.91320  0.72890  Biso   1.000  O
  O37      1.0000 0.84680  0.98920  0.74500  Biso   1.000  O
  O38      1.0000 0.76810  0.85480  0.39200  Biso   1.000  O
  O39      1.0000 0.59820  0.96759  0.45510  Biso   1.000  O
  O40      1.0000 0.56630  0.87974  0.43030  Biso   1.000  O
  O41      1.0000 0.83260  0.65861  0.48470  Biso   1.000  O
  O42      1.0000 0.86180  0.65710  0.65870  Biso   1.000  O
  O43      1.0000 0.94710  0.09700  0.30420  Biso   1.000  O
  O44      1.0000 0.78570  0.05960  0.42270  Biso   1.000  O
  O45      1.0000 0.87020  0.07240  0.57680  Biso   1.000  O
  O46      1.0000 0.95700  0.03930  0.92270  Biso   1.000  O
  O47      1.0000 0.52500  0.10040  0.88440  Biso   1.000  O
  O48      1.0000 0.58640  0.05830  0.62320  Biso   1.000  O
  O49      1.0000 0.68880  0.07800  0.75740  Biso   1.000  O
  O50      1.0000 0.54630  0.03940  0.26760  Biso   1.000  O
  O51      1.0000 0.18970  0.82920  0.69240  Biso   1.000  O
  H68      1.0000 0.22060  0.80040  0.66980  Biso   1.000  H
  H69      1.0000 0.12700  0.82760  0.67110  Biso   1.000  H
  C70      1.0000 0.22220  0.17010  0.49030  Biso   1.000  C
  C71      1.0000 0.20030  0.22740  0.48400  Biso   1.000  C
  H70      1.0000 0.19520  0.24510  0.41740  Biso   1.000  H
  C72      1.0000 0.18670  0.25660  0.57930  Biso   1.000  C
  C73      1.0000 0.19130  0.23050  0.67950  Biso   1.000  C
  H71      1.0000 0.18110  0.25060  0.74280  Biso   1.000  H
  C74      1.0000 0.21150  0.17320  0.68380  Biso   1.000  C
  C75      1.0000 0.22870  0.14330  0.58960  Biso   1.000  C
  H72      1.0000 0.24440  0.10580  0.59290  Biso   1.000  H
  C76      1.0000 0.26300  0.08820  0.38710  Biso   1.000  C
  H73      1.0000 0.21490  0.06590  0.43040  Biso   1.000  H
  C77      1.0000 0.37290  0.08070  0.43030  Biso   1.000  C
  C78      1.0000 0.25560  0.07070  0.27110  Biso   1.000  C
  H74      1.0000 0.30900  0.08880  0.23000  Biso   1.000  H
  H75      1.0000 0.18870  0.08080  0.24290  Biso   1.000  H
  H76      1.0000 0.26440  0.03140  0.26600  Biso   1.000  H
  C79      1.0000 0.22390  0.09360  0.80000  Biso   1.000  C
  H77      1.0000 0.28820  0.08130  0.76500  Biso   1.000  H
  C80      1.0000 0.13390  0.06270  0.75320  Biso   1.000  C
  C81      1.0000 0.23190  0.08350  0.92030  Biso   1.000  C
  H78      1.0000 0.17300  0.09970  0.95600  Biso   1.000  H
  H79      1.0000 0.29450  0.10010  0.94740  Biso   1.000  H
  H80      1.0000 0.23320  0.04440  0.93390  Biso   1.000  H
  C82      1.0000 0.16090  0.31710  0.57470  Biso   1.000  C
  C83      1.0000 0.02670  0.95240  0.25800  Biso   1.000  C
  C84      1.0000 0.02660  0.95250  0.14540  Biso   1.000  C
  H81      1.0000 0.04440  0.92060  0.10750  Biso   1.000  H
  C85      1.0000 0.04760  0.89610  0.41780  Biso   1.000  C
  H82      1.0000 0.98180  0.91160  0.44400  Biso   1.000  H
  C86      1.0000 0.13900  0.92480  0.47820  Biso   1.000  C
  C87      1.0000 0.04880  0.83400  0.43970  Biso   1.000  C
  H83      1.0000 0.11180  0.81830  0.41160  Biso   1.000  H
  H84      1.0000 0.99010  0.81700  0.40500  Biso   1.000  H
  H85      1.0000 0.04520  0.82760  0.51620  Biso   1.000  H
  C88      1.0000 0.48720  0.95150  0.93150  Biso   1.000  C
  C89      1.0000 0.48480  0.95060  0.04320  Biso   1.000  C
  H86      1.0000 0.47330  0.91770  0.08030  Biso   1.000  H
  C90      1.0000 0.48520  0.89610  0.76980  Biso   1.000  C
  H87      1.0000 0.54940  0.91460  0.74710  Biso   1.000  H
  C91      1.0000 0.39500  0.92180  0.71450  Biso   1.000  C
  C92      1.0000 0.49170  0.83510  0.74340  Biso   1.000  C
  H88      1.0000 0.42750  0.81740  0.76280  Biso   1.000  H
  H89      1.0000 0.54780  0.81870  0.78340  Biso   1.000  H
  H90      1.0000 0.50390  0.83050  0.66740  Biso   1.000  H
  Nd7      1.0000 0.39729  0.93188  0.43955  Biso   1.000  Nd
  Nd8      1.0000 0.87584  0.08186  0.76884  Biso   1.000  Nd
  O52      1.0000 0.21310  0.15180  0.78610  Biso   1.000  O
  O53      1.0000 0.05550  0.08680  0.72890  Biso   1.000  O
  O54      1.0000 0.15320  0.01080  0.74500  Biso   1.000  O
  O55      1.0000 0.23190  0.14520  0.39200  Biso   1.000  O
  O56      1.0000 0.40180  0.03241  0.45510  Biso   1.000  O
  O57      1.0000 0.43370  0.12026  0.43030  Biso   1.000  O
  O58      1.0000 0.16740  0.34139  0.48470  Biso   1.000  O
  O59      1.0000 0.13820  0.34290  0.65870  Biso   1.000  O
  O60      1.0000 0.05290  0.90300  0.30420  Biso   1.000  O
  O61      1.0000 0.21430  0.94040  0.42270  Biso   1.000  O
  O62      1.0000 0.12980  0.92760  0.57680  Biso   1.000  O
  O63      1.0000 0.04300  0.96070  0.92270  Biso   1.000  O
  O64      1.0000 0.47500  0.89960  0.88440  Biso   1.000  O
  O65      1.0000 0.41360  0.94170  0.62320  Biso   1.000  O
  O66      1.0000 0.31120  0.92200  0.75740  Biso   1.000  O
  O67      1.0000 0.45370  0.96060  0.26760  Biso   1.000  O
  O68      1.0000 0.81030  0.17080  0.69240  Biso   1.000  O
  H91      1.0000 0.77940  0.19960  0.66980  Biso   1.000  H
  H92      1.0000 0.87300  0.17240  0.67110  Biso   1.000  H
  C93      1.0000 0.50000  0.50000  0.68480  Biso   1.000  C
  H93      1.0000 0.50000  0.50000  0.60970  Biso   1.000  H
  C94      1.0000 0.50000  0.50000  0.90980  Biso   1.000  C
  C95      1.0000 0.50000  0.50000  0.03060  Biso   1.000  C
  C96      1.0000 0.00000  0.00000  0.31520  Biso   1.000  C
  H94      1.0000 0.00000  0.00000  0.39030  Biso   1.000  H
  C97      1.0000 0.00000  0.00000  0.09020  Biso   1.000  C
  C98      1.0000 0.00000  0.00000  0.96940  Biso   1.000  C
  C99      1.0000 0.00000  0.50000  0.12610  Biso   1.000  C
  H95      1.0000 0.00000  0.50000  0.20130  Biso   1.000  H
  C100     1.0000 0.00000  0.50000  0.90100  Biso   1.000  C
  C101     1.0000 0.00000  0.50000  0.78020  Biso   1.000  C
  C102     1.0000 0.50000  0.00000  0.87390  Biso   1.000  C
  H96      1.0000 0.50000  0.00000  0.79870  Biso   1.000  H
  C103     1.0000 0.50000  0.00000  0.09900  Biso   1.000  C
  C104     1.0000 0.50000  0.00000  0.21980  Biso   1.000  C
