data_image0
_cell_length_a       11.921
_cell_length_b       12.527
_cell_length_c       12.552
_cell_angle_alpha    90
_cell_angle_beta     98.87
_cell_angle_gamma    90

_symmetry_space_group_name_H-M    "P 1"
_symmetry_int_tables_number       1

loop_
  _symmetry_equiv_pos_as_xyz
  'x, y, z'

loop_
  _atom_site_label
  _atom_site_occupancy
  _atom_site_fract_x
  _atom_site_fract_y
  _atom_site_fract_z
  _atom_site_thermal_displace_type
  _atom_site_B_iso_or_equiv
  _atom_site_type_symbol
  C1       1.0000 0.48420  0.33900  0.49020  Biso   1.000  C
  C2       1.0000 0.38870  0.37460  0.53090  Biso   1.000  C
  H1       1.0000 0.32660  0.40170  0.48500  Biso   1.000  H
  C3       1.0000 0.38750  0.36900  0.64070  Biso   1.000  C
  C4       1.0000 0.48210  0.33330  0.71140  Biso   1.000  C
  H2       1.0000 0.48040  0.32890  0.78510  Biso   1.000  H
  C5       1.0000 0.57880  0.30440  0.66910  Biso   1.000  C
  C6       1.0000 0.57970  0.30390  0.55960  Biso   1.000  C
  H3       1.0000 0.64340  0.28030  0.53210  Biso   1.000  H
  C7       1.0000 0.48700  0.34120  0.37250  Biso   1.000  C
  C8       1.0000 0.27950  0.38070  0.78450  Biso   1.000  C
  H4       1.0000 0.30320  0.30720  0.80300  Biso   1.000  H
  C9       1.0000 0.35560  0.45700  0.86100  Biso   1.000  C
  C10      1.0000 0.15550  0.39240  0.79750  Biso   1.000  C
  H5       1.0000 0.11060  0.34240  0.75110  Biso   1.000  H
  H6       1.0000 0.13040  0.46370  0.77840  Biso   1.000  H
  H7       1.0000 0.14700  0.37850  0.87100  Biso   1.000  H
  C11      1.0000 0.69140  0.29500  0.84420  Biso   1.000  C
  H8       1.0000 0.65990  0.36560  0.85520  Biso   1.000  H
  C12      1.0000 0.63210  0.21340  0.90640  Biso   1.000  C
  C13      1.0000 0.81850  0.29830  0.88350  Biso   1.000  C
  H9       1.0000 0.85280  0.35140  0.84370  Biso   1.000  H
  H10      1.0000 0.85100  0.22980  0.87270  Biso   1.000  H
  H11      1.0000 0.83200  0.31580  0.95880  Biso   1.000  H
  C14      1.0000 0.02080  0.54650  0.09000  Biso   1.000  C
  C15      1.0000 0.96210  0.54870  0.98770  Biso   1.000  C
  H12      1.0000 0.99930  0.53480  0.92930  Biso   1.000  H
  C16      1.0000 0.84630  0.57170  0.97100  Biso   1.000  C
  C17      1.0000 0.79040  0.59120  0.05740  Biso   1.000  C
  H13      1.0000 0.71310  0.60630  0.04620  Biso   1.000  H
  C18      1.0000 0.85070  0.58810  0.16160  Biso   1.000  C
  C19      1.0000 0.96680  0.56630  0.17900  Biso   1.000  C
  H14      1.0000 0.00740  0.56500  0.24840  Biso   1.000  H
  C20      1.0000 0.14590  0.52000  0.10790  Biso   1.000  C
  C21      1.0000 0.68710  0.57240  0.24980  Biso   1.000  C
  H15      1.0000 0.63640  0.61880  0.20130  Biso   1.000  H
  C22      1.0000 0.67330  0.45750  0.21010  Biso   1.000  C
  C23      1.0000 0.65870  0.58110  0.36200  Biso   1.000  C
  H16      1.0000 0.67500  0.65210  0.38880  Biso   1.000  H
  H17      1.0000 0.70350  0.53080  0.40810  Biso   1.000  H
  H18      1.0000 0.57960  0.56600  0.36080  Biso   1.000  H
  C24      1.0000 0.68170  0.59990  0.83640  Biso   1.000  C
  H19      1.0000 0.63410  0.55350  0.87360  Biso   1.000  H
  C25      1.0000 0.66230  0.71590  0.86420  Biso   1.000  C
  C26      1.0000 0.65110  0.58510  0.71590  Biso   1.000  C
  H20      1.0000 0.66210  0.51180  0.69780  Biso   1.000  H
  H21      1.0000 0.69870  0.62980  0.67970  Biso   1.000  H
  H22      1.0000 0.57300  0.60430  0.69370  Biso   1.000  H
  O1       1.0000 0.56350  0.28610  0.33830  Biso   1.000  O
  O2       1.0000 0.41630  0.39760  0.31450  Biso   1.000  O
  O3       1.0000 0.28800  0.39810  0.67580  Biso   1.000  O
  O4       1.0000 0.37900  0.54450  0.82620  Biso   1.000  O
  O5       1.0000 0.38940  0.42080  0.95420  Biso   1.000  O
  O6       1.0000 0.67810  0.27490  0.73250  Biso   1.000  O
  O7       1.0000 0.62570  0.23770  0.00170  Biso   1.000  O
  O8       1.0000 0.59270  0.12870  0.85970  Biso   1.000  O
  O9       1.0000 0.19570  0.49670  0.19980  Biso   1.000  O
  O10      1.0000 0.19770  0.52170  0.02760  Biso   1.000  O
  O11      1.0000 0.79700  0.57000  0.86450  Biso   1.000  O
  O12      1.0000 0.74330  0.78080  0.87640  Biso   1.000  O
  O13      1.0000 0.56160  0.74560  0.87050  Biso   1.000  O
  O14      1.0000 0.80190  0.60590  0.25150  Biso   1.000  O
  O15      1.0000 0.75030  0.39150  0.23360  Biso   1.000  O
  O16      1.0000 0.57700  0.43170  0.15620  Biso   1.000  O
  O17      1.0000 0.76230  0.16560  0.35080  Biso   1.000  O
  H23      1.0000 0.77010  0.10890  0.31480  Biso   1.000  H
  H24      1.0000 0.80300  0.16080  0.41270  Biso   1.000  H
  Sm1      1.0000 0.37249  0.44591  0.13211  Biso   1.000  Sm
  Sm2      1.0000 0.64169  0.22916  0.18787  Biso   1.000  Sm
  C27      1.0000 0.51580  0.83900  0.50980  Biso   1.000  C
  C28      1.0000 0.61130  0.87460  0.46910  Biso   1.000  C
  H25      1.0000 0.67340  0.90170  0.51500  Biso   1.000  H
  C29      1.0000 0.61250  0.86900  0.35930  Biso   1.000  C
  C30      1.0000 0.51790  0.83330  0.28860  Biso   1.000  C
  H26      1.0000 0.51960  0.82890  0.21490  Biso   1.000  H
  C31      1.0000 0.42120  0.80440  0.33090  Biso   1.000  C
  C32      1.0000 0.42030  0.80390  0.44040  Biso   1.000  C
  H27      1.0000 0.35660  0.78030  0.46790  Biso   1.000  H
  C33      1.0000 0.51300  0.84120  0.62750  Biso   1.000  C
  C34      1.0000 0.72050  0.88070  0.21550  Biso   1.000  C
  H28      1.0000 0.69680  0.80720  0.19700  Biso   1.000  H
  C35      1.0000 0.64440  0.95700  0.13900  Biso   1.000  C
  C36      1.0000 0.84450  0.89240  0.20250  Biso   1.000  C
  H29      1.0000 0.88940  0.84240  0.24890  Biso   1.000  H
  H30      1.0000 0.86960  0.96370  0.22160  Biso   1.000  H
  H31      1.0000 0.85300  0.87850  0.12900  Biso   1.000  H
  C37      1.0000 0.30860  0.79500  0.15580  Biso   1.000  C
  H32      1.0000 0.34010  0.86560  0.14480  Biso   1.000  H
  C38      1.0000 0.36790  0.71340  0.09360  Biso   1.000  C
  C39      1.0000 0.18150  0.79830  0.11650  Biso   1.000  C
  H33      1.0000 0.14720  0.85140  0.15630  Biso   1.000  H
  H34      1.0000 0.14900  0.72980  0.12730  Biso   1.000  H
  H35      1.0000 0.16800  0.81580  0.04120  Biso   1.000  H
  C40      1.0000 0.97920  0.04650  0.91000  Biso   1.000  C
  C41      1.0000 0.03790  0.04870  0.01230  Biso   1.000  C
  H36      1.0000 0.00070  0.03480  0.07070  Biso   1.000  H
  C42      1.0000 0.15370  0.07170  0.02900  Biso   1.000  C
  C43      1.0000 0.20960  0.09120  0.94260  Biso   1.000  C
  H37      1.0000 0.28690  0.10630  0.95380  Biso   1.000  H
  C44      1.0000 0.14930  0.08810  0.83840  Biso   1.000  C
  C45      1.0000 0.03320  0.06630  0.82100  Biso   1.000  C
  H38      1.0000 0.99260  0.06500  0.75160  Biso   1.000  H
  C46      1.0000 0.85410  0.02000  0.89210  Biso   1.000  C
  C47      1.0000 0.31290  0.07240  0.75020  Biso   1.000  C
  H39      1.0000 0.36360  0.11880  0.79870  Biso   1.000  H
  C48      1.0000 0.32670  0.95750  0.78990  Biso   1.000  C
  C49      1.0000 0.34130  0.08110  0.63800  Biso   1.000  C
  H40      1.0000 0.32500  0.15210  0.61120  Biso   1.000  H
  H41      1.0000 0.29650  0.03080  0.59190  Biso   1.000  H
  H42      1.0000 0.42040  0.06600  0.63920  Biso   1.000  H
  C50      1.0000 0.31830  0.09990  0.16360  Biso   1.000  C
  H43      1.0000 0.36590  0.05350  0.12640  Biso   1.000  H
  C51      1.0000 0.33770  0.21590  0.13580  Biso   1.000  C
  C52      1.0000 0.34890  0.08510  0.28410  Biso   1.000  C
  H44      1.0000 0.33790  0.01180  0.30220  Biso   1.000  H
  H45      1.0000 0.30130  0.12980  0.32030  Biso   1.000  H
  H46      1.0000 0.42700  0.10430  0.30630  Biso   1.000  H
  O18      1.0000 0.43650  0.78610  0.66170  Biso   1.000  O
  O19      1.0000 0.58370  0.89760  0.68550  Biso   1.000  O
  O20      1.0000 0.71200  0.89810  0.32420  Biso   1.000  O
  O21      1.0000 0.62100  0.04450  0.17380  Biso   1.000  O
  O22      1.0000 0.61060  0.92080  0.04580  Biso   1.000  O
  O23      1.0000 0.32190  0.77490  0.26750  Biso   1.000  O
  O24      1.0000 0.37430  0.73770  0.99830  Biso   1.000  O
  O25      1.0000 0.40730  0.62870  0.14030  Biso   1.000  O
  O26      1.0000 0.80430  0.99670  0.80020  Biso   1.000  O
  O27      1.0000 0.80230  0.02170  0.97240  Biso   1.000  O
  O28      1.0000 0.20300  0.07000  0.13550  Biso   1.000  O
  O29      1.0000 0.25670  0.28080  0.12360  Biso   1.000  O
  O30      1.0000 0.43840  0.24560  0.12950  Biso   1.000  O
  O31      1.0000 0.19810  0.10590  0.74850  Biso   1.000  O
  O32      1.0000 0.24970  0.89150  0.76640  Biso   1.000  O
  O33      1.0000 0.42300  0.93170  0.84380  Biso   1.000  O
  O34      1.0000 0.23770  0.66560  0.64920  Biso   1.000  O
  H47      1.0000 0.22990  0.60890  0.68520  Biso   1.000  H
  H48      1.0000 0.19700  0.66080  0.58730  Biso   1.000  H
  Sm3      1.0000 0.62751  0.94591  0.86789  Biso   1.000  Sm
  Sm4      1.0000 0.35831  0.72916  0.81213  Biso   1.000  Sm
