data_image0
_cell_length_a       11.888
_cell_length_b       12.475
_cell_length_c       12.542
_cell_angle_alpha    90
_cell_angle_beta     98.94
_cell_angle_gamma    90

_symmetry_space_group_name_H-M    "P 1"
_symmetry_int_tables_number       1

loop_
  _symmetry_equiv_pos_as_xyz
  'x, y, z'

loop_
  _atom_site_label
  _atom_site_occupancy
  _atom_site_fract_x
  _atom_site_fract_y
  _atom_site_fract_z
  _atom_site_thermal_displace_type
  _atom_site_B_iso_or_equiv
  _atom_site_type_symbol
  C1       1.0000 0.48470  0.33970  0.48980  Biso   1.000  C
  C2       1.0000 0.38870  0.37430  0.52890  Biso   1.000  C
  H1       1.0000 0.32600  0.40020  0.48240  Biso   1.000  H
  C3       1.0000 0.38770  0.36950  0.64070  Biso   1.000  C
  C4       1.0000 0.48170  0.33380  0.71110  Biso   1.000  C
  H2       1.0000 0.47980  0.33020  0.78490  Biso   1.000  H
  C5       1.0000 0.57920  0.30350  0.66950  Biso   1.000  C
  C6       1.0000 0.58010  0.30410  0.55880  Biso   1.000  C
  H3       1.0000 0.64410  0.28080  0.53120  Biso   1.000  H
  C7       1.0000 0.48740  0.34140  0.37030  Biso   1.000  C
  C8       1.0000 0.27940  0.38020  0.78520  Biso   1.000  C
  H4       1.0000 0.30320  0.30650  0.80430  Biso   1.000  H
  C9       1.0000 0.35650  0.45790  0.85910  Biso   1.000  C
  C10      1.0000 0.15580  0.39250  0.79690  Biso   1.000  C
  H5       1.0000 0.11100  0.34160  0.75110  Biso   1.000  H
  H6       1.0000 0.13090  0.46380  0.77640  Biso   1.000  H
  H7       1.0000 0.14680  0.37990  0.87060  Biso   1.000  H
  C11      1.0000 0.69290  0.29530  0.84430  Biso   1.000  C
  H8       1.0000 0.66150  0.36640  0.85520  Biso   1.000  H
  C12      1.0000 0.63240  0.21280  0.90700  Biso   1.000  C
  C13      1.0000 0.81870  0.29810  0.88290  Biso   1.000  C
  H9       1.0000 0.85310  0.35160  0.84330  Biso   1.000  H
  H10      1.0000 0.85100  0.22930  0.87160  Biso   1.000  H
  H11      1.0000 0.83250  0.31530  0.95840  Biso   1.000  H
  C14      1.0000 0.02210  0.54650  0.09100  Biso   1.000  C
  C15      1.0000 0.96300  0.54850  0.98740  Biso   1.000  C
  H12      1.0000 0.00030  0.53390  0.92920  Biso   1.000  H
  C16      1.0000 0.84630  0.57250  0.97020  Biso   1.000  C
  C17      1.0000 0.79040  0.59120  0.05720  Biso   1.000  C
  H13      1.0000 0.71280  0.60600  0.04600  Biso   1.000  H
  C18      1.0000 0.85170  0.58760  0.16300  Biso   1.000  C
  C19      1.0000 0.96680  0.56670  0.17970  Biso   1.000  C
  H14      1.0000 0.00750  0.56590  0.24940  Biso   1.000  H
  C20      1.0000 0.14590  0.52040  0.10840  Biso   1.000  C
  C21      1.0000 0.68650  0.57280  0.24780  Biso   1.000  C
  H15      1.0000 0.63580  0.61990  0.19960  Biso   1.000  H
  C22      1.0000 0.67250  0.45860  0.20910  Biso   1.000  C
  C23      1.0000 0.65950  0.58140  0.36380  Biso   1.000  C
  H16      1.0000 0.67390  0.65320  0.38990  Biso   1.000  H
  H17      1.0000 0.70690  0.53240  0.40970  Biso   1.000  H
  H18      1.0000 0.58090  0.56380  0.36410  Biso   1.000  H
  C24      1.0000 0.68180  0.59940  0.83730  Biso   1.000  C
  H19      1.0000 0.63390  0.55220  0.87380  Biso   1.000  H
  C25      1.0000 0.66130  0.71610  0.86420  Biso   1.000  C
  C26      1.0000 0.65270  0.58620  0.71460  Biso   1.000  C
  H20      1.0000 0.66190  0.51250  0.69580  Biso   1.000  H
  H21      1.0000 0.70260  0.63010  0.68000  Biso   1.000  H
  H22      1.0000 0.57520  0.60770  0.69120  Biso   1.000  H
  O1       1.0000 0.56360  0.28520  0.33750  Biso   1.000  O
  O2       1.0000 0.41700  0.39750  0.31330  Biso   1.000  O
  O3       1.0000 0.28810  0.39790  0.67480  Biso   1.000  O
  O4       1.0000 0.37910  0.54550  0.82630  Biso   1.000  O
  O5       1.0000 0.39050  0.42110  0.95390  Biso   1.000  O
  O6       1.0000 0.67880  0.27460  0.73240  Biso   1.000  O
  O7       1.0000 0.62530  0.23840  0.00150  Biso   1.000  O
  O8       1.0000 0.59290  0.12810  0.85990  Biso   1.000  O
  O9       1.0000 0.19740  0.49690  0.20030  Biso   1.000  O
  O10      1.0000 0.19850  0.52210  0.02770  Biso   1.000  O
  O11      1.0000 0.79740  0.57040  0.86450  Biso   1.000  O
  O12      1.0000 0.74290  0.78170  0.87730  Biso   1.000  O
  O13      1.0000 0.56120  0.74520  0.87100  Biso   1.000  O
  O14      1.0000 0.80200  0.60610  0.25150  Biso   1.000  O
  O15      1.0000 0.75000  0.39120  0.23220  Biso   1.000  O
  O16      1.0000 0.57590  0.43150  0.15600  Biso   1.000  O
  O17      1.0000 0.76370  0.16770  0.34980  Biso   1.000  O
  H23      1.0000 0.77150  0.11100  0.31380  Biso   1.000  H
  H24      1.0000 0.80440  0.16290  0.41170  Biso   1.000  H
  Eu1      1.0000 0.37264  0.44573  0.13151  Biso   1.000  Eu
  Eu2      1.0000 0.64118  0.22932  0.18708  Biso   1.000  Eu
  C27      1.0000 0.51530  0.83970  0.51020  Biso   1.000  C
  C28      1.0000 0.61130  0.87430  0.47110  Biso   1.000  C
  H25      1.0000 0.67400  0.90020  0.51760  Biso   1.000  H
  C29      1.0000 0.61230  0.86950  0.35930  Biso   1.000  C
  C30      1.0000 0.51830  0.83380  0.28890  Biso   1.000  C
  H26      1.0000 0.52020  0.83020  0.21510  Biso   1.000  H
  C31      1.0000 0.42080  0.80350  0.33050  Biso   1.000  C
  C32      1.0000 0.41990  0.80410  0.44120  Biso   1.000  C
  H27      1.0000 0.35590  0.78080  0.46880  Biso   1.000  H
  C33      1.0000 0.51260  0.84140  0.62970  Biso   1.000  C
  C34      1.0000 0.72060  0.88020  0.21480  Biso   1.000  C
  H28      1.0000 0.69680  0.80650  0.19570  Biso   1.000  H
  C35      1.0000 0.64350  0.95790  0.14090  Biso   1.000  C
  C36      1.0000 0.84420  0.89250  0.20310  Biso   1.000  C
  H29      1.0000 0.88900  0.84160  0.24890  Biso   1.000  H
  H30      1.0000 0.86910  0.96380  0.22360  Biso   1.000  H
  H31      1.0000 0.85320  0.87990  0.12940  Biso   1.000  H
  C37      1.0000 0.30710  0.79530  0.15570  Biso   1.000  C
  H32      1.0000 0.33850  0.86640  0.14480  Biso   1.000  H
  C38      1.0000 0.36760  0.71280  0.09300  Biso   1.000  C
  C39      1.0000 0.18130  0.79810  0.11710  Biso   1.000  C
  H33      1.0000 0.14690  0.85160  0.15670  Biso   1.000  H
  H34      1.0000 0.14900  0.72930  0.12840  Biso   1.000  H
  H35      1.0000 0.16750  0.81530  0.04160  Biso   1.000  H
  C40      1.0000 0.97790  0.04650  0.90900  Biso   1.000  C
  C41      1.0000 0.03700  0.04850  0.01260  Biso   1.000  C
  H36      1.0000 0.99970  0.03390  0.07080  Biso   1.000  H
  C42      1.0000 0.15370  0.07250  0.02980  Biso   1.000  C
  C43      1.0000 0.20960  0.09120  0.94280  Biso   1.000  C
  H37      1.0000 0.28720  0.10600  0.95400  Biso   1.000  H
  C44      1.0000 0.14830  0.08760  0.83700  Biso   1.000  C
  C45      1.0000 0.03320  0.06670  0.82030  Biso   1.000  C
  H38      1.0000 0.99250  0.06590  0.75060  Biso   1.000  H
  C46      1.0000 0.85410  0.02040  0.89160  Biso   1.000  C
  C47      1.0000 0.31350  0.07280  0.75220  Biso   1.000  C
  H39      1.0000 0.36420  0.11990  0.80040  Biso   1.000  H
  C48      1.0000 0.32750  0.95860  0.79090  Biso   1.000  C
  C49      1.0000 0.34050  0.08140  0.63620  Biso   1.000  C
  H40      1.0000 0.32610  0.15320  0.61010  Biso   1.000  H
  H41      1.0000 0.29310  0.03240  0.59030  Biso   1.000  H
  H42      1.0000 0.41910  0.06380  0.63590  Biso   1.000  H
  C50      1.0000 0.31820  0.09940  0.16270  Biso   1.000  C
  H43      1.0000 0.36610  0.05220  0.12620  Biso   1.000  H
  C51      1.0000 0.33870  0.21610  0.13580  Biso   1.000  C
  C52      1.0000 0.34730  0.08620  0.28540  Biso   1.000  C
  H44      1.0000 0.33810  0.01250  0.30420  Biso   1.000  H
  H45      1.0000 0.29740  0.13010  0.32000  Biso   1.000  H
  H46      1.0000 0.42480  0.10770  0.30880  Biso   1.000  H
  O18      1.0000 0.43640  0.78520  0.66250  Biso   1.000  O
  O19      1.0000 0.58300  0.89750  0.68670  Biso   1.000  O
  O20      1.0000 0.71190  0.89790  0.32520  Biso   1.000  O
  O21      1.0000 0.62090  0.04550  0.17370  Biso   1.000  O
  O22      1.0000 0.60950  0.92110  0.04610  Biso   1.000  O
  O23      1.0000 0.32120  0.77460  0.26760  Biso   1.000  O
  O24      1.0000 0.37470  0.73840  0.99850  Biso   1.000  O
  O25      1.0000 0.40710  0.62810  0.14010  Biso   1.000  O
  O26      1.0000 0.80260  0.99690  0.79970  Biso   1.000  O
  O27      1.0000 0.80150  0.02210  0.97230  Biso   1.000  O
  O28      1.0000 0.20260  0.07040  0.13550  Biso   1.000  O
  O29      1.0000 0.25710  0.28170  0.12270  Biso   1.000  O
  O30      1.0000 0.43880  0.24520  0.12900  Biso   1.000  O
  O31      1.0000 0.19800  0.10610  0.74850  Biso   1.000  O
  O32      1.0000 0.25000  0.89120  0.76780  Biso   1.000  O
  O33      1.0000 0.42410  0.93150  0.84400  Biso   1.000  O
  O34      1.0000 0.23630  0.66770  0.65020  Biso   1.000  O
  H47      1.0000 0.22850  0.61100  0.68620  Biso   1.000  H
  H48      1.0000 0.19560  0.66290  0.58830  Biso   1.000  H
  Eu3      1.0000 0.62736  0.94573  0.86849  Biso   1.000  Eu
  Eu4      1.0000 0.35882  0.72932  0.81292  Biso   1.000  Eu
