data_image0
_cell_length_a       11.931
_cell_length_b       12.485
_cell_length_c       12.549
_cell_angle_alpha    90
_cell_angle_beta     98.63
_cell_angle_gamma    90

_symmetry_space_group_name_H-M    "P 1"
_symmetry_int_tables_number       1

loop_
  _symmetry_equiv_pos_as_xyz
  'x, y, z'

loop_
  _atom_site_label
  _atom_site_occupancy
  _atom_site_fract_x
  _atom_site_fract_y
  _atom_site_fract_z
  _atom_site_thermal_displace_type
  _atom_site_B_iso_or_equiv
  _atom_site_type_symbol
  C1       1.0000 0.51580  0.66080  0.51010  Biso   1.000  C
  C2       1.0000 0.61260  0.62500  0.46900  Biso   1.000  C
  H1       1.0000 0.67510  0.59870  0.51470  Biso   1.000  H
  C3       1.0000 0.61270  0.62990  0.35890  Biso   1.000  C
  C4       1.0000 0.51870  0.66640  0.28980  Biso   1.000  C
  H2       1.0000 0.52070  0.67140  0.21620  Biso   1.000  H
  C5       1.0000 0.42240  0.69540  0.33120  Biso   1.000  C
  C6       1.0000 0.42090  0.69660  0.44130  Biso   1.000  C
  H3       1.0000 0.35740  0.72100  0.46880  Biso   1.000  H
  C7       1.0000 0.51400  0.65870  0.62830  Biso   1.000  C
  C8       1.0000 0.72090  0.61950  0.21400  Biso   1.000  C
  H4       1.0000 0.69770  0.69350  0.19670  Biso   1.000  H
  C9       1.0000 0.64340  0.54410  0.13880  Biso   1.000  C
  C10      1.0000 0.84440  0.60720  0.20060  Biso   1.000  C
  H5       1.0000 0.88930  0.65840  0.24550  Biso   1.000  H
  H6       1.0000 0.85270  0.61930  0.12670  Biso   1.000  H
  H7       1.0000 0.86960  0.53610  0.22130  Biso   1.000  H
  C11      1.0000 0.30970  0.70530  0.15650  Biso   1.000  C
  H8       1.0000 0.34170  0.63450  0.14580  Biso   1.000  H
  C12      1.0000 0.36910  0.78700  0.09560  Biso   1.000  C
  C13      1.0000 0.18150  0.70110  0.11840  Biso   1.000  C
  H9       1.0000 0.14860  0.64540  0.15640  Biso   1.000  H
  H10      1.0000 0.16750  0.68650  0.04240  Biso   1.000  H
  H11      1.0000 0.14820  0.76860  0.13240  Biso   1.000  H
  C14      1.0000 0.97850  0.45290  0.90920  Biso   1.000  C
  C15      1.0000 0.03650  0.45080  0.01210  Biso   1.000  C
  H12      1.0000 0.99900  0.46510  0.07040  Biso   1.000  H
  C16      1.0000 0.15160  0.42720  0.02870  Biso   1.000  C
  C17      1.0000 0.20930  0.40920  0.94240  Biso   1.000  C
  H13      1.0000 0.28690  0.39580  0.95360  Biso   1.000  H
  C18      1.0000 0.14800  0.41160  0.83780  Biso   1.000  C
  C19      1.0000 0.03350  0.43440  0.82050  Biso   1.000  C
  H14      1.0000 0.99370  0.43730  0.75090  Biso   1.000  H
  C20      1.0000 0.85450  0.47880  0.89110  Biso   1.000  C
  C21      1.0000 0.31280  0.42770  0.75180  Biso   1.000  C
  H15      1.0000 0.36240  0.38020  0.80000  Biso   1.000  H
  C22      1.0000 0.32870  0.54230  0.79090  Biso   1.000  C
  C23      1.0000 0.34190  0.41950  0.63740  Biso   1.000  C
  H16      1.0000 0.32250  0.34940  0.60900  Biso   1.000  H
  H17      1.0000 0.42170  0.43160  0.63900  Biso   1.000  H
  H18      1.0000 0.29990  0.47240  0.59240  Biso   1.000  H
  C24      1.0000 0.31690  0.40020  0.16220  Biso   1.000  C
  H19      1.0000 0.36420  0.44680  0.12450  Biso   1.000  H
  C25      1.0000 0.33690  0.28410  0.13540  Biso   1.000  C
  C26      1.0000 0.34590  0.41650  0.28290  Biso   1.000  C
  H20      1.0000 0.32260  0.48680  0.30140  Biso   1.000  H
  H21      1.0000 0.42620  0.40910  0.30420  Biso   1.000  H
  H22      1.0000 0.30720  0.36380  0.31960  Biso   1.000  H
  O1       1.0000 0.43770  0.71360  0.66280  Biso   1.000  O
  O2       1.0000 0.58560  0.60240  0.68640  Biso   1.000  O
  O3       1.0000 0.71190  0.59990  0.32360  Biso   1.000  O
  O4       1.0000 0.61870  0.45460  0.17250  Biso   1.000  O
  O5       1.0000 0.61050  0.58000  0.04530  Biso   1.000  O
  O6       1.0000 0.32330  0.72660  0.26880  Biso   1.000  O
  O7       1.0000 0.37440  0.76260  0.99890  Biso   1.000  O
  O8       1.0000 0.40690  0.87110  0.14020  Biso   1.000  O
  O9       1.0000 0.80350  0.50240  0.79880  Biso   1.000  O
  O10      1.0000 0.80150  0.47740  0.97250  Biso   1.000  O
  O11      1.0000 0.20120  0.42880  0.13430  Biso   1.000  O
  O12      1.0000 0.25730  0.21810  0.12300  Biso   1.000  O
  O13      1.0000 0.43790  0.25480  0.12980  Biso   1.000  O
  O14      1.0000 0.19800  0.39510  0.74760  Biso   1.000  O
  O15      1.0000 0.25070  0.60890  0.76800  Biso   1.000  O
  O16      1.0000 0.42470  0.56940  0.84450  Biso   1.000  O
  O17      1.0000 0.24500  0.83890  0.65150  Biso   1.000  O
  H23      1.0000 0.23720  0.89590  0.68760  Biso   1.000  H
  H24      1.0000 0.20420  0.84370  0.58940  Biso   1.000  H
  Eu1      1.0000 0.62780  0.55415  0.86776  Biso   1.000  Eu
  Eu2      1.0000 0.36023  0.77079  0.81338  Biso   1.000  Eu
  C27      1.0000 0.48420  0.16080  0.48990  Biso   1.000  C
  C28      1.0000 0.38740  0.12500  0.53100  Biso   1.000  C
  H25      1.0000 0.32490  0.09870  0.48530  Biso   1.000  H
  C29      1.0000 0.38730  0.12990  0.64110  Biso   1.000  C
  C30      1.0000 0.48130  0.16640  0.71020  Biso   1.000  C
  H26      1.0000 0.47930  0.17140  0.78380  Biso   1.000  H
  C31      1.0000 0.57760  0.19540  0.66880  Biso   1.000  C
  C32      1.0000 0.57910  0.19660  0.55870  Biso   1.000  C
  H27      1.0000 0.64260  0.22100  0.53120  Biso   1.000  H
  C33      1.0000 0.48600  0.15870  0.37170  Biso   1.000  C
  C34      1.0000 0.27910  0.11950  0.78600  Biso   1.000  C
  H28      1.0000 0.30230  0.19350  0.80330  Biso   1.000  H
  C35      1.0000 0.35660  0.04410  0.86120  Biso   1.000  C
  C36      1.0000 0.15560  0.10720  0.79940  Biso   1.000  C
  H29      1.0000 0.11070  0.15840  0.75450  Biso   1.000  H
  H30      1.0000 0.14730  0.11930  0.87330  Biso   1.000  H
  H31      1.0000 0.13040  0.03610  0.77870  Biso   1.000  H
  C37      1.0000 0.69030  0.20530  0.84350  Biso   1.000  C
  H32      1.0000 0.65830  0.13450  0.85420  Biso   1.000  H
  C38      1.0000 0.63090  0.28700  0.90440  Biso   1.000  C
  C39      1.0000 0.81850  0.20110  0.88160  Biso   1.000  C
  H33      1.0000 0.85140  0.14540  0.84360  Biso   1.000  H
  H34      1.0000 0.83250  0.18650  0.95760  Biso   1.000  H
  H35      1.0000 0.85180  0.26860  0.86760  Biso   1.000  H
  C40      1.0000 0.02150  0.95290  0.09080  Biso   1.000  C
  C41      1.0000 0.96350  0.95080  0.98790  Biso   1.000  C
  H36      1.0000 0.00100  0.96510  0.92960  Biso   1.000  H
  C42      1.0000 0.84840  0.92720  0.97130  Biso   1.000  C
  C43      1.0000 0.79070  0.90920  0.05760  Biso   1.000  C
  H37      1.0000 0.71310  0.89580  0.04640  Biso   1.000  H
  C44      1.0000 0.85200  0.91160  0.16220  Biso   1.000  C
  C45      1.0000 0.96650  0.93440  0.17950  Biso   1.000  C
  H38      1.0000 0.00630  0.93730  0.24910  Biso   1.000  H
  C46      1.0000 0.14550  0.97880  0.10890  Biso   1.000  C
  C47      1.0000 0.68720  0.92770  0.24820  Biso   1.000  C
  H39      1.0000 0.63760  0.88020  0.20000  Biso   1.000  H
  C48      1.0000 0.67130  0.04230  0.20910  Biso   1.000  C
  C49      1.0000 0.65810  0.91950  0.36260  Biso   1.000  C
  H40      1.0000 0.67750  0.84940  0.39100  Biso   1.000  H
  H41      1.0000 0.57830  0.93160  0.36100  Biso   1.000  H
  H42      1.0000 0.70010  0.97240  0.40760  Biso   1.000  H
  C50      1.0000 0.68310  0.90020  0.83780  Biso   1.000  C
  H43      1.0000 0.63580  0.94680  0.87550  Biso   1.000  H
  C51      1.0000 0.66310  0.78410  0.86460  Biso   1.000  C
  C52      1.0000 0.65410  0.91650  0.71710  Biso   1.000  C
  H44      1.0000 0.67740  0.98680  0.69860  Biso   1.000  H
  H45      1.0000 0.57380  0.90910  0.69580  Biso   1.000  H
  H46      1.0000 0.69280  0.86380  0.68040  Biso   1.000  H
  O18      1.0000 0.56230  0.21360  0.33720  Biso   1.000  O
  O19      1.0000 0.41440  0.10240  0.31360  Biso   1.000  O
  O20      1.0000 0.28810  0.09990  0.67640  Biso   1.000  O
  O21      1.0000 0.38130  0.95460  0.82750  Biso   1.000  O
  O22      1.0000 0.38950  0.08000  0.95470  Biso   1.000  O
  O23      1.0000 0.67670  0.22660  0.73120  Biso   1.000  O
  O24      1.0000 0.62560  0.26260  0.00110  Biso   1.000  O
  O25      1.0000 0.59310  0.37110  0.85980  Biso   1.000  O
  O26      1.0000 0.19650  0.00240  0.20120  Biso   1.000  O
  O27      1.0000 0.19850  0.97740  0.02750  Biso   1.000  O
  O28      1.0000 0.79880  0.92880  0.86570  Biso   1.000  O
  O29      1.0000 0.74270  0.71810  0.87700  Biso   1.000  O
  O30      1.0000 0.56210  0.75480  0.87020  Biso   1.000  O
  O31      1.0000 0.80200  0.89510  0.25240  Biso   1.000  O
  O32      1.0000 0.74930  0.10890  0.23200  Biso   1.000  O
  O33      1.0000 0.57530  0.06940  0.15550  Biso   1.000  O
  O34      1.0000 0.75500  0.33890  0.34850  Biso   1.000  O
  H47      1.0000 0.76280  0.39590  0.31240  Biso   1.000  H
  H48      1.0000 0.79580  0.34370  0.41060  Biso   1.000  H
  Eu3      1.0000 0.37220  0.05415  0.13224  Biso   1.000  Eu
  Eu4      1.0000 0.63977  0.27079  0.18662  Biso   1.000  Eu
