data_image0
_cell_length_a       9.135
_cell_length_b       16.137
_cell_length_c       19.968
_cell_angle_alpha    90
_cell_angle_beta     90
_cell_angle_gamma    90

_symmetry_space_group_name_H-M    "P 1"
_symmetry_int_tables_number       1

loop_
  _symmetry_equiv_pos_as_xyz
  'x, y, z'

loop_
  _atom_site_label
  _atom_site_occupancy
  _atom_site_fract_x
  _atom_site_fract_y
  _atom_site_fract_z
  _atom_site_thermal_displace_type
  _atom_site_B_iso_or_equiv
  _atom_site_type_symbol
  Fe1      1.0000 0.92600  0.66000  0.26300  Biso   1.000  Fe
  O1       1.0000 0.86600  0.44500  0.33600  Biso   1.000  O
  O2       1.0000 0.97300  0.56900  0.33400  Biso   1.000  O
  O3       1.0000 0.78500  0.69000  0.33000  Biso   1.000  O
  O4       1.0000 0.58200  0.74800  0.29900  Biso   1.000  O
  O5       1.0000 0.51600  0.58400  0.32400  Biso   1.000  O
  O6       1.0000 0.58100  0.45200  0.32800  Biso   1.000  O
  C1       1.0000 0.92400  0.50900  0.37100  Biso   1.000  C
  C2       1.0000 0.66300  0.72100  0.34600  Biso   1.000  C
  C3       1.0000 0.50700  0.51300  0.35100  Biso   1.000  C
  C4       1.0000 0.53000  0.50700  0.46900  Biso   1.000  C
  C5       1.0000 0.43700  0.50300  0.41300  Biso   1.000  C
  C6       1.0000 0.03800  0.47300  0.41400  Biso   1.000  C
  C7       1.0000 0.05000  0.47500  0.48300  Biso   1.000  C
  C8       1.0000 0.65300  0.76700  0.40800  Biso   1.000  C
  C9       1.0000 0.64800  0.72700  0.46900  Biso   1.000  C
  Fe2      1.0000 0.92600  0.84000  0.73700  Biso   1.000  Fe
  O7       1.0000 0.86600  0.05500  0.66400  Biso   1.000  O
  O8       1.0000 0.97300  0.93100  0.66600  Biso   1.000  O
  O9       1.0000 0.78500  0.81000  0.67000  Biso   1.000  O
  O10      1.0000 0.58200  0.75200  0.70100  Biso   1.000  O
  O11      1.0000 0.51600  0.91600  0.67600  Biso   1.000  O
  O12      1.0000 0.58100  0.04800  0.67200  Biso   1.000  O
  C10      1.0000 0.92400  0.99100  0.62900  Biso   1.000  C
  C11      1.0000 0.66300  0.77900  0.65400  Biso   1.000  C
  C12      1.0000 0.50700  0.98700  0.64900  Biso   1.000  C
  C13      1.0000 0.53000  0.99300  0.53100  Biso   1.000  C
  C14      1.0000 0.43700  0.99700  0.58700  Biso   1.000  C
  C15      1.0000 0.03800  0.02700  0.58600  Biso   1.000  C
  C16      1.0000 0.05000  0.02500  0.51700  Biso   1.000  C
  C17      1.0000 0.65300  0.73300  0.59200  Biso   1.000  C
  C18      1.0000 0.64800  0.77300  0.53100  Biso   1.000  C
  Fe3      1.0000 0.57400  0.84000  0.76300  Biso   1.000  Fe
  O13      1.0000 0.63400  0.05500  0.83600  Biso   1.000  O
  O14      1.0000 0.52700  0.93100  0.83400  Biso   1.000  O
  O15      1.0000 0.71500  0.81000  0.83000  Biso   1.000  O
  O16      1.0000 0.91800  0.75200  0.79900  Biso   1.000  O
  O17      1.0000 0.98400  0.91600  0.82400  Biso   1.000  O
  O18      1.0000 0.91900  0.04800  0.82800  Biso   1.000  O
  C19      1.0000 0.57600  0.99100  0.87100  Biso   1.000  C
  C20      1.0000 0.83700  0.77900  0.84600  Biso   1.000  C
  C21      1.0000 0.99300  0.98700  0.85100  Biso   1.000  C
  C22      1.0000 0.97000  0.99300  0.96900  Biso   1.000  C
  C23      1.0000 0.06300  0.99700  0.91300  Biso   1.000  C
  C24      1.0000 0.46200  0.02700  0.91400  Biso   1.000  C
  C25      1.0000 0.45000  0.02500  0.98300  Biso   1.000  C
  C26      1.0000 0.84700  0.73300  0.90800  Biso   1.000  C
  C27      1.0000 0.85200  0.77300  0.96900  Biso   1.000  C
  Fe4      1.0000 0.57400  0.66000  0.23700  Biso   1.000  Fe
  O19      1.0000 0.63400  0.44500  0.16400  Biso   1.000  O
  O20      1.0000 0.52700  0.56900  0.16600  Biso   1.000  O
  O21      1.0000 0.71500  0.69000  0.17000  Biso   1.000  O
  O22      1.0000 0.91800  0.74800  0.20100  Biso   1.000  O
  O23      1.0000 0.98400  0.58400  0.17600  Biso   1.000  O
  O24      1.0000 0.91900  0.45200  0.17200  Biso   1.000  O
  C28      1.0000 0.57600  0.50900  0.12900  Biso   1.000  C
  C29      1.0000 0.83700  0.72100  0.15400  Biso   1.000  C
  C30      1.0000 0.99300  0.51300  0.14900  Biso   1.000  C
  C31      1.0000 0.97000  0.50700  0.03100  Biso   1.000  C
  C32      1.0000 0.06300  0.50300  0.08700  Biso   1.000  C
  C33      1.0000 0.46200  0.47300  0.08600  Biso   1.000  C
  C34      1.0000 0.45000  0.47500  0.01700  Biso   1.000  C
  C35      1.0000 0.84700  0.76700  0.09200  Biso   1.000  C
  C36      1.0000 0.85200  0.72700  0.03100  Biso   1.000  C
  Fe5      1.0000 0.07400  0.34000  0.73700  Biso   1.000  Fe
  O25      1.0000 0.13400  0.55500  0.66400  Biso   1.000  O
  O26      1.0000 0.02700  0.43100  0.66600  Biso   1.000  O
  O27      1.0000 0.21500  0.31000  0.67000  Biso   1.000  O
  O28      1.0000 0.41800  0.25200  0.70100  Biso   1.000  O
  O29      1.0000 0.48400  0.41600  0.67600  Biso   1.000  O
  O30      1.0000 0.41900  0.54800  0.67200  Biso   1.000  O
  C37      1.0000 0.07600  0.49100  0.62900  Biso   1.000  C
  C38      1.0000 0.33700  0.27900  0.65400  Biso   1.000  C
  C39      1.0000 0.49300  0.48700  0.64900  Biso   1.000  C
  C40      1.0000 0.47000  0.49300  0.53100  Biso   1.000  C
  C41      1.0000 0.56300  0.49700  0.58700  Biso   1.000  C
  C42      1.0000 0.96200  0.52700  0.58600  Biso   1.000  C
  C43      1.0000 0.95000  0.52500  0.51700  Biso   1.000  C
  C44      1.0000 0.34700  0.23300  0.59200  Biso   1.000  C
  C45      1.0000 0.35200  0.27300  0.53100  Biso   1.000  C
  Fe6      1.0000 0.07400  0.16000  0.26300  Biso   1.000  Fe
  O31      1.0000 0.13400  0.94500  0.33600  Biso   1.000  O
  O32      1.0000 0.02700  0.06900  0.33400  Biso   1.000  O
  O33      1.0000 0.21500  0.19000  0.33000  Biso   1.000  O
  O34      1.0000 0.41800  0.24800  0.29900  Biso   1.000  O
  O35      1.0000 0.48400  0.08400  0.32400  Biso   1.000  O
  O36      1.0000 0.41900  0.95200  0.32800  Biso   1.000  O
  C46      1.0000 0.07600  0.00900  0.37100  Biso   1.000  C
  C47      1.0000 0.33700  0.22100  0.34600  Biso   1.000  C
  C48      1.0000 0.49300  0.01300  0.35100  Biso   1.000  C
  C49      1.0000 0.47000  0.00700  0.46900  Biso   1.000  C
  C50      1.0000 0.56300  0.00300  0.41300  Biso   1.000  C
  C51      1.0000 0.96200  0.97300  0.41400  Biso   1.000  C
  C52      1.0000 0.95000  0.97500  0.48300  Biso   1.000  C
  C53      1.0000 0.34700  0.26700  0.40800  Biso   1.000  C
  C54      1.0000 0.35200  0.22700  0.46900  Biso   1.000  C
  Fe7      1.0000 0.42600  0.16000  0.23700  Biso   1.000  Fe
  O37      1.0000 0.36600  0.94500  0.16400  Biso   1.000  O
  O38      1.0000 0.47300  0.06900  0.16600  Biso   1.000  O
  O39      1.0000 0.28500  0.19000  0.17000  Biso   1.000  O
  O40      1.0000 0.08200  0.24800  0.20100  Biso   1.000  O
  O41      1.0000 0.01600  0.08400  0.17600  Biso   1.000  O
  O42      1.0000 0.08100  0.95200  0.17200  Biso   1.000  O
  C55      1.0000 0.42400  0.00900  0.12900  Biso   1.000  C
  C56      1.0000 0.16300  0.22100  0.15400  Biso   1.000  C
  C57      1.0000 0.00700  0.01300  0.14900  Biso   1.000  C
  C58      1.0000 0.03000  0.00700  0.03100  Biso   1.000  C
  C59      1.0000 0.93700  0.00300  0.08700  Biso   1.000  C
  C60      1.0000 0.53800  0.97300  0.08600  Biso   1.000  C
  C61      1.0000 0.55000  0.97500  0.01700  Biso   1.000  C
  C62      1.0000 0.15300  0.26700  0.09200  Biso   1.000  C
  C63      1.0000 0.14800  0.22700  0.03100  Biso   1.000  C
  Fe8      1.0000 0.42600  0.34000  0.76300  Biso   1.000  Fe
  O43      1.0000 0.36600  0.55500  0.83600  Biso   1.000  O
  O44      1.0000 0.47300  0.43100  0.83400  Biso   1.000  O
  O45      1.0000 0.28500  0.31000  0.83000  Biso   1.000  O
  O46      1.0000 0.08200  0.25200  0.79900  Biso   1.000  O
  O47      1.0000 0.01600  0.41600  0.82400  Biso   1.000  O
  O48      1.0000 0.08100  0.54800  0.82800  Biso   1.000  O
  C64      1.0000 0.42400  0.49100  0.87100  Biso   1.000  C
  C65      1.0000 0.16300  0.27900  0.84600  Biso   1.000  C
  C66      1.0000 0.00700  0.48700  0.85100  Biso   1.000  C
  C67      1.0000 0.03000  0.49300  0.96900  Biso   1.000  C
  C68      1.0000 0.93700  0.49700  0.91300  Biso   1.000  C
  C69      1.0000 0.53800  0.52700  0.91400  Biso   1.000  C
  C70      1.0000 0.55000  0.52500  0.98300  Biso   1.000  C
  C71      1.0000 0.15300  0.23300  0.90800  Biso   1.000  C
  C72      1.0000 0.14800  0.27300  0.96900  Biso   1.000  C
  Fe9      1.0000 0.75000  0.44100  0.25000  Biso   1.000  Fe
  O49      1.0000 0.75000  0.57000  0.25000  Biso   1.000  O
  Fe10     1.0000 0.75000  0.05900  0.75000  Biso   1.000  Fe
  O50      1.0000 0.75000  0.93000  0.75000  Biso   1.000  O
  Fe11     1.0000 0.25000  0.55900  0.75000  Biso   1.000  Fe
  O51      1.0000 0.25000  0.43000  0.75000  Biso   1.000  O
  Fe12     1.0000 0.25000  0.94100  0.25000  Biso   1.000  Fe
  O52      1.0000 0.25000  0.07000  0.25000  Biso   1.000  O
