data_image0
_cell_length_a       11.184
_cell_length_b       11.184
_cell_length_c       14.591
_cell_angle_alpha    90
_cell_angle_beta     90
_cell_angle_gamma    120

_symmetry_space_group_name_H-M    "P 1"
_symmetry_int_tables_number       1

loop_
  _symmetry_equiv_pos_as_xyz
  'x, y, z'

loop_
  _atom_site_label
  _atom_site_occupancy
  _atom_site_fract_x
  _atom_site_fract_y
  _atom_site_fract_z
  _atom_site_thermal_displace_type
  _atom_site_B_iso_or_equiv
  _atom_site_type_symbol
  O1       1.0000 0.89300  0.37000  0.15100  Biso   1.000  O
  O2       1.0000 0.88100  0.55900  0.15400  Biso   1.000  O
  C1       1.0000 0.91900  0.48200  0.11400  Biso   1.000  C
  C2       1.0000 0.93500  0.48200  0.01900  Biso   1.000  C
  O3       1.0000 0.63000  0.52300  0.15100  Biso   1.000  O
  O4       1.0000 0.44100  0.32200  0.15400  Biso   1.000  O
  C3       1.0000 0.51800  0.43700  0.11400  Biso   1.000  C
  C4       1.0000 0.51800  0.45300  0.01900  Biso   1.000  C
  O5       1.0000 0.47700  0.10700  0.15100  Biso   1.000  O
  O6       1.0000 0.67800  0.11900  0.15400  Biso   1.000  O
  C5       1.0000 0.56300  0.08100  0.11400  Biso   1.000  C
  C6       1.0000 0.54700  0.06500  0.01900  Biso   1.000  C
  O7       1.0000 0.89300  0.37000  0.34900  Biso   1.000  O
  O8       1.0000 0.88100  0.55900  0.34600  Biso   1.000  O
  C7       1.0000 0.91900  0.48200  0.38600  Biso   1.000  C
  C8       1.0000 0.93500  0.48200  0.48100  Biso   1.000  C
  O9       1.0000 0.63000  0.52300  0.34900  Biso   1.000  O
  O10      1.0000 0.44100  0.32200  0.34600  Biso   1.000  O
  C9       1.0000 0.51800  0.43700  0.38600  Biso   1.000  C
  C10      1.0000 0.51800  0.45300  0.48100  Biso   1.000  C
  O11      1.0000 0.47700  0.10700  0.34900  Biso   1.000  O
  O12      1.0000 0.67800  0.11900  0.34600  Biso   1.000  O
  C11      1.0000 0.56300  0.08100  0.38600  Biso   1.000  C
  C12      1.0000 0.54700  0.06500  0.48100  Biso   1.000  C
  O13      1.0000 0.37000  0.89300  0.84900  Biso   1.000  O
  O14      1.0000 0.55900  0.88100  0.84600  Biso   1.000  O
  C13      1.0000 0.48200  0.91900  0.88600  Biso   1.000  C
  C14      1.0000 0.48200  0.93500  0.98100  Biso   1.000  C
  O15      1.0000 0.52300  0.63000  0.84900  Biso   1.000  O
  O16      1.0000 0.32200  0.44100  0.84600  Biso   1.000  O
  C15      1.0000 0.43700  0.51800  0.88600  Biso   1.000  C
  C16      1.0000 0.45300  0.51800  0.98100  Biso   1.000  C
  O17      1.0000 0.10700  0.47700  0.84900  Biso   1.000  O
  O18      1.0000 0.11900  0.67800  0.84600  Biso   1.000  O
  C17      1.0000 0.08100  0.56300  0.88600  Biso   1.000  C
  C18      1.0000 0.06500  0.54700  0.98100  Biso   1.000  C
  O19      1.0000 0.37000  0.89300  0.65100  Biso   1.000  O
  O20      1.0000 0.55900  0.88100  0.65400  Biso   1.000  O
  C19      1.0000 0.48200  0.91900  0.61400  Biso   1.000  C
  C20      1.0000 0.48200  0.93500  0.51900  Biso   1.000  C
  O21      1.0000 0.52300  0.63000  0.65100  Biso   1.000  O
  O22      1.0000 0.32200  0.44100  0.65400  Biso   1.000  O
  C21      1.0000 0.43700  0.51800  0.61400  Biso   1.000  C
  C22      1.0000 0.45300  0.51800  0.51900  Biso   1.000  C
  O23      1.0000 0.10700  0.47700  0.65100  Biso   1.000  O
  O24      1.0000 0.11900  0.67800  0.65400  Biso   1.000  O
  C23      1.0000 0.08100  0.56300  0.61400  Biso   1.000  C
  C24      1.0000 0.06500  0.54700  0.51900  Biso   1.000  C
  Fe1      1.0000 0.76900  0.23700  0.25000  Biso   1.000  Fe
  Fe2      1.0000 0.76300  0.53200  0.25000  Biso   1.000  Fe
  Fe3      1.0000 0.46800  0.23100  0.25000  Biso   1.000  Fe
  Fe4      1.0000 0.23700  0.76900  0.75000  Biso   1.000  Fe
  Fe5      1.0000 0.53200  0.76300  0.75000  Biso   1.000  Fe
  Fe6      1.0000 0.23100  0.46800  0.75000  Biso   1.000  Fe
  O25      1.0000 0.66667  0.33333  0.25000  Biso   1.000  O
  O26      1.0000 0.33333  0.66667  0.75000  Biso   1.000  O
