data_FAVZEJ_clean
_audit_creation_date              2014-07-02
_audit_creation_method            'Materials Studio'
_symmetry_space_group_name_H-M    'P1'
_symmetry_Int_Tables_number       1
_symmetry_cell_setting            triclinic
loop_
_symmetry_equiv_pos_as_xyz
  x,y,z
_cell_length_a                    6.5647
_cell_length_b                    6.5647
_cell_length_c                    11.3470
_cell_angle_alpha                 99.8167
_cell_angle_beta                  99.8167
_cell_angle_gamma                 102.9130
loop_
_atom_site_label
_atom_site_type_symbol
_atom_site_fract_x
_atom_site_fract_y
_atom_site_fract_z
_atom_site_U_iso_or_equiv
_atom_site_adp_type
_atom_site_occupancy
Ag1    Ag    0.73801   0.01231   0.74605   0.01267  Uiso   1.00
Ag2    Ag    0.01231   0.73801   0.24605   0.01267  Uiso   1.00
H1     H     0.66520   0.68120   0.51870   0.01267  Uiso   1.00
H2     H     0.72630   0.66110   0.39760   0.01267  Uiso   1.00
H3     H     0.18590   0.99910   0.88070   0.01267  Uiso   1.00
H4     H     0.41480   0.05900   0.87230   0.01267  Uiso   1.00
H5     H     0.41470   0.98610   0.37410   0.01267  Uiso   1.00
H6     H     0.58460   0.07140   0.48840   0.01267  Uiso   1.00
H7     H     0.68120   0.66520   0.01870   0.01267  Uiso   1.00
H8     H     0.66110   0.72630   0.89760   0.01267  Uiso   1.00
H9     H     0.99910   0.18590   0.38070   0.01267  Uiso   1.00
H10    H     0.05900   0.41480   0.37230   0.01267  Uiso   1.00
H11    H     0.98610   0.41470   0.87410   0.01267  Uiso   1.00
H12    H     0.07140   0.58460   0.98840   0.01267  Uiso   1.00
C1     C     0.96310   0.80790   0.53130   0.01267  Uiso   1.00
C2     C     0.21740   0.94720   0.70420   0.01267  Uiso   1.00
C3     C     0.30810   0.94790   0.51950   0.01267  Uiso   1.00
C4     C     0.80790   0.96310   0.03130   0.01267  Uiso   1.00
C5     C     0.94720   0.21740   0.20420   0.01267  Uiso   1.00
C6     C     0.94790   0.30810   0.01950   0.01267  Uiso   1.00
N1     N     0.01170   0.87290   0.65230   0.01267  Uiso   1.00
N2     N     0.37620   0.98400   0.64250   0.01267  Uiso   1.00
N3     N     0.10810   0.85270   0.46070   0.01267  Uiso   1.00
N4     N     0.76080   0.70440   0.47600   0.01267  Uiso   1.00
N5     N     0.28150   0.01050   0.83720   0.01267  Uiso   1.00
N6     N     0.45340   0.00920   0.45250   0.01267  Uiso   1.00
N7     N     0.87290   0.01170   0.15230   0.01267  Uiso   1.00
N8     N     0.98400   0.37620   0.14250   0.01267  Uiso   1.00
N9     N     0.85270   0.10810   0.96070   0.01267  Uiso   1.00
N10    N     0.70440   0.76080   0.97600   0.01267  Uiso   1.00
N11    N     0.01050   0.28150   0.33720   0.01267  Uiso   1.00
N12    N     0.00920   0.45340   0.95250   0.01267  Uiso   1.00
