data_FAYPIG_clean
_audit_creation_date              2014-07-02
_audit_creation_method            'Materials Studio'
_symmetry_space_group_name_H-M    'P1'
_symmetry_Int_Tables_number       1
_symmetry_cell_setting            triclinic
loop_
_symmetry_equiv_pos_as_xyz
  x,y,z
_cell_length_a                    19.5620
_cell_length_b                    20.8500
_cell_length_c                    23.5730
_cell_angle_alpha                 115.3210
_cell_angle_beta                  112.6540
_cell_angle_gamma                 92.8490
loop_
_atom_site_label
_atom_site_type_symbol
_atom_site_fract_x
_atom_site_fract_y
_atom_site_fract_z
_atom_site_U_iso_or_equiv
_atom_site_adp_type
_atom_site_occupancy
Zn1    Zn    0.21920   0.58580   0.41820   0.01267  Uiso   1.00
Zn2    Zn    0.01510   0.52740   0.31970   0.01267  Uiso   1.00
Zn3    Zn    0.28130   0.50950   0.53320   0.01267  Uiso   1.00
Zn4    Zn    0.30090   0.52360   0.29860   0.01267  Uiso   1.00
Zn5    Zn    0.28160   0.78570   0.51970   0.01267  Uiso   1.00
H1     H     0.92630   0.66470   0.36470   0.01267  Uiso   1.00
H2     H     0.91140   0.78170   0.42010   0.01267  Uiso   1.00
H3     H     0.14020   0.86270   0.52150   0.01267  Uiso   1.00
H4     H     0.06270   0.94540   0.53020   0.01267  Uiso   1.00
H5     H     0.99010   0.91660   0.45790   0.01267  Uiso   1.00
H6     H     0.98150   0.91790   0.52180   0.01267  Uiso   1.00
H7     H     0.94380   0.42560   0.14400   0.01267  Uiso   1.00
H8     H     0.94350   0.35500   0.03650   0.01267  Uiso   1.00
H9     H     0.17360   0.41920   0.12970   0.01267  Uiso   1.00
H10    H     0.41320   0.86210   0.49250   0.01267  Uiso   1.00
H11    H     0.49550   0.87450   0.44640   0.01267  Uiso   1.00
H12    H     0.42790   0.65680   0.31600   0.01267  Uiso   1.00
H13    H     0.55090   0.82450   0.37070   0.01267  Uiso   1.00
H14    H     0.56210   0.74670   0.35910   0.01267  Uiso   1.00
H15    H     0.49780   0.75440   0.29890   0.01267  Uiso   1.00
H16    H     0.41040   0.40500   0.51200   0.01267  Uiso   1.00
H17    H     0.50580   0.36350   0.38060   0.01267  Uiso   1.00
H18    H     0.43180   0.42660   0.33130   0.01267  Uiso   1.00
H19    H     0.51080   0.33700   0.51800   0.01267  Uiso   1.00
H20    H     0.50730   0.28870   0.44410   0.01267  Uiso   1.00
H21    H     0.57050   0.36300   0.49810   0.01267  Uiso   1.00
H22    H     0.38580   0.85080   0.68260   0.01267  Uiso   1.00
H23    H     0.46870   0.86300   0.79040   0.01267  Uiso   1.00
H24    H     0.41220   0.64380   0.70870   0.01267  Uiso   1.00
H25    H     0.32580   0.50920   0.09400   0.01267  Uiso   1.00
H26    H     0.37470   0.46030   0.01390   0.01267  Uiso   1.00
H27    H     0.44040   0.32070   0.08080   0.01267  Uiso   1.00
H28    H     0.38840   0.36830   0.16300   0.01267  Uiso   1.00
H29    H     0.37670   0.36670   0.91350   0.01267  Uiso   1.00
H30    H     0.45470   0.42540   0.97210   0.01267  Uiso   1.00
H31    H     0.47490   0.46620   0.71340   0.01267  Uiso   1.00
H32    H     0.50530   0.42810   0.79490   0.01267  Uiso   1.00
H33    H     0.27940   0.35000   0.72490   0.01267  Uiso   1.00
H34    H     0.25500   0.40310   0.64990   0.01267  Uiso   1.00
H35    H     0.79110   0.55820   0.20060   0.01267  Uiso   1.00
H36    H     0.67450   0.52880   0.10490   0.01267  Uiso   1.00
H37    H     0.67600   0.31590   0.02480   0.01267  Uiso   1.00
H38    H     0.79260   0.34530   0.12050   0.01267  Uiso   1.00
H39    H     0.58090   0.31240   0.92520   0.01267  Uiso   1.00
H40    H     0.55060   0.30590   0.97580   0.01267  Uiso   1.00
H41    H     0.50610   0.34000   0.83270   0.01267  Uiso   1.00
H42    H     0.50720   0.41640   0.88950   0.01267  Uiso   1.00
H43    H     0.37370   0.24780   0.82500   0.01267  Uiso   1.00
H44    H     0.42010   0.23000   0.88550   0.01267  Uiso   1.00
H45    H     0.46570   0.00750   0.65960   0.01267  Uiso   1.00
H46    H     0.51600   0.13030   0.74460   0.01267  Uiso   1.00
H47    H     0.33480   0.12420   0.78510   0.01267  Uiso   1.00
H48    H     0.28460   0.00140   0.70010   0.01267  Uiso   1.00
H49    H     0.13580   0.40880   0.53410   0.01267  Uiso   1.00
H50    H     0.01320   0.35360   0.50670   0.01267  Uiso   1.00
H51    H     0.92380   0.42560   0.36740   0.01267  Uiso   1.00
H52    H     0.84030   0.35320   0.38410   0.01267  Uiso   1.00
H53    H     0.87600   0.29480   0.40230   0.01267  Uiso   1.00
H54    H     0.87360   0.36650   0.46140   0.01267  Uiso   1.00
H55    H     0.52420   0.81370   0.86070   0.01267  Uiso   1.00
H56    H     0.46910   0.74440   0.84480   0.01267  Uiso   1.00
H57    H     0.53620   0.73540   0.82360   0.01267  Uiso   1.00
H58    H     0.10990   0.33850   0.00950   0.01267  Uiso   1.00
H59    H     0.03730   0.28180   0.98870   0.01267  Uiso   1.00
H60    H     0.02770   0.34520   0.96950   0.01267  Uiso   1.00
C1     C     0.10620   0.75300   0.45680   0.01267  Uiso   1.00
C2     C     0.04200   0.69350   0.40990   0.01267  Uiso   1.00
C3     C     0.96900   0.70400   0.39600   0.01267  Uiso   1.00
C4     C     0.96020   0.77400   0.42900   0.01267  Uiso   1.00
C5     C     0.02400   0.83380   0.47600   0.01267  Uiso   1.00
C6     C     0.09700   0.82300   0.49010   0.01267  Uiso   1.00
C7     C     0.01400   0.91000   0.49900   0.01267  Uiso   1.00
C8     C     0.12800   0.46300   0.19700   0.01267  Uiso   1.00
C9     C     0.05900   0.46500   0.20100   0.01267  Uiso   1.00
C10    C     0.99000   0.42400   0.14100   0.01267  Uiso   1.00
C11    C     0.99000   0.38200   0.07700   0.01267  Uiso   1.00
C12    C     0.05900   0.38000   0.07200   0.01267  Uiso   1.00
C13    C     0.12800   0.42000   0.13300   0.01267  Uiso   1.00
C14    C     0.37600   0.69000   0.37900   0.01267  Uiso   1.00
C15    C     0.37100   0.75200   0.43200   0.01267  Uiso   1.00
C16    C     0.41600   0.82100   0.45700   0.01267  Uiso   1.00
C17    C     0.46500   0.82800   0.43000   0.01267  Uiso   1.00
C18    C     0.47000   0.76700   0.37700   0.01267  Uiso   1.00
C19    C     0.42500   0.69800   0.35100   0.01267  Uiso   1.00
C20    C     0.52500   0.77400   0.34900   0.01267  Uiso   1.00
C21    C     0.37700   0.45360   0.39200   0.01267  Uiso   1.00
C22    C     0.37030   0.44720   0.44620   0.01267  Uiso   1.00
C23    C     0.41500   0.40900   0.47580   0.01267  Uiso   1.00
C24    C     0.46500   0.37800   0.45100   0.01267  Uiso   1.00
C25    C     0.47200   0.38400   0.39700   0.01267  Uiso   1.00
C26    C     0.42800   0.42200   0.36750   0.01267  Uiso   1.00
C27    C     0.51800   0.33800   0.48100   0.01267  Uiso   1.00
C28    C     0.34900   0.74000   0.63110   0.01267  Uiso   1.00
C29    C     0.39100   0.80900   0.68800   0.01267  Uiso   1.00
C30    C     0.44100   0.81700   0.75200   0.01267  Uiso   1.00
C31    C     0.44900   0.75500   0.76020   0.01267  Uiso   1.00
C32    C     0.40700   0.68500   0.70350   0.01267  Uiso   1.00
C33    C     0.35700   0.67800   0.63890   0.01267  Uiso   1.00
C34    C     0.34100   0.48100   0.19600   0.01267  Uiso   1.00
C35    C     0.36000   0.44800   0.14000   0.01267  Uiso   1.00
C36    C     0.35100   0.47200   0.09300   0.01267  Uiso   1.00
C37    C     0.37700   0.44200   0.04400   0.01267  Uiso   1.00
C38    C     0.40700   0.38500   0.04000   0.01267  Uiso   1.00
C39    C     0.41600   0.35800   0.08300   0.01267  Uiso   1.00
C40    C     0.38800   0.38900   0.13500   0.01267  Uiso   1.00
C41    C     0.42900   0.37300   0.94500   0.01267  Uiso   1.00
C42    C     0.34100   0.46800   0.62300   0.01267  Uiso   1.00
C43    C     0.36400   0.43900   0.67400   0.01267  Uiso   1.00
C44    C     0.43500   0.44500   0.71700   0.01267  Uiso   1.00
C45    C     0.45400   0.42200   0.76500   0.01267  Uiso   1.00
C46    C     0.39400   0.38900   0.76800   0.01267  Uiso   1.00
C47    C     0.31900   0.37600   0.72500   0.01267  Uiso   1.00
C48    C     0.30500   0.40600   0.67800   0.01267  Uiso   1.00
C49    C     0.80340   0.45470   0.17000   0.01267  Uiso   1.00
C50    C     0.76810   0.50960   0.16530   0.01267  Uiso   1.00
C51    C     0.69820   0.49200   0.10800   0.01267  Uiso   1.00
C52    C     0.66370   0.41940   0.05530   0.01267  Uiso   1.00
C53    C     0.69910   0.36450   0.06000   0.01267  Uiso   1.00
C54    C     0.76900   0.38210   0.11740   0.01267  Uiso   1.00
C55    C     0.55300   0.33400   0.95200   0.01267  Uiso   1.00
C56    C     0.47200   0.33000   0.90300   0.01267  Uiso   1.00
C57    C     0.47900   0.36500   0.85900   0.01267  Uiso   1.00
C58    C     0.42500   0.25100   0.85700   0.01267  Uiso   1.00
C59    C     0.33600   0.91300   0.61500   0.01267  Uiso   1.00
C60    C     0.37000   0.99230   0.67140   0.01267  Uiso   1.00
C61    C     0.43900   0.03100   0.68470   0.01267  Uiso   1.00
C62    C     0.46960   0.10400   0.73600   0.01267  Uiso   1.00
C63    C     0.43000   0.13950   0.77330   0.01267  Uiso   1.00
C64    C     0.36100   0.10100   0.76000   0.01267  Uiso   1.00
C65    C     0.33100   0.02700   0.70900   0.01267  Uiso   1.00
C66    C     0.04000   0.45530   0.41720   0.01267  Uiso   1.00
C67    C     0.10320   0.45030   0.46700   0.01267  Uiso   1.00
C68    C     0.09300   0.41200   0.50070   0.01267  Uiso   1.00
C69    C     0.02000   0.37910   0.48400   0.01267  Uiso   1.00
C70    C     0.95600   0.38410   0.43400   0.01267  Uiso   1.00
C71    C     0.96630   0.42200   0.40080   0.01267  Uiso   1.00
C72    C     0.88000   0.34600   0.41900   0.01267  Uiso   1.00
C73    C     0.88400   0.48300   0.23100   0.01267  Uiso   1.00
C74    C     0.49900   0.76300   0.82800   0.01267  Uiso   1.00
C75    C     0.05800   0.33200   0.00400   0.01267  Uiso   1.00
N1     N     0.16700   0.73000   0.46600   0.01267  Uiso   1.00
N2     N     0.14400   0.65700   0.42060   0.01267  Uiso   1.00
N3     N     0.07100   0.63650   0.38700   0.01267  Uiso   1.00
N4     N     0.07500   0.50000   0.26600   0.01267  Uiso   1.00
N5     N     0.15300   0.52300   0.30200   0.01267  Uiso   1.00
N6     N     0.18500   0.49800   0.26200   0.01267  Uiso   1.00
N7     N     0.32800   0.63300   0.36500   0.01267  Uiso   1.00
N8     N     0.29600   0.65700   0.40900   0.01267  Uiso   1.00
N9     N     0.32000   0.72900   0.44800   0.01267  Uiso   1.00
N10    N     0.31910   0.48440   0.46080   0.01267  Uiso   1.00
N11    N     0.29340   0.51030   0.41300   0.01267  Uiso   1.00
N12    N     0.32800   0.49200   0.37100   0.01267  Uiso   1.00
N13    N     0.16200   0.48600   0.46960   0.01267  Uiso   1.00
N14    N     0.14370   0.51650   0.42890   0.01267  Uiso   1.00
N15    N     0.06700   0.49600   0.39510   0.01267  Uiso   1.00
N16    N     0.30900   0.62000   0.57300   0.01267  Uiso   1.00
N17    N     0.28540   0.65100   0.53460   0.01267  Uiso   1.00
N18    N     0.30500   0.72200   0.55900   0.01267  Uiso   1.00
O1     O     0.27400   0.46100   0.58600   0.01267  Uiso   1.00
O2     O     0.39100   0.50000   0.62000   0.01267  Uiso   1.00
O3     O     0.40230   0.35830   0.81230   0.01267  Uiso   1.00
O4     O     0.90900   0.42800   0.23630   0.01267  Uiso   1.00
O5     O     0.91300   0.54100   0.27200   0.01267  Uiso   1.00
O6     O     0.59210   0.40700   0.00210   0.01267  Uiso   1.00
O7     O     0.27100   0.88140   0.60030   0.01267  Uiso   1.00
O8     O     0.37400   0.88100   0.58760   0.01267  Uiso   1.00
O9     O     0.46320   0.21260   0.81920   0.01267  Uiso   1.00
O10    O     0.43090   0.34610   0.99060   0.01267  Uiso   1.00
O11    O     0.31200   0.53800   0.20500   0.01267  Uiso   1.00
O12    O     0.34400   0.45900   0.23900   0.01267  Uiso   1.00
Zn6    Zn    0.78080   0.41420   0.58180   0.01267  Uiso   1.00
Zn7    Zn    0.98490   0.47260   0.68030   0.01267  Uiso   1.00
Zn8    Zn    0.71870   0.49050   0.46680   0.01267  Uiso   1.00
Zn9    Zn    0.69910   0.47640   0.70140   0.01267  Uiso   1.00
Zn10   Zn    0.71840   0.21430   0.48030   0.01267  Uiso   1.00
H61    H     0.07370   0.33530   0.63530   0.01267  Uiso   1.00
H62    H     0.08860   0.21830   0.57990   0.01267  Uiso   1.00
H63    H     0.85980   0.13730   0.47850   0.01267  Uiso   1.00
H64    H     0.93730   0.05460   0.46980   0.01267  Uiso   1.00
H65    H     0.00990   0.08340   0.54210   0.01267  Uiso   1.00
H66    H     0.01850   0.08210   0.47820   0.01267  Uiso   1.00
H67    H     0.05620   0.57440   0.85600   0.01267  Uiso   1.00
H68    H     0.05650   0.64500   0.96350   0.01267  Uiso   1.00
H69    H     0.82640   0.58080   0.87030   0.01267  Uiso   1.00
H70    H     0.58680   0.13790   0.50750   0.01267  Uiso   1.00
H71    H     0.50450   0.12550   0.55360   0.01267  Uiso   1.00
H72    H     0.57210   0.34320   0.68400   0.01267  Uiso   1.00
H73    H     0.44910   0.17550   0.62930   0.01267  Uiso   1.00
H74    H     0.43790   0.25330   0.64090   0.01267  Uiso   1.00
H75    H     0.50220   0.24560   0.70110   0.01267  Uiso   1.00
H76    H     0.58960   0.59500   0.48800   0.01267  Uiso   1.00
H77    H     0.49420   0.63650   0.61940   0.01267  Uiso   1.00
H78    H     0.56820   0.57340   0.66870   0.01267  Uiso   1.00
H79    H     0.48920   0.66300   0.48200   0.01267  Uiso   1.00
H80    H     0.49270   0.71130   0.55590   0.01267  Uiso   1.00
H81    H     0.42950   0.63700   0.50190   0.01267  Uiso   1.00
H82    H     0.61420   0.14920   0.31740   0.01267  Uiso   1.00
H83    H     0.53130   0.13700   0.20960   0.01267  Uiso   1.00
H84    H     0.58780   0.35620   0.29130   0.01267  Uiso   1.00
H85    H     0.67420   0.49080   0.90600   0.01267  Uiso   1.00
H86    H     0.62530   0.53970   0.98610   0.01267  Uiso   1.00
H87    H     0.55960   0.67930   0.91920   0.01267  Uiso   1.00
H88    H     0.61160   0.63170   0.83700   0.01267  Uiso   1.00
H89    H     0.62330   0.63330   0.08650   0.01267  Uiso   1.00
H90    H     0.54530   0.57460   0.02790   0.01267  Uiso   1.00
H91    H     0.52510   0.53380   0.28660   0.01267  Uiso   1.00
H92    H     0.49470   0.57190   0.20510   0.01267  Uiso   1.00
H93    H     0.72060   0.65000   0.27510   0.01267  Uiso   1.00
H94    H     0.74500   0.59690   0.35010   0.01267  Uiso   1.00
H95    H     0.20890   0.44180   0.79940   0.01267  Uiso   1.00
H96    H     0.32550   0.47120   0.89510   0.01267  Uiso   1.00
H97    H     0.32400   0.68410   0.97520   0.01267  Uiso   1.00
H98    H     0.20740   0.65470   0.87950   0.01267  Uiso   1.00
H99    H     0.41910   0.68760   0.07480   0.01267  Uiso   1.00
H100   H     0.44940   0.69410   0.02420   0.01267  Uiso   1.00
H101   H     0.49390   0.66000   0.16730   0.01267  Uiso   1.00
H102   H     0.49280   0.58360   0.11050   0.01267  Uiso   1.00
H103   H     0.62630   0.75220   0.17500   0.01267  Uiso   1.00
H104   H     0.57990   0.77000   0.11450   0.01267  Uiso   1.00
H105   H     0.53430   0.99250   0.34040   0.01267  Uiso   1.00
H106   H     0.48400   0.86970   0.25540   0.01267  Uiso   1.00
H107   H     0.66520   0.87580   0.21490   0.01267  Uiso   1.00
H108   H     0.71540   0.99860   0.29990   0.01267  Uiso   1.00
H109   H     0.86420   0.59120   0.46590   0.01267  Uiso   1.00
H110   H     0.98680   0.64640   0.49330   0.01267  Uiso   1.00
H111   H     0.07620   0.57440   0.63260   0.01267  Uiso   1.00
H112   H     0.15970   0.64680   0.61590   0.01267  Uiso   1.00
H113   H     0.12400   0.70520   0.59770   0.01267  Uiso   1.00
H114   H     0.12640   0.63350   0.53860   0.01267  Uiso   1.00
H115   H     0.47580   0.18630   0.13930   0.01267  Uiso   1.00
H116   H     0.53090   0.25560   0.15520   0.01267  Uiso   1.00
H117   H     0.46380   0.26460   0.17640   0.01267  Uiso   1.00
H118   H     0.89010   0.66150   0.99050   0.01267  Uiso   1.00
H119   H     0.96270   0.71820   0.01130   0.01267  Uiso   1.00
H120   H     0.97230   0.65480   0.03050   0.01267  Uiso   1.00
C76    C     0.89380   0.24700   0.54320   0.01267  Uiso   1.00
C77    C     0.95800   0.30650   0.59010   0.01267  Uiso   1.00
C78    C     0.03100   0.29600   0.60400   0.01267  Uiso   1.00
C79    C     0.03980   0.22600   0.57100   0.01267  Uiso   1.00
C80    C     0.97600   0.16620   0.52400   0.01267  Uiso   1.00
C81    C     0.90300   0.17700   0.50990   0.01267  Uiso   1.00
C82    C     0.98600   0.09000   0.50100   0.01267  Uiso   1.00
C83    C     0.87200   0.53700   0.80300   0.01267  Uiso   1.00
C84    C     0.94100   0.53500   0.79900   0.01267  Uiso   1.00
C85    C     0.01000   0.57600   0.85900   0.01267  Uiso   1.00
C86    C     0.01000   0.61800   0.92300   0.01267  Uiso   1.00
C87    C     0.94100   0.62000   0.92800   0.01267  Uiso   1.00
C88    C     0.87200   0.58000   0.86700   0.01267  Uiso   1.00
C89    C     0.62400   0.31000   0.62100   0.01267  Uiso   1.00
C90    C     0.62900   0.24800   0.56800   0.01267  Uiso   1.00
C91    C     0.58400   0.17900   0.54300   0.01267  Uiso   1.00
C92    C     0.53500   0.17200   0.57000   0.01267  Uiso   1.00
C93    C     0.53000   0.23300   0.62300   0.01267  Uiso   1.00
C94    C     0.57500   0.30200   0.64900   0.01267  Uiso   1.00
C95    C     0.47500   0.22600   0.65100   0.01267  Uiso   1.00
C96    C     0.62300   0.54640   0.60800   0.01267  Uiso   1.00
C97    C     0.62970   0.55280   0.55380   0.01267  Uiso   1.00
C98    C     0.58500   0.59100   0.52420   0.01267  Uiso   1.00
C99    C     0.53500   0.62200   0.54900   0.01267  Uiso   1.00
C100   C     0.52800   0.61600   0.60300   0.01267  Uiso   1.00
C101   C     0.57200   0.57800   0.63250   0.01267  Uiso   1.00
C102   C     0.48200   0.66200   0.51900   0.01267  Uiso   1.00
C103   C     0.65100   0.26000   0.36890   0.01267  Uiso   1.00
C104   C     0.60900   0.19100   0.31200   0.01267  Uiso   1.00
C105   C     0.55900   0.18300   0.24800   0.01267  Uiso   1.00
C106   C     0.55100   0.24500   0.23980   0.01267  Uiso   1.00
C107   C     0.59300   0.31500   0.29650   0.01267  Uiso   1.00
C108   C     0.64300   0.32200   0.36110   0.01267  Uiso   1.00
C109   C     0.65900   0.51900   0.80400   0.01267  Uiso   1.00
C110   C     0.64000   0.55200   0.86000   0.01267  Uiso   1.00
C111   C     0.64900   0.52800   0.90700   0.01267  Uiso   1.00
C112   C     0.62300   0.55800   0.95600   0.01267  Uiso   1.00
C113   C     0.59300   0.61500   0.96000   0.01267  Uiso   1.00
C114   C     0.58400   0.64200   0.91700   0.01267  Uiso   1.00
C115   C     0.61200   0.61100   0.86500   0.01267  Uiso   1.00
C116   C     0.57100   0.62700   0.05500   0.01267  Uiso   1.00
C117   C     0.65900   0.53200   0.37700   0.01267  Uiso   1.00
C118   C     0.63600   0.56100   0.32600   0.01267  Uiso   1.00
C119   C     0.56500   0.55500   0.28300   0.01267  Uiso   1.00
C120   C     0.54600   0.57800   0.23500   0.01267  Uiso   1.00
C121   C     0.60600   0.61100   0.23200   0.01267  Uiso   1.00
C122   C     0.68100   0.62400   0.27500   0.01267  Uiso   1.00
C123   C     0.69500   0.59400   0.32200   0.01267  Uiso   1.00
C124   C     0.19660   0.54530   0.83000   0.01267  Uiso   1.00
C125   C     0.23190   0.49040   0.83470   0.01267  Uiso   1.00
C126   C     0.30180   0.50800   0.89200   0.01267  Uiso   1.00
C127   C     0.33630   0.58060   0.94470   0.01267  Uiso   1.00
C128   C     0.30090   0.63550   0.94000   0.01267  Uiso   1.00
C129   C     0.23100   0.61790   0.88260   0.01267  Uiso   1.00
C130   C     0.44700   0.66600   0.04800   0.01267  Uiso   1.00
C131   C     0.52800   0.67000   0.09700   0.01267  Uiso   1.00
C132   C     0.52100   0.63500   0.14100   0.01267  Uiso   1.00
C133   C     0.57500   0.74900   0.14300   0.01267  Uiso   1.00
C134   C     0.66400   0.08700   0.38500   0.01267  Uiso   1.00
C135   C     0.63000   0.00770   0.32860   0.01267  Uiso   1.00
C136   C     0.56100   0.96900   0.31530   0.01267  Uiso   1.00
C137   C     0.53040   0.89600   0.26400   0.01267  Uiso   1.00
C138   C     0.57000   0.86050   0.22670   0.01267  Uiso   1.00
C139   C     0.63900   0.89900   0.24000   0.01267  Uiso   1.00
C140   C     0.66900   0.97300   0.29100   0.01267  Uiso   1.00
C141   C     0.96000   0.54470   0.58280   0.01267  Uiso   1.00
C142   C     0.89680   0.54970   0.53300   0.01267  Uiso   1.00
C143   C     0.90700   0.58800   0.49930   0.01267  Uiso   1.00
C144   C     0.98000   0.62090   0.51600   0.01267  Uiso   1.00
C145   C     0.04400   0.61590   0.56600   0.01267  Uiso   1.00
C146   C     0.03370   0.57800   0.59920   0.01267  Uiso   1.00
C147   C     0.12000   0.65400   0.58100   0.01267  Uiso   1.00
C148   C     0.11600   0.51700   0.76900   0.01267  Uiso   1.00
C149   C     0.50100   0.23700   0.17200   0.01267  Uiso   1.00
C150   C     0.94200   0.66800   0.99600   0.01267  Uiso   1.00
N19    N     0.83300   0.27000   0.53400   0.01267  Uiso   1.00
N20    N     0.85600   0.34300   0.57940   0.01267  Uiso   1.00
N21    N     0.92900   0.36350   0.61300   0.01267  Uiso   1.00
N22    N     0.92500   0.50000   0.73400   0.01267  Uiso   1.00
N23    N     0.84700   0.47700   0.69800   0.01267  Uiso   1.00
N24    N     0.81500   0.50200   0.73800   0.01267  Uiso   1.00
N25    N     0.67200   0.36700   0.63500   0.01267  Uiso   1.00
N26    N     0.70400   0.34300   0.59100   0.01267  Uiso   1.00
N27    N     0.68000   0.27100   0.55200   0.01267  Uiso   1.00
N28    N     0.68090   0.51560   0.53920   0.01267  Uiso   1.00
N29    N     0.70660   0.48970   0.58700   0.01267  Uiso   1.00
N30    N     0.67200   0.50800   0.62900   0.01267  Uiso   1.00
N31    N     0.83800   0.51400   0.53040   0.01267  Uiso   1.00
N32    N     0.85630   0.48350   0.57110   0.01267  Uiso   1.00
N33    N     0.93300   0.50400   0.60490   0.01267  Uiso   1.00
N34    N     0.69100   0.38000   0.42700   0.01267  Uiso   1.00
N35    N     0.71460   0.34900   0.46540   0.01267  Uiso   1.00
N36    N     0.69500   0.27800   0.44100   0.01267  Uiso   1.00
O13    O     0.72600   0.53900   0.41400   0.01267  Uiso   1.00
O14    O     0.60900   0.50000   0.38000   0.01267  Uiso   1.00
O15    O     0.59770   0.64170   0.18770   0.01267  Uiso   1.00
O16    O     0.09100   0.57200   0.76370   0.01267  Uiso   1.00
O17    O     0.08700   0.45900   0.72800   0.01267  Uiso   1.00
O18    O     0.40790   0.59300   0.99790   0.01267  Uiso   1.00
O19    O     0.72900   0.11860   0.39970   0.01267  Uiso   1.00
O20    O     0.62600   0.11900   0.41240   0.01267  Uiso   1.00
O21    O     0.53680   0.78740   0.18080   0.01267  Uiso   1.00
O22    O     0.56910   0.65390   0.00940   0.01267  Uiso   1.00
O23    O     0.68800   0.46200   0.79500   0.01267  Uiso   1.00
O24    O     0.65600   0.54100   0.76100   0.01267  Uiso   1.00
