data_FAYPOM_clean
_audit_creation_date              2014-07-02
_audit_creation_method            'Materials Studio'
_symmetry_space_group_name_H-M    'P1'
_symmetry_Int_Tables_number       1
_symmetry_cell_setting            triclinic
loop_
_symmetry_equiv_pos_as_xyz
  x,y,z
_cell_length_a                    20.0490
_cell_length_b                    20.2870
_cell_length_c                    20.8323
_cell_angle_alpha                 60.8622
_cell_angle_beta                  77.3212
_cell_angle_gamma                 63.2069
loop_
_atom_site_label
_atom_site_type_symbol
_atom_site_fract_x
_atom_site_fract_y
_atom_site_fract_z
_atom_site_U_iso_or_equiv
_atom_site_adp_type
_atom_site_occupancy
Zn1    Zn    0.88033   0.84024   0.02982   0.01267  Uiso   1.00
Zn2    Zn    0.64996   0.03294   0.80052   0.01267  Uiso   1.00
Zn3    Zn    0.61967   0.12994   0.02982   0.01267  Uiso   1.00
Zn4    Zn    0.85004   0.16654   0.80052   0.01267  Uiso   1.00
Zn5    Zn    0.75000   0.04176   0.91648   0.01267  Uiso   1.00
H1     H     0.35600   0.10230   0.90240   0.01267  Uiso   1.00
H2     H     0.51890   0.00570   0.66440   0.01267  Uiso   1.00
H3     H     0.06810   0.66780   0.21060   0.01267  Uiso   1.00
H4     H     0.43590   0.15680   0.02340   0.01267  Uiso   1.00
H5     H     0.46870   0.06260   0.84700   0.01267  Uiso   1.00
H6     H     0.63800   0.00870   0.21540   0.01267  Uiso   1.00
H7     H     0.46420   0.23650   0.62780   0.01267  Uiso   1.00
H8     H     0.33920   0.14940   0.98220   0.01267  Uiso   1.00
H9     H     0.37630   0.28440   0.54280   0.01267  Uiso   1.00
H10    H     0.89030   0.69030   0.99260   0.01267  Uiso   1.00
H11    H     0.70690   0.84590   0.80920   0.01267  Uiso   1.00
H12    H     0.86080   0.62590   0.94380   0.01267  Uiso   1.00
H13    H     0.77260   0.70600   0.84720   0.01267  Uiso   1.00
H14    H     0.69660   0.89260   0.32400   0.01267  Uiso   1.00
H15    H     0.45200   0.93030   0.58360   0.01267  Uiso   1.00
H16    H     0.51930   0.94550   0.59140   0.01267  Uiso   1.00
H17    H     0.46020   0.93420   0.65460   0.01267  Uiso   1.00
H18    H     0.27820   0.31090   0.49060   0.01267  Uiso   1.00
H19    H     0.33820   0.31150   0.42740   0.01267  Uiso   1.00
H20    H     0.14770   0.54060   0.29120   0.01267  Uiso   1.00
H21    H     0.24370   0.41050   0.33380   0.01267  Uiso   1.00
H22    H     0.18170   0.41410   0.39480   0.01267  Uiso   1.00
H23    H     0.98170   0.56410   0.15260   0.01267  Uiso   1.00
H24    H     0.66180   0.13050   0.61940   0.01267  Uiso   1.00
H25    H     0.73050   0.20340   0.50740   0.01267  Uiso   1.00
H26    H     0.02400   0.35300   0.21180   0.01267  Uiso   1.00
H27    H     0.96470   0.43430   0.21560   0.01267  Uiso   1.00
H28    H     0.01960   0.43880   0.14860   0.01267  Uiso   1.00
H29    H     0.14400   0.99530   0.90240   0.01267  Uiso   1.00
H30    H     0.98110   0.32990   0.66440   0.01267  Uiso   1.00
H31    H     0.43190   0.12160   0.21060   0.01267  Uiso   1.00
H32    H     0.06410   0.81980   0.02340   0.01267  Uiso   1.00
H33    H     0.03130   0.09040   0.84700   0.01267  Uiso   1.00
H34    H     0.86200   0.77590   0.21540   0.01267  Uiso   1.00
H35    H     0.03580   0.13570   0.62780   0.01267  Uiso   1.00
H36    H     0.16080   0.86840   0.98220   0.01267  Uiso   1.00
H37    H     0.12370   0.17280   0.54280   0.01267  Uiso   1.00
H38    H     0.60970   0.31710   0.99260   0.01267  Uiso   1.00
H39    H     0.79310   0.34490   0.80920   0.01267  Uiso   1.00
H40    H     0.63920   0.43030   0.94380   0.01267  Uiso   1.00
H41    H     0.72740   0.44680   0.84720   0.01267  Uiso   1.00
H42    H     0.80340   0.78340   0.32400   0.01267  Uiso   1.00
H43    H     0.04800   0.48610   0.58360   0.01267  Uiso   1.00
H44    H     0.98070   0.46310   0.59140   0.01267  Uiso   1.00
H45    H     0.03980   0.41120   0.65460   0.01267  Uiso   1.00
H46    H     0.22180   0.19850   0.49060   0.01267  Uiso   1.00
H47    H     0.16180   0.26110   0.42740   0.01267  Uiso   1.00
H48    H     0.35230   0.16820   0.29120   0.01267  Uiso   1.00
H49    H     0.25630   0.25570   0.33380   0.01267  Uiso   1.00
H50    H     0.31830   0.19110   0.39480   0.01267  Uiso   1.00
H51    H     0.51830   0.28330   0.15260   0.01267  Uiso   1.00
H52    H     0.83820   0.25010   0.61940   0.01267  Uiso   1.00
H53    H     0.76950   0.28920   0.50740   0.01267  Uiso   1.00
H54    H     0.47600   0.43520   0.21180   0.01267  Uiso   1.00
H55    H     0.53530   0.35010   0.21560   0.01267  Uiso   1.00
H56    H     0.48040   0.41260   0.14860   0.01267  Uiso   1.00
C1     C     0.39640   0.10510   0.91440   0.01267  Uiso   1.00
C2     C     0.51220   0.11300   0.95480   0.01267  Uiso   1.00
C3     C     0.52220   0.08440   0.90320   0.01267  Uiso   1.00
C4     C     0.49040   0.06197   0.63946   0.01267  Uiso   1.00
C5     C     0.06700   0.62037   0.21526   0.01267  Uiso   1.00
C6     C     0.44380   0.13820   0.98840   0.01267  Uiso   1.00
C7     C     0.71920   0.95896   0.15128   0.01267  Uiso   1.00
C8     C     0.46260   0.08080   0.88200   0.01267  Uiso   1.00
C9     C     0.81180   0.80230   0.93620   0.01267  Uiso   1.00
C10    C     0.49930   0.11750   0.65340   0.01267  Uiso   1.00
C11    C     0.43850   0.09133   0.58794   0.01267  Uiso   1.00
C12    C     0.68150   0.96421   0.21538   0.01267  Uiso   1.00
C13    C     0.45770   0.19975   0.61790   0.01267  Uiso   1.00
C14    C     0.38690   0.13250   0.96280   0.01267  Uiso   1.00
C15    C     0.40550   0.22813   0.56654   0.01267  Uiso   1.00
C16    C     0.75920   0.84880   0.87920   0.01267  Uiso   1.00
C17    C     0.85250   0.72020   0.95780   0.01267  Uiso   1.00
C18    C     0.74280   0.81450   0.84600   0.01267  Uiso   1.00
C19    C     0.83650   0.68270   0.92720   0.01267  Uiso   1.00
C20    C     0.78160   0.73160   0.86920   0.01267  Uiso   1.00
C21    C     0.71720   0.89440   0.27900   0.01267  Uiso   1.00
C22    C     0.46740   0.95610   0.60240   0.01267  Uiso   1.00
C23    C     0.96460   0.70900   0.12120   0.01267  Uiso   1.00
C24    C     0.30480   0.28541   0.45818   0.01267  Uiso   1.00
C25    C     0.39570   0.17601   0.54958   0.01267  Uiso   1.00
C26    C     0.11460   0.54419   0.26342   0.01267  Uiso   1.00
C27    C     0.20870   0.38649   0.36402   0.01267  Uiso   1.00
C28    C     0.11400   0.47423   0.27114   0.01267  Uiso   1.00
C29    C     0.55330   0.08960   0.71160   0.01267  Uiso   1.00
C30    C     0.01830   0.62675   0.17430   0.01267  Uiso   1.00
C31    C     0.01550   0.55940   0.18060   0.01267  Uiso   1.00
C32    C     0.06460   0.48070   0.23020   0.01267  Uiso   1.00
C33    C     0.72910   0.13850   0.68740   0.01267  Uiso   1.00
C34    C     0.69570   0.15000   0.61960   0.01267  Uiso   1.00
C35    C     0.73270   0.20230   0.55200   0.01267  Uiso   1.00
C36    C     0.01450   0.40820   0.20060   0.01267  Uiso   1.00
C37    C     0.10360   0.98050   0.91440   0.01267  Uiso   1.00
C38    C     0.98780   0.93220   0.95480   0.01267  Uiso   1.00
C39    C     0.97780   0.01240   0.90320   0.01267  Uiso   1.00
C40    C     0.00960   0.29857   0.63946   0.01267  Uiso   1.00
C41    C     0.43300   0.16437   0.21526   0.01267  Uiso   1.00
C42    C     0.05620   0.87340   0.98840   0.01267  Uiso   1.00
C43    C     0.78080   0.88976   0.15128   0.01267  Uiso   1.00
C44    C     0.03740   0.03720   0.88200   0.01267  Uiso   1.00
C45    C     0.68820   0.26150   0.93620   0.01267  Uiso   1.00
C46    C     0.00070   0.22910   0.65340   0.01267  Uiso   1.00
C47    C     0.06150   0.32073   0.58794   0.01267  Uiso   1.00
C48    C     0.81850   0.82041   0.21538   0.01267  Uiso   1.00
C49    C     0.04230   0.18235   0.61790   0.01267  Uiso   1.00
C50    C     0.11310   0.90470   0.96280   0.01267  Uiso   1.00
C51    C     0.09450   0.20533   0.56654   0.01267  Uiso   1.00
C52    C     0.74080   0.27200   0.87920   0.01267  Uiso   1.00
C53    C     0.64750   0.32200   0.95780   0.01267  Uiso   1.00
C54    C     0.75720   0.33950   0.84600   0.01267  Uiso   1.00
C55    C     0.66350   0.39010   0.92720   0.01267  Uiso   1.00
C56    C     0.71840   0.39920   0.86920   0.01267  Uiso   1.00
C57    C     0.78280   0.82660   0.27900   0.01267  Uiso   1.00
C58    C     0.03260   0.44150   0.60240   0.01267  Uiso   1.00
C59    C     0.53540   0.16980   0.12120   0.01267  Uiso   1.00
C60    C     0.19520   0.25641   0.45818   0.01267  Uiso   1.00
C61    C     0.10430   0.27441   0.54958   0.01267  Uiso   1.00
C62    C     0.38540   0.19239   0.26342   0.01267  Uiso   1.00
C63    C     0.29130   0.24949   0.36402   0.01267  Uiso   1.00
C64    C     0.38600   0.25463   0.27114   0.01267  Uiso   1.00
C65    C     0.94670   0.19880   0.71160   0.01267  Uiso   1.00
C66    C     0.48170   0.19895   0.17430   0.01267  Uiso   1.00
C67    C     0.48450   0.26000   0.18060   0.01267  Uiso   1.00
C68    C     0.43540   0.28910   0.23020   0.01267  Uiso   1.00
C69    C     0.77090   0.17410   0.68740   0.01267  Uiso   1.00
C70    C     0.80430   0.23040   0.61960   0.01267  Uiso   1.00
C71    C     0.76730   0.24570   0.55200   0.01267  Uiso   1.00
C72    C     0.48550   0.39120   0.20060   0.01267  Uiso   1.00
C73    C     0.25000   0.29445   0.41110   0.01267  Uiso   1.00
N1     N     0.62890   0.07817   0.91886   0.01267  Uiso   1.00
N2     N     0.81560   0.85445   0.95610   0.01267  Uiso   1.00
N3     N     0.76570   0.92962   0.91376   0.01267  Uiso   1.00
N4     N     0.59530   0.06374   0.88192   0.01267  Uiso   1.00
N5     N     0.58110   0.10879   0.96422   0.01267  Uiso   1.00
N6     N     0.70280   0.01495   0.07770   0.01267  Uiso   1.00
N7     N     0.73200   0.92639   0.86782   0.01267  Uiso   1.00
N8     N     0.71260   0.09450   0.75560   0.01267  Uiso   1.00
N9     N     0.87110   0.00297   0.91886   0.01267  Uiso   1.00
N10    N     0.68440   0.18945   0.95610   0.01267  Uiso   1.00
N11    N     0.73430   0.15662   0.91376   0.01267  Uiso   1.00
N12    N     0.90470   0.05434   0.88192   0.01267  Uiso   1.00
N13    N     0.91890   0.92699   0.96422   0.01267  Uiso   1.00
N14    N     0.79720   0.90735   0.07770   0.01267  Uiso   1.00
N15    N     0.76800   0.20579   0.86782   0.01267  Uiso   1.00
N16    N     0.78740   0.14990   0.75560   0.01267  Uiso   1.00
N17    N     0.75000   0.98213   0.03574   0.01267  Uiso   1.00
N18    N     0.75000   0.10177   0.79646   0.01267  Uiso   1.00
O1     O     0.59560   0.01548   0.74344   0.01267  Uiso   1.00
O2     O     0.92140   0.71637   0.08486   0.01267  Uiso   1.00
O3     O     0.55660   0.14170   0.72380   0.01267  Uiso   1.00
O4     O     0.42400   0.04265   0.56910   0.01267  Uiso   1.00
O5     O     0.15775   0.39558   0.31864   0.01267  Uiso   1.00
O6     O     0.34610   0.19851   0.50018   0.01267  Uiso   1.00
O7     O     0.96590   0.77171   0.11358   0.01267  Uiso   1.00
O8     O     0.06950   0.40638   0.24044   0.01267  Uiso   1.00
O9     O     0.90440   0.24108   0.74344   0.01267  Uiso   1.00
O10    O     0.57860   0.19877   0.08486   0.01267  Uiso   1.00
O11    O     0.94340   0.13450   0.72380   0.01267  Uiso   1.00
O12    O     0.07600   0.38825   0.56910   0.01267  Uiso   1.00
O13    O     0.34225   0.28578   0.31864   0.01267  Uiso   1.00
O14    O     0.15390   0.30131   0.50018   0.01267  Uiso   1.00
O15    O     0.53410   0.11471   0.11358   0.01267  Uiso   1.00
O16    O     0.43050   0.35318   0.24044   0.01267  Uiso   1.00
Zn6    Zn    0.11967   0.15976   0.97018   0.01267  Uiso   1.00
Zn7    Zn    0.35004   0.96706   0.19948   0.01267  Uiso   1.00
Zn8    Zn    0.38033   0.87006   0.97018   0.01267  Uiso   1.00
Zn9    Zn    0.14996   0.83346   0.19948   0.01267  Uiso   1.00
Zn10   Zn    0.25000   0.95824   0.08352   0.01267  Uiso   1.00
H57    H     0.64400   0.89770   0.09760   0.01267  Uiso   1.00
H58    H     0.48110   0.99430   0.33560   0.01267  Uiso   1.00
H59    H     0.93190   0.33220   0.78940   0.01267  Uiso   1.00
H60    H     0.56410   0.84320   0.97660   0.01267  Uiso   1.00
H61    H     0.53130   0.93740   0.15300   0.01267  Uiso   1.00
H62    H     0.36200   0.99130   0.78460   0.01267  Uiso   1.00
H63    H     0.53580   0.76350   0.37220   0.01267  Uiso   1.00
H64    H     0.66080   0.85060   0.01780   0.01267  Uiso   1.00
H65    H     0.62370   0.71560   0.45720   0.01267  Uiso   1.00
H66    H     0.10970   0.30970   0.00740   0.01267  Uiso   1.00
H67    H     0.29310   0.15410   0.19080   0.01267  Uiso   1.00
H68    H     0.13920   0.37410   0.05620   0.01267  Uiso   1.00
H69    H     0.22740   0.29400   0.15280   0.01267  Uiso   1.00
H70    H     0.30340   0.10740   0.67600   0.01267  Uiso   1.00
H71    H     0.54800   0.06970   0.41640   0.01267  Uiso   1.00
H72    H     0.48070   0.05450   0.40860   0.01267  Uiso   1.00
H73    H     0.53980   0.06580   0.34540   0.01267  Uiso   1.00
H74    H     0.72180   0.68910   0.50940   0.01267  Uiso   1.00
H75    H     0.66180   0.68850   0.57260   0.01267  Uiso   1.00
H76    H     0.85230   0.45940   0.70880   0.01267  Uiso   1.00
H77    H     0.75630   0.58950   0.66620   0.01267  Uiso   1.00
H78    H     0.81830   0.58590   0.60520   0.01267  Uiso   1.00
H79    H     0.01830   0.43590   0.84740   0.01267  Uiso   1.00
H80    H     0.33820   0.86950   0.38060   0.01267  Uiso   1.00
H81    H     0.26950   0.79660   0.49260   0.01267  Uiso   1.00
H82    H     0.97600   0.64700   0.78820   0.01267  Uiso   1.00
H83    H     0.03530   0.56570   0.78440   0.01267  Uiso   1.00
H84    H     0.98040   0.56120   0.85140   0.01267  Uiso   1.00
H85    H     0.85600   0.00470   0.09760   0.01267  Uiso   1.00
H86    H     0.01890   0.67010   0.33560   0.01267  Uiso   1.00
H87    H     0.56810   0.87840   0.78940   0.01267  Uiso   1.00
H88    H     0.93590   0.18020   0.97660   0.01267  Uiso   1.00
H89    H     0.96870   0.90960   0.15300   0.01267  Uiso   1.00
H90    H     0.13800   0.22410   0.78460   0.01267  Uiso   1.00
H91    H     0.96420   0.86430   0.37220   0.01267  Uiso   1.00
H92    H     0.83920   0.13160   0.01780   0.01267  Uiso   1.00
H93    H     0.87630   0.82720   0.45720   0.01267  Uiso   1.00
H94    H     0.39030   0.68290   0.00740   0.01267  Uiso   1.00
H95    H     0.20690   0.65510   0.19080   0.01267  Uiso   1.00
H96    H     0.36080   0.56970   0.05620   0.01267  Uiso   1.00
H97    H     0.27260   0.55320   0.15280   0.01267  Uiso   1.00
H98    H     0.19660   0.21660   0.67600   0.01267  Uiso   1.00
H99    H     0.95200   0.51390   0.41640   0.01267  Uiso   1.00
H100   H     0.01930   0.53690   0.40860   0.01267  Uiso   1.00
H101   H     0.96020   0.58880   0.34540   0.01267  Uiso   1.00
H102   H     0.77820   0.80150   0.50940   0.01267  Uiso   1.00
H103   H     0.83820   0.73890   0.57260   0.01267  Uiso   1.00
H104   H     0.64770   0.83180   0.70880   0.01267  Uiso   1.00
H105   H     0.74370   0.74430   0.66620   0.01267  Uiso   1.00
H106   H     0.68170   0.80890   0.60520   0.01267  Uiso   1.00
H107   H     0.48170   0.71670   0.84740   0.01267  Uiso   1.00
H108   H     0.16180   0.74990   0.38060   0.01267  Uiso   1.00
H109   H     0.23050   0.71080   0.49260   0.01267  Uiso   1.00
H110   H     0.52400   0.56480   0.78820   0.01267  Uiso   1.00
H111   H     0.46470   0.64990   0.78440   0.01267  Uiso   1.00
H112   H     0.51960   0.58740   0.85140   0.01267  Uiso   1.00
C74    C     0.60360   0.89490   0.08560   0.01267  Uiso   1.00
C75    C     0.48780   0.88700   0.04520   0.01267  Uiso   1.00
C76    C     0.47780   0.91560   0.09680   0.01267  Uiso   1.00
C77    C     0.50960   0.93803   0.36054   0.01267  Uiso   1.00
C78    C     0.93300   0.37963   0.78474   0.01267  Uiso   1.00
C79    C     0.55620   0.86180   0.01160   0.01267  Uiso   1.00
C80    C     0.28080   0.04104   0.84872   0.01267  Uiso   1.00
C81    C     0.53740   0.91920   0.11800   0.01267  Uiso   1.00
C82    C     0.18820   0.19770   0.06380   0.01267  Uiso   1.00
C83    C     0.50070   0.88250   0.34660   0.01267  Uiso   1.00
C84    C     0.56150   0.90867   0.41206   0.01267  Uiso   1.00
C85    C     0.31850   0.03579   0.78462   0.01267  Uiso   1.00
C86    C     0.54230   0.80025   0.38210   0.01267  Uiso   1.00
C87    C     0.61310   0.86750   0.03720   0.01267  Uiso   1.00
C88    C     0.59450   0.77187   0.43346   0.01267  Uiso   1.00
C89    C     0.24080   0.15120   0.12080   0.01267  Uiso   1.00
C90    C     0.14750   0.27980   0.04220   0.01267  Uiso   1.00
C91    C     0.25720   0.18550   0.15400   0.01267  Uiso   1.00
C92    C     0.16350   0.31730   0.07280   0.01267  Uiso   1.00
C93    C     0.21840   0.26840   0.13080   0.01267  Uiso   1.00
C94    C     0.28280   0.10560   0.72100   0.01267  Uiso   1.00
C95    C     0.53260   0.04390   0.39760   0.01267  Uiso   1.00
C96    C     0.03540   0.29100   0.87880   0.01267  Uiso   1.00
C97    C     0.69520   0.71459   0.54182   0.01267  Uiso   1.00
C98    C     0.60430   0.82399   0.45042   0.01267  Uiso   1.00
C99    C     0.88540   0.45581   0.73658   0.01267  Uiso   1.00
C100   C     0.79130   0.61351   0.63598   0.01267  Uiso   1.00
C101   C     0.88600   0.52577   0.72886   0.01267  Uiso   1.00
C102   C     0.44670   0.91040   0.28840   0.01267  Uiso   1.00
C103   C     0.98170   0.37325   0.82570   0.01267  Uiso   1.00
C104   C     0.98450   0.44060   0.81940   0.01267  Uiso   1.00
C105   C     0.93540   0.51930   0.76980   0.01267  Uiso   1.00
C106   C     0.27090   0.86150   0.31260   0.01267  Uiso   1.00
C107   C     0.30430   0.85000   0.38040   0.01267  Uiso   1.00
C108   C     0.26730   0.79770   0.44800   0.01267  Uiso   1.00
C109   C     0.98550   0.59180   0.79940   0.01267  Uiso   1.00
C110   C     0.89640   0.01950   0.08560   0.01267  Uiso   1.00
C111   C     0.01220   0.06780   0.04520   0.01267  Uiso   1.00
C112   C     0.02220   0.98760   0.09680   0.01267  Uiso   1.00
C113   C     0.99040   0.70143   0.36054   0.01267  Uiso   1.00
C114   C     0.56700   0.83563   0.78474   0.01267  Uiso   1.00
C115   C     0.94380   0.12660   0.01160   0.01267  Uiso   1.00
C116   C     0.21920   0.11024   0.84872   0.01267  Uiso   1.00
C117   C     0.96260   0.96280   0.11800   0.01267  Uiso   1.00
C118   C     0.31180   0.73850   0.06380   0.01267  Uiso   1.00
C119   C     0.99930   0.77090   0.34660   0.01267  Uiso   1.00
C120   C     0.93850   0.67927   0.41206   0.01267  Uiso   1.00
C121   C     0.18150   0.17959   0.78462   0.01267  Uiso   1.00
C122   C     0.95770   0.81765   0.38210   0.01267  Uiso   1.00
C123   C     0.88690   0.09530   0.03720   0.01267  Uiso   1.00
C124   C     0.90550   0.79467   0.43346   0.01267  Uiso   1.00
C125   C     0.25920   0.72800   0.12080   0.01267  Uiso   1.00
C126   C     0.35250   0.67800   0.04220   0.01267  Uiso   1.00
C127   C     0.24280   0.66050   0.15400   0.01267  Uiso   1.00
C128   C     0.33650   0.60990   0.07280   0.01267  Uiso   1.00
C129   C     0.28160   0.60080   0.13080   0.01267  Uiso   1.00
C130   C     0.21720   0.17340   0.72100   0.01267  Uiso   1.00
C131   C     0.96740   0.55850   0.39760   0.01267  Uiso   1.00
C132   C     0.46460   0.83020   0.87880   0.01267  Uiso   1.00
C133   C     0.80480   0.74359   0.54182   0.01267  Uiso   1.00
C134   C     0.89570   0.72559   0.45042   0.01267  Uiso   1.00
C135   C     0.61460   0.80761   0.73658   0.01267  Uiso   1.00
C136   C     0.70870   0.75051   0.63598   0.01267  Uiso   1.00
C137   C     0.61400   0.74537   0.72886   0.01267  Uiso   1.00
C138   C     0.05330   0.80120   0.28840   0.01267  Uiso   1.00
C139   C     0.51830   0.80105   0.82570   0.01267  Uiso   1.00
C140   C     0.51550   0.74000   0.81940   0.01267  Uiso   1.00
C141   C     0.56460   0.71090   0.76980   0.01267  Uiso   1.00
C142   C     0.22910   0.82590   0.31260   0.01267  Uiso   1.00
C143   C     0.19570   0.76960   0.38040   0.01267  Uiso   1.00
C144   C     0.23270   0.75430   0.44800   0.01267  Uiso   1.00
C145   C     0.51450   0.60880   0.79940   0.01267  Uiso   1.00
C146   C     0.75000   0.70555   0.58890   0.01267  Uiso   1.00
N19    N     0.37110   0.92183   0.08114   0.01267  Uiso   1.00
N20    N     0.18440   0.14555   0.04390   0.01267  Uiso   1.00
N21    N     0.23430   0.07038   0.08624   0.01267  Uiso   1.00
N22    N     0.40470   0.93626   0.11808   0.01267  Uiso   1.00
N23    N     0.41890   0.89121   0.03578   0.01267  Uiso   1.00
N24    N     0.29720   0.98505   0.92230   0.01267  Uiso   1.00
N25    N     0.26800   0.07361   0.13218   0.01267  Uiso   1.00
N26    N     0.28740   0.90550   0.24440   0.01267  Uiso   1.00
N27    N     0.12890   0.99703   0.08114   0.01267  Uiso   1.00
N28    N     0.31560   0.81055   0.04390   0.01267  Uiso   1.00
N29    N     0.26570   0.84338   0.08624   0.01267  Uiso   1.00
N30    N     0.09530   0.94566   0.11808   0.01267  Uiso   1.00
N31    N     0.08110   0.07301   0.03578   0.01267  Uiso   1.00
N32    N     0.20280   0.09265   0.92230   0.01267  Uiso   1.00
N33    N     0.23200   0.79421   0.13218   0.01267  Uiso   1.00
N34    N     0.21260   0.85010   0.24440   0.01267  Uiso   1.00
N35    N     0.25000   0.01787   0.96426   0.01267  Uiso   1.00
N36    N     0.25000   0.89823   0.20354   0.01267  Uiso   1.00
O17    O     0.40440   0.98452   0.25656   0.01267  Uiso   1.00
O18    O     0.07860   0.28363   0.91514   0.01267  Uiso   1.00
O19    O     0.44340   0.85830   0.27620   0.01267  Uiso   1.00
O20    O     0.57600   0.95735   0.43090   0.01267  Uiso   1.00
O21    O     0.84225   0.60442   0.68136   0.01267  Uiso   1.00
O22    O     0.65390   0.80149   0.49982   0.01267  Uiso   1.00
O23    O     0.03410   0.22829   0.88642   0.01267  Uiso   1.00
O24    O     0.93050   0.59362   0.75956   0.01267  Uiso   1.00
O25    O     0.09560   0.75892   0.25656   0.01267  Uiso   1.00
O26    O     0.42140   0.80123   0.91514   0.01267  Uiso   1.00
O27    O     0.05660   0.86550   0.27620   0.01267  Uiso   1.00
O28    O     0.92400   0.61175   0.43090   0.01267  Uiso   1.00
O29    O     0.65775   0.71422   0.68136   0.01267  Uiso   1.00
O30    O     0.84610   0.69869   0.49982   0.01267  Uiso   1.00
O31    O     0.46590   0.88529   0.88642   0.01267  Uiso   1.00
O32    O     0.56950   0.64682   0.75956   0.01267  Uiso   1.00
