data_FAYQED_clean
_audit_creation_date              2014-07-02
_audit_creation_method            'Materials Studio'
_symmetry_space_group_name_H-M    'P1'
_symmetry_Int_Tables_number       1
_symmetry_cell_setting            triclinic
loop_
_symmetry_equiv_pos_as_xyz
  x,y,z
_cell_length_a                    24.7890
_cell_length_b                    26.0192
_cell_length_c                    26.0192
_cell_angle_alpha                 96.0428
_cell_angle_beta                  116.1590
_cell_angle_gamma                 116.1590
loop_
_atom_site_label
_atom_site_type_symbol
_atom_site_fract_x
_atom_site_fract_y
_atom_site_fract_z
_atom_site_U_iso_or_equiv
_atom_site_adp_type
_atom_site_occupancy
Zn1    Zn    0.66400   0.56850   0.95070   0.01267  Uiso   1.00
Zn2    Zn    0.55530   0.40450   0.89710   0.01267  Uiso   1.00
Zn3    Zn    0.78200   0.62710   0.11510   0.01267  Uiso   1.00
Zn4    Zn    0.76470   0.61380   0.88180   0.01267  Uiso   1.00
Zn5    Zn    0.55130   0.62680   0.90920   0.01267  Uiso   1.00
H1     H     0.23610   0.82800   0.76860   0.01267  Uiso   1.00
H2     H     0.26850   0.85260   0.72980   0.01267  Uiso   1.00
H3     H     0.12340   0.76770   0.60250   0.01267  Uiso   1.00
H4     H     0.18320   0.83520   0.61720   0.01267  Uiso   1.00
H5     H     0.21290   0.91000   0.76180   0.01267  Uiso   1.00
H6     H     0.15410   0.90490   0.69930   0.01267  Uiso   1.00
H7     H     0.55020   0.76210   0.09870   0.01267  Uiso   1.00
H8     H     0.56580   0.74720   0.15860   0.01267  Uiso   1.00
H9     H     0.62260   0.80920   0.16180   0.01267  Uiso   1.00
H10    H     0.37400   0.63830   0.76550   0.01267  Uiso   1.00
H11    H     0.32480   0.81530   0.80370   0.01267  Uiso   1.00
H12    H     0.37420   0.52020   0.82580   0.01267  Uiso   1.00
H13    H     0.37990   0.34160   0.82320   0.01267  Uiso   1.00
H14    H     0.67870   0.77900   0.24840   0.01267  Uiso   1.00
H15    H     0.69500   0.72800   0.25960   0.01267  Uiso   1.00
H16    H     0.75470   0.79210   0.26890   0.01267  Uiso   1.00
H17    H     0.25870   0.63040   0.67940   0.01267  Uiso   1.00
H18    H     0.43120   0.82190   0.89150   0.01267  Uiso   1.00
H19    H     0.51150   0.77900   0.92580   0.01267  Uiso   1.00
H20    H     0.18100   0.66370   0.64570   0.01267  Uiso   1.00
H21    H     0.25300   0.00480   0.78860   0.01267  Uiso   1.00
H22    H     0.09590   0.79920   0.41920   0.01267  Uiso   1.00
H23    H     0.44900   0.20750   0.79250   0.01267  Uiso   1.00
H24    H     0.63610   0.31340   0.14720   0.01267  Uiso   1.00
H25    H     0.56190   0.29610   0.09190   0.01267  Uiso   1.00
H26    H     0.61090   0.28160   0.07940   0.01267  Uiso   1.00
H27    H     0.98880   0.72670   0.68870   0.01267  Uiso   1.00
H28    H     0.96660   0.75350   0.51090   0.01267  Uiso   1.00
H29    H     0.14900   0.84140   0.52420   0.01267  Uiso   1.00
H30    H     0.32850   0.99950   0.67870   0.01267  Uiso   1.00
H31    H     0.08420   0.74860   0.68020   0.01267  Uiso   1.00
H32    H     0.06310   0.79740   0.67280   0.01267  Uiso   1.00
H33    H     0.29230   0.11190   0.85130   0.01267  Uiso   1.00
H34    H     0.40320   0.10430   0.71910   0.01267  Uiso   1.00
H35    H     0.37780   0.22470   0.89970   0.01267  Uiso   1.00
H36    H     0.77190   0.45910   0.24690   0.01267  Uiso   1.00
H37    H     0.69510   0.40300   0.22320   0.01267  Uiso   1.00
H38    H     0.74860   0.39210   0.21490   0.01267  Uiso   1.00
H39    H     0.19870   0.30890   0.73350   0.01267  Uiso   1.00
H40    H     0.23700   0.27790   0.72390   0.01267  Uiso   1.00
H41    H     0.23530   0.28620   0.78360   0.01267  Uiso   1.00
H42    H     0.14960   0.83220   0.85360   0.01267  Uiso   1.00
H43    H     0.20230   0.37100   0.74120   0.01267  Uiso   1.00
H44    H     0.23100   0.43460   0.78700   0.01267  Uiso   1.00
H45    H     0.23090   0.43070   0.72650   0.01267  Uiso   1.00
H46    H     0.07600   0.79710   0.90110   0.01267  Uiso   1.00
H47    H     0.67080   0.34160   0.69060   0.01267  Uiso   1.00
H48    H     0.68110   0.40040   0.67480   0.01267  Uiso   1.00
H49    H     0.74550   0.40440   0.73080   0.01267  Uiso   1.00
H50    H     0.57510   0.25980   0.73540   0.01267  Uiso   1.00
H51    H     0.57600   0.28110   0.68150   0.01267  Uiso   1.00
H52    H     0.64480   0.28770   0.73430   0.01267  Uiso   1.00
H53    H     0.67820   0.79000   0.72080   0.01267  Uiso   1.00
H54    H     0.75210   0.79950   0.76710   0.01267  Uiso   1.00
H55    H     0.69540   0.74150   0.70550   0.01267  Uiso   1.00
H56    H     0.59830   0.79330   0.72730   0.01267  Uiso   1.00
H57    H     0.53060   0.74660   0.72640   0.01267  Uiso   1.00
H58    H     0.59450   0.80620   0.78540   0.01267  Uiso   1.00
H59    H     0.12420   0.80160   0.10660   0.01267  Uiso   1.00
H60    H     0.08420   0.75230   0.04110   0.01267  Uiso   1.00
H61    H     0.07230   0.80640   0.04780   0.01267  Uiso   1.00
H62    H     0.12520   0.79810   0.20090   0.01267  Uiso   1.00
H63    H     0.07560   0.80680   0.21780   0.01267  Uiso   1.00
H64    H     0.07840   0.74780   0.21740   0.01267  Uiso   1.00
H65    H     0.58260   0.33350   0.81010   0.01267  Uiso   1.00
H66    H     0.72560   0.49540   0.77580   0.01267  Uiso   1.00
H67    H     0.56440   0.71090   0.81950   0.01267  Uiso   1.00
H68    H     0.73320   0.70040   0.79360   0.01267  Uiso   1.00
H69    H     0.95990   0.72120   0.16780   0.01267  Uiso   1.00
H70    H     0.94240   0.69540   0.98060   0.01267  Uiso   1.00
H71    H     0.56490   0.70510   0.03050   0.01267  Uiso   1.00
H72    H     0.74880   0.70980   0.19700   0.01267  Uiso   1.00
H73    H     0.79270   0.65230   0.30010   0.01267  Uiso   1.00
H74    H     0.85210   0.69170   0.40670   0.01267  Uiso   1.00
H75    H     0.98210   0.73160   0.31480   0.01267  Uiso   1.00
H76    H     0.96380   0.72590   0.87970   0.01267  Uiso   1.00
H77    H     0.86010   0.65160   0.66820   0.01267  Uiso   1.00
H78    H     0.79070   0.61260   0.70880   0.01267  Uiso   1.00
H79    H     0.77080   0.51850   0.18390   0.01267  Uiso   1.00
H80    H     0.57900   0.34320   0.00920   0.01267  Uiso   1.00
C1     C     0.16400   0.83000   0.69000   0.01267  Uiso   1.00
C2     C     0.37900   0.12300   0.78100   0.01267  Uiso   1.00
C3     C     0.22600   0.82300   0.72700   0.01267  Uiso   1.00
C4     C     0.14200   0.81100   0.61900   0.01267  Uiso   1.00
C5     C     0.19200   0.89800   0.71800   0.01267  Uiso   1.00
C6     C     0.44400   0.70200   0.85200   0.01267  Uiso   1.00
C7     C     0.43600   0.43200   0.84800   0.01267  Uiso   1.00
C8     C     0.58700   0.76700   0.13700   0.01267  Uiso   1.00
C9     C     0.38400   0.67300   0.79100   0.01267  Uiso   1.00
C10    C     0.31300   0.77800   0.78000   0.01267  Uiso   1.00
C11    C     0.37300   0.48400   0.82400   0.01267  Uiso   1.00
C12    C     0.37700   0.37600   0.82000   0.01267  Uiso   1.00
C13    C     0.43400   0.48100   0.85100   0.01267  Uiso   1.00
C14    C     0.70400   0.76100   0.24500   0.01267  Uiso   1.00
C15    C     0.27100   0.66600   0.70600   0.01267  Uiso   1.00
C16    C     0.35700   0.75300   0.80500   0.01267  Uiso   1.00
C17    C     0.41900   0.78600   0.86600   0.01267  Uiso   1.00
C18    C     0.46800   0.75800   0.88800   0.01267  Uiso   1.00
C19    C     0.25500   0.74500   0.72500   0.01267  Uiso   1.00
C20    C     0.22500   0.68500   0.68300   0.01267  Uiso   1.00
C21    C     0.29100   0.99500   0.73300   0.01267  Uiso   1.00
C22    C     0.32700   0.09500   0.79700   0.01267  Uiso   1.00
C23    C     0.28300   0.02600   0.77600   0.01267  Uiso   1.00
C24    C     0.05900   0.79900   0.52500   0.01267  Uiso   1.00
C25    C     0.06800   0.79000   0.43600   0.01267  Uiso   1.00
C26    C     0.41900   0.18800   0.80600   0.01267  Uiso   1.00
C27    C     0.42000   0.22300   0.84700   0.01267  Uiso   1.00
C28    C     0.61100   0.31000   0.10600   0.01267  Uiso   1.00
C29    C     0.00600   0.74000   0.73000   0.01267  Uiso   1.00
C30    C     0.99200   0.76200   0.49200   0.01267  Uiso   1.00
C31    C     0.07300   0.78000   0.76800   0.01267  Uiso   1.00
C32    C     0.09900   0.81400   0.49800   0.01267  Uiso   1.00
C33    C     0.33300   0.69500   0.76300   0.01267  Uiso   1.00
C34    C     0.84200   0.65800   0.22400   0.01267  Uiso   1.00
C35    C     0.33100   0.02300   0.71100   0.01267  Uiso   1.00
C36    C     0.10200   0.79200   0.69600   0.01267  Uiso   1.00
C37    C     0.82000   0.63700   0.82500   0.01267  Uiso   1.00
C38    C     0.31200   0.42700   0.79300   0.01267  Uiso   1.00
C39    C     0.32500   0.13100   0.84100   0.01267  Uiso   1.00
C40    C     0.37500   0.08600   0.73400   0.01267  Uiso   1.00
C41    C     0.37600   0.20000   0.87000   0.01267  Uiso   1.00
C42    C     0.73200   0.41900   0.21500   0.01267  Uiso   1.00
C43    C     0.23800   0.30400   0.75400   0.01267  Uiso   1.00
C44    C     0.30900   0.36700   0.78700   0.01267  Uiso   1.00
C45    C     0.10100   0.80200   0.82800   0.01267  Uiso   1.00
C46    C     0.23700   0.41500   0.75900   0.01267  Uiso   1.00
C47    C     0.05700   0.78100   0.85900   0.01267  Uiso   1.00
C48    C     0.69500   0.38600   0.70800   0.01267  Uiso   1.00
C49    C     0.60400   0.28900   0.72500   0.01267  Uiso   1.00
C50    C     0.70200   0.77000   0.73800   0.01267  Uiso   1.00
C51    C     0.58200   0.77500   0.75100   0.01267  Uiso   1.00
C52    C     0.08000   0.77800   0.06600   0.01267  Uiso   1.00
C53    C     0.08000   0.77800   0.19800   0.01267  Uiso   1.00
C54    C     0.67900   0.47400   0.82400   0.01267  Uiso   1.00
C55    C     0.63600   0.42600   0.83400   0.01267  Uiso   1.00
C56    C     0.61100   0.36630   0.80370   0.01267  Uiso   1.00
C57    C     0.62900   0.35400   0.76200   0.01267  Uiso   1.00
C58    C     0.67200   0.40300   0.75100   0.01267  Uiso   1.00
C59    C     0.69700   0.46300   0.78300   0.01267  Uiso   1.00
C60    C     0.62800   0.67700   0.84300   0.01267  Uiso   1.00
C61    C     0.59800   0.70900   0.81500   0.01267  Uiso   1.00
C62    C     0.61900   0.73700   0.77900   0.01267  Uiso   1.00
C63    C     0.67000   0.73400   0.77000   0.01267  Uiso   1.00
C64    C     0.69900   0.70300   0.79900   0.01267  Uiso   1.00
C65    C     0.67900   0.67500   0.83500   0.01267  Uiso   1.00
C66    C     0.88900   0.68100   0.07500   0.01267  Uiso   1.00
C67    C     0.95600   0.71600   0.13000   0.01267  Uiso   1.00
C68    C     0.01800   0.74300   0.12900   0.01267  Uiso   1.00
C69    C     0.01300   0.73500   0.07300   0.01267  Uiso   1.00
C70    C     0.94600   0.70000   0.01800   0.01267  Uiso   1.00
C71    C     0.88400   0.67300   0.01900   0.01267  Uiso   1.00
C72    C     0.46700   0.29400   0.87200   0.01267  Uiso   1.00
C73    C     0.69100   0.68100   0.10300   0.01267  Uiso   1.00
C74    C     0.63600   0.68000   0.05400   0.01267  Uiso   1.00
C75    C     0.60200   0.70600   0.06400   0.01267  Uiso   1.00
C76    C     0.62300   0.73400   0.12400   0.01267  Uiso   1.00
C77    C     0.67800   0.73500   0.17300   0.01267  Uiso   1.00
C78    C     0.71200   0.70860   0.16340   0.01267  Uiso   1.00
C79    C     0.88100   0.68800   0.29600   0.01267  Uiso   1.00
C80    C     0.84300   0.67600   0.32400   0.01267  Uiso   1.00
C81    C     0.87800   0.70000   0.38800   0.01267  Uiso   1.00
C82    C     0.95300   0.73500   0.42500   0.01267  Uiso   1.00
C83    C     0.99200   0.74700   0.39700   0.01267  Uiso   1.00
C84    C     0.95600   0.72300   0.33300   0.01267  Uiso   1.00
C85    C     0.87000   0.66600   0.79800   0.01267  Uiso   1.00
C86    C     0.94300   0.71100   0.83700   0.01267  Uiso   1.00
C87    C     0.98500   0.73500   0.81300   0.01267  Uiso   1.00
C88    C     0.95400   0.71200   0.75000   0.01267  Uiso   1.00
C89    C     0.88100   0.66700   0.71100   0.01267  Uiso   1.00
C90    C     0.83900   0.64300   0.73500   0.01267  Uiso   1.00
C91    C     0.48000   0.66700   0.87500   0.01267  Uiso   1.00
C92    C     0.70300   0.48830   0.09170   0.01267  Uiso   1.00
C93    C     0.73200   0.48300   0.14900   0.01267  Uiso   1.00
C94    C     0.70400   0.42610   0.15390   0.01267  Uiso   1.00
C95    C     0.64700   0.37400   0.10200   0.01267  Uiso   1.00
C96    C     0.61700   0.37800   0.04400   0.01267  Uiso   1.00
C97    C     0.64600   0.43520   0.03880   0.01267  Uiso   1.00
N1     N     0.65700   0.62300   0.89300   0.01267  Uiso   1.00
N2     N     0.66600   0.63000   0.01600   0.01267  Uiso   1.00
N3     N     0.70900   0.65000   0.07800   0.01267  Uiso   1.00
N4     N     0.82300   0.64700   0.06700   0.01267  Uiso   1.00
N5     N     0.78300   0.62500   0.00500   0.01267  Uiso   1.00
N6     N     0.66800   0.50800   0.00600   0.01267  Uiso   1.00
N7     N     0.62300   0.44600   0.98400   0.01267  Uiso   1.00
N8     N     0.62100   0.44500   0.86700   0.01267  Uiso   1.00
N9     N     0.66200   0.50800   0.89000   0.01267  Uiso   1.00
N10    N     0.50600   0.44800   0.87800   0.01267  Uiso   1.00
N11    N     0.54400   0.50900   0.89900   0.01267  Uiso   1.00
N12    N     0.62100   0.64700   0.99900   0.01267  Uiso   1.00
N13    N     0.69900   0.52500   0.86100   0.01267  Uiso   1.00
N14    N     0.69600   0.63800   0.86600   0.01267  Uiso   1.00
N15    N     0.61900   0.64900   0.88300   0.01267  Uiso   1.00
N16    N     0.50600   0.53500   0.88300   0.01267  Uiso   1.00
N17    N     0.81600   0.64000   0.97200   0.01267  Uiso   1.00
N18    N     0.71600   0.53000   0.06000   0.01267  Uiso   1.00
O1     O     0.09100   0.82300   0.58900   0.01267  Uiso   1.00
O2     O     0.24500   0.93200   0.70600   0.01267  Uiso   1.00
O3     O     0.20600   0.76400   0.69800   0.01267  Uiso   1.00
O4     O     0.45800   0.62400   0.84000   0.01267  Uiso   1.00
O5     O     0.77800   0.62800   0.20000   0.01267  Uiso   1.00
O6     O     0.87600   0.67100   0.20100   0.01267  Uiso   1.00
O7     O     0.84100   0.65700   0.87100   0.01267  Uiso   1.00
O8     O     0.75000   0.60000   0.77400   0.01267  Uiso   1.00
O9     O     0.12300   0.80900   0.75500   0.01267  Uiso   1.00
O10    O     0.53600   0.70500   0.92300   0.01267  Uiso   1.00
O11    O     0.46300   0.32400   0.91000   0.01267  Uiso   1.00
O12    O     0.51400   0.31600   0.85800   0.01267  Uiso   1.00
Zn6    Zn    0.33600   0.04930   0.43150   0.01267  Uiso   1.00
Zn7    Zn    0.44470   0.10290   0.59550   0.01267  Uiso   1.00
Zn8    Zn    0.21800   0.88490   0.37290   0.01267  Uiso   1.00
Zn9    Zn    0.23530   0.11820   0.38620   0.01267  Uiso   1.00
Zn10   Zn    0.44870   0.09080   0.37320   0.01267  Uiso   1.00
H81    H     0.76390   0.23140   0.17200   0.01267  Uiso   1.00
H82    H     0.73150   0.27020   0.14740   0.01267  Uiso   1.00
H83    H     0.87660   0.39750   0.23230   0.01267  Uiso   1.00
H84    H     0.81680   0.38280   0.16480   0.01267  Uiso   1.00
H85    H     0.78710   0.23820   0.09000   0.01267  Uiso   1.00
H86    H     0.84590   0.30070   0.09510   0.01267  Uiso   1.00
H87    H     0.44980   0.90130   0.23790   0.01267  Uiso   1.00
H88    H     0.43420   0.84140   0.25280   0.01267  Uiso   1.00
H89    H     0.37740   0.83820   0.19080   0.01267  Uiso   1.00
H90    H     0.62600   0.23450   0.36170   0.01267  Uiso   1.00
H91    H     0.67520   0.19630   0.18470   0.01267  Uiso   1.00
H92    H     0.62580   0.17420   0.47980   0.01267  Uiso   1.00
H93    H     0.62010   0.17680   0.65840   0.01267  Uiso   1.00
H94    H     0.32130   0.75160   0.22100   0.01267  Uiso   1.00
H95    H     0.30500   0.74040   0.27200   0.01267  Uiso   1.00
H96    H     0.24530   0.73110   0.20790   0.01267  Uiso   1.00
H97    H     0.74130   0.32060   0.36960   0.01267  Uiso   1.00
H98    H     0.56880   0.10850   0.17810   0.01267  Uiso   1.00
H99    H     0.48850   0.07420   0.22100   0.01267  Uiso   1.00
H100   H     0.81900   0.35430   0.33630   0.01267  Uiso   1.00
H101   H     0.74700   0.21140   0.99520   0.01267  Uiso   1.00
H102   H     0.90410   0.58080   0.20080   0.01267  Uiso   1.00
H103   H     0.55100   0.20750   0.79250   0.01267  Uiso   1.00
H104   H     0.36390   0.85280   0.68660   0.01267  Uiso   1.00
H105   H     0.43810   0.90810   0.70390   0.01267  Uiso   1.00
H106   H     0.38910   0.92060   0.71840   0.01267  Uiso   1.00
H107   H     0.01120   0.31130   0.27330   0.01267  Uiso   1.00
H108   H     0.03340   0.48910   0.24650   0.01267  Uiso   1.00
H109   H     0.85100   0.47580   0.15860   0.01267  Uiso   1.00
H110   H     0.67150   0.32130   0.00050   0.01267  Uiso   1.00
H111   H     0.91580   0.31980   0.25140   0.01267  Uiso   1.00
H112   H     0.93690   0.32720   0.20260   0.01267  Uiso   1.00
H113   H     0.70770   0.14870   0.88810   0.01267  Uiso   1.00
H114   H     0.59680   0.28090   0.89570   0.01267  Uiso   1.00
H115   H     0.62220   0.10030   0.77530   0.01267  Uiso   1.00
H116   H     0.22810   0.75310   0.54090   0.01267  Uiso   1.00
H117   H     0.30490   0.77680   0.59700   0.01267  Uiso   1.00
H118   H     0.25140   0.78510   0.60790   0.01267  Uiso   1.00
H119   H     0.80130   0.26650   0.69110   0.01267  Uiso   1.00
H120   H     0.76300   0.27610   0.72210   0.01267  Uiso   1.00
H121   H     0.76470   0.21640   0.71380   0.01267  Uiso   1.00
H122   H     0.85040   0.14640   0.16780   0.01267  Uiso   1.00
H123   H     0.79770   0.25880   0.62900   0.01267  Uiso   1.00
H124   H     0.76900   0.21300   0.56540   0.01267  Uiso   1.00
H125   H     0.76910   0.27350   0.56930   0.01267  Uiso   1.00
H126   H     0.92400   0.09890   0.20290   0.01267  Uiso   1.00
H127   H     0.32920   0.30940   0.65840   0.01267  Uiso   1.00
H128   H     0.31890   0.32520   0.59960   0.01267  Uiso   1.00
H129   H     0.25450   0.26920   0.59560   0.01267  Uiso   1.00
H130   H     0.42490   0.26460   0.74020   0.01267  Uiso   1.00
H131   H     0.42400   0.31850   0.71890   0.01267  Uiso   1.00
H132   H     0.35520   0.26570   0.71230   0.01267  Uiso   1.00
H133   H     0.32180   0.27920   0.21000   0.01267  Uiso   1.00
H134   H     0.24790   0.23290   0.20050   0.01267  Uiso   1.00
H135   H     0.30460   0.29450   0.25850   0.01267  Uiso   1.00
H136   H     0.40170   0.27270   0.20670   0.01267  Uiso   1.00
H137   H     0.46940   0.27360   0.25340   0.01267  Uiso   1.00
H138   H     0.40550   0.21460   0.19380   0.01267  Uiso   1.00
H139   H     0.87580   0.89340   0.19840   0.01267  Uiso   1.00
H140   H     0.91580   0.95890   0.24770   0.01267  Uiso   1.00
H141   H     0.92770   0.95220   0.19360   0.01267  Uiso   1.00
H142   H     0.87480   0.79910   0.20190   0.01267  Uiso   1.00
H143   H     0.92440   0.78220   0.19320   0.01267  Uiso   1.00
H144   H     0.92160   0.78260   0.25220   0.01267  Uiso   1.00
H145   H     0.41740   0.18990   0.66650   0.01267  Uiso   1.00
H146   H     0.27440   0.22420   0.50460   0.01267  Uiso   1.00
H147   H     0.43560   0.18050   0.28910   0.01267  Uiso   1.00
H148   H     0.26680   0.20640   0.29960   0.01267  Uiso   1.00
H149   H     0.04010   0.83220   0.27880   0.01267  Uiso   1.00
H150   H     0.05760   0.01940   0.30460   0.01267  Uiso   1.00
H151   H     0.43510   0.96950   0.29490   0.01267  Uiso   1.00
H152   H     0.25120   0.80300   0.29020   0.01267  Uiso   1.00
H153   H     0.20730   0.69990   0.34770   0.01267  Uiso   1.00
H154   H     0.14790   0.59330   0.30830   0.01267  Uiso   1.00
H155   H     0.01790   0.68520   0.26840   0.01267  Uiso   1.00
H156   H     0.03620   0.12030   0.27410   0.01267  Uiso   1.00
H157   H     0.13990   0.33180   0.34840   0.01267  Uiso   1.00
H158   H     0.20930   0.29120   0.38740   0.01267  Uiso   1.00
H159   H     0.22920   0.81610   0.48150   0.01267  Uiso   1.00
H160   H     0.42100   0.99080   0.65680   0.01267  Uiso   1.00
C98    C     0.83600   0.31000   0.17000   0.01267  Uiso   1.00
C99    C     0.62100   0.21900   0.87700   0.01267  Uiso   1.00
C100   C     0.77400   0.27300   0.17700   0.01267  Uiso   1.00
C101   C     0.85800   0.38100   0.18900   0.01267  Uiso   1.00
C102   C     0.80800   0.28200   0.10200   0.01267  Uiso   1.00
C103   C     0.55600   0.14800   0.29800   0.01267  Uiso   1.00
C104   C     0.56400   0.15200   0.56800   0.01267  Uiso   1.00
C105   C     0.41300   0.86300   0.23300   0.01267  Uiso   1.00
C106   C     0.61600   0.20900   0.32700   0.01267  Uiso   1.00
C107   C     0.68700   0.22000   0.22200   0.01267  Uiso   1.00
C108   C     0.62700   0.17600   0.51600   0.01267  Uiso   1.00
C109   C     0.62300   0.18000   0.62400   0.01267  Uiso   1.00
C110   C     0.56600   0.14900   0.51900   0.01267  Uiso   1.00
C111   C     0.29600   0.75500   0.23900   0.01267  Uiso   1.00
C112   C     0.72900   0.29400   0.33400   0.01267  Uiso   1.00
C113   C     0.64300   0.19500   0.24700   0.01267  Uiso   1.00
C114   C     0.58100   0.13400   0.21400   0.01267  Uiso   1.00
C115   C     0.53200   0.11200   0.24200   0.01267  Uiso   1.00
C116   C     0.74500   0.27500   0.25500   0.01267  Uiso   1.00
C117   C     0.77500   0.31700   0.31500   0.01267  Uiso   1.00
C118   C     0.70900   0.26700   0.00500   0.01267  Uiso   1.00
C119   C     0.67300   0.20300   0.90500   0.01267  Uiso   1.00
C120   C     0.71700   0.22400   0.97400   0.01267  Uiso   1.00
C121   C     0.94100   0.47500   0.20100   0.01267  Uiso   1.00
C122   C     0.93200   0.56400   0.21000   0.01267  Uiso   1.00
C123   C     0.58100   0.19400   0.81200   0.01267  Uiso   1.00
C124   C     0.58000   0.15300   0.77700   0.01267  Uiso   1.00
C125   C     0.38900   0.89400   0.69000   0.01267  Uiso   1.00
C126   C     0.99400   0.27000   0.26000   0.01267  Uiso   1.00
C127   C     0.00800   0.50800   0.23800   0.01267  Uiso   1.00
C128   C     0.92700   0.23200   0.22000   0.01267  Uiso   1.00
C129   C     0.90100   0.50200   0.18600   0.01267  Uiso   1.00
C130   C     0.66700   0.23700   0.30500   0.01267  Uiso   1.00
C131   C     0.15800   0.77600   0.34200   0.01267  Uiso   1.00
C132   C     0.66900   0.28900   0.97700   0.01267  Uiso   1.00
C133   C     0.89800   0.30400   0.20800   0.01267  Uiso   1.00
C134   C     0.18000   0.17500   0.36300   0.01267  Uiso   1.00
C135   C     0.68800   0.20700   0.57300   0.01267  Uiso   1.00
C136   C     0.67500   0.15900   0.86900   0.01267  Uiso   1.00
C137   C     0.62500   0.26600   0.91400   0.01267  Uiso   1.00
C138   C     0.62400   0.13000   0.80000   0.01267  Uiso   1.00
C139   C     0.26800   0.78500   0.58100   0.01267  Uiso   1.00
C140   C     0.76200   0.24600   0.69600   0.01267  Uiso   1.00
C141   C     0.69100   0.21300   0.63300   0.01267  Uiso   1.00
C142   C     0.89900   0.17200   0.19800   0.01267  Uiso   1.00
C143   C     0.76300   0.24100   0.58500   0.01267  Uiso   1.00
C144   C     0.94300   0.14100   0.21900   0.01267  Uiso   1.00
C145   C     0.30500   0.29200   0.61400   0.01267  Uiso   1.00
C146   C     0.39600   0.27500   0.71100   0.01267  Uiso   1.00
C147   C     0.29800   0.26200   0.23000   0.01267  Uiso   1.00
C148   C     0.41800   0.24900   0.22500   0.01267  Uiso   1.00
C149   C     0.92000   0.93400   0.22200   0.01267  Uiso   1.00
C150   C     0.92000   0.80200   0.22200   0.01267  Uiso   1.00
C151   C     0.32100   0.17600   0.52600   0.01267  Uiso   1.00
C152   C     0.36400   0.16600   0.57400   0.01267  Uiso   1.00
C153   C     0.38900   0.19630   0.63370   0.01267  Uiso   1.00
C154   C     0.37100   0.23800   0.64600   0.01267  Uiso   1.00
C155   C     0.32800   0.24900   0.59700   0.01267  Uiso   1.00
C156   C     0.30300   0.21700   0.53700   0.01267  Uiso   1.00
C157   C     0.37200   0.15700   0.32300   0.01267  Uiso   1.00
C158   C     0.40200   0.18500   0.29100   0.01267  Uiso   1.00
C159   C     0.38100   0.22100   0.26300   0.01267  Uiso   1.00
C160   C     0.33000   0.23000   0.26600   0.01267  Uiso   1.00
C161   C     0.30100   0.20100   0.29700   0.01267  Uiso   1.00
C162   C     0.32100   0.16500   0.32500   0.01267  Uiso   1.00
C163   C     0.11100   0.92500   0.31900   0.01267  Uiso   1.00
C164   C     0.04400   0.87000   0.28400   0.01267  Uiso   1.00
C165   C     0.98200   0.87100   0.25700   0.01267  Uiso   1.00
C166   C     0.98700   0.92700   0.26500   0.01267  Uiso   1.00
C167   C     0.05400   0.98200   0.30000   0.01267  Uiso   1.00
C168   C     0.11600   0.98100   0.32700   0.01267  Uiso   1.00
C169   C     0.53300   0.12800   0.70600   0.01267  Uiso   1.00
C170   C     0.30900   0.89700   0.31900   0.01267  Uiso   1.00
C171   C     0.36400   0.94600   0.32000   0.01267  Uiso   1.00
C172   C     0.39800   0.93600   0.29400   0.01267  Uiso   1.00
C173   C     0.37700   0.87600   0.26600   0.01267  Uiso   1.00
C174   C     0.32200   0.82700   0.26500   0.01267  Uiso   1.00
C175   C     0.28800   0.83660   0.29140   0.01267  Uiso   1.00
C176   C     0.11900   0.70400   0.31200   0.01267  Uiso   1.00
C177   C     0.15700   0.67600   0.32400   0.01267  Uiso   1.00
C178   C     0.12200   0.61200   0.30000   0.01267  Uiso   1.00
C179   C     0.04700   0.57500   0.26500   0.01267  Uiso   1.00
C180   C     0.00800   0.60300   0.25300   0.01267  Uiso   1.00
C181   C     0.04400   0.66700   0.27700   0.01267  Uiso   1.00
C182   C     0.13000   0.20200   0.33400   0.01267  Uiso   1.00
C183   C     0.05700   0.16300   0.28900   0.01267  Uiso   1.00
C184   C     0.01500   0.18700   0.26500   0.01267  Uiso   1.00
C185   C     0.04600   0.25000   0.28800   0.01267  Uiso   1.00
C186   C     0.11900   0.28900   0.33300   0.01267  Uiso   1.00
C187   C     0.16100   0.26500   0.35700   0.01267  Uiso   1.00
C188   C     0.52000   0.12500   0.33300   0.01267  Uiso   1.00
C189   C     0.29700   0.90830   0.51170   0.01267  Uiso   1.00
C190   C     0.26800   0.85100   0.51700   0.01267  Uiso   1.00
C191   C     0.29600   0.84610   0.57390   0.01267  Uiso   1.00
C192   C     0.35300   0.89800   0.62600   0.01267  Uiso   1.00
C193   C     0.38300   0.95600   0.62200   0.01267  Uiso   1.00
C194   C     0.35400   0.96120   0.56480   0.01267  Uiso   1.00
N19    N     0.34300   0.10700   0.37700   0.01267  Uiso   1.00
N20    N     0.33400   0.98400   0.37000   0.01267  Uiso   1.00
N21    N     0.29100   0.92200   0.35000   0.01267  Uiso   1.00
N22    N     0.17700   0.93300   0.35300   0.01267  Uiso   1.00
N23    N     0.21700   0.99500   0.37500   0.01267  Uiso   1.00
N24    N     0.33200   0.99400   0.49200   0.01267  Uiso   1.00
N25    N     0.37700   0.01600   0.55400   0.01267  Uiso   1.00
N26    N     0.37900   0.13300   0.55500   0.01267  Uiso   1.00
N27    N     0.33800   0.11000   0.49200   0.01267  Uiso   1.00
N28    N     0.49400   0.12200   0.55200   0.01267  Uiso   1.00
N29    N     0.45600   0.10100   0.49100   0.01267  Uiso   1.00
N30    N     0.37900   0.00100   0.35300   0.01267  Uiso   1.00
N31    N     0.30100   0.13900   0.47500   0.01267  Uiso   1.00
N32    N     0.30400   0.13400   0.36200   0.01267  Uiso   1.00
N33    N     0.38100   0.11700   0.35100   0.01267  Uiso   1.00
N34    N     0.49400   0.11700   0.46500   0.01267  Uiso   1.00
N35    N     0.18400   0.02800   0.36000   0.01267  Uiso   1.00
N36    N     0.28400   0.94000   0.47000   0.01267  Uiso   1.00
O13    O     0.90900   0.41100   0.17700   0.01267  Uiso   1.00
O14    O     0.75500   0.29400   0.06800   0.01267  Uiso   1.00
O15    O     0.79400   0.30200   0.23600   0.01267  Uiso   1.00
O16    O     0.54200   0.16000   0.37600   0.01267  Uiso   1.00
O17    O     0.22200   0.80000   0.37200   0.01267  Uiso   1.00
O18    O     0.12400   0.79900   0.32900   0.01267  Uiso   1.00
O19    O     0.15900   0.12900   0.34300   0.01267  Uiso   1.00
O20    O     0.25000   0.22600   0.40000   0.01267  Uiso   1.00
O21    O     0.87700   0.24500   0.19100   0.01267  Uiso   1.00
O22    O     0.46400   0.07700   0.29500   0.01267  Uiso   1.00
O23    O     0.53700   0.09000   0.67600   0.01267  Uiso   1.00
O24    O     0.48600   0.14200   0.68400   0.01267  Uiso   1.00
