data_FAZPED_clean
_audit_creation_date              2014-07-02
_audit_creation_method            'Materials Studio'
_symmetry_space_group_name_H-M    'P1'
_symmetry_Int_Tables_number       1
_symmetry_cell_setting            triclinic
loop_
_symmetry_equiv_pos_as_xyz
  x,y,z
_cell_length_a                    12.1720
_cell_length_b                    16.3974
_cell_length_c                    16.3974
_cell_angle_alpha                 65.9106
_cell_angle_beta                  75.6740
_cell_angle_gamma                 104.3260
loop_
_atom_site_label
_atom_site_type_symbol
_atom_site_fract_x
_atom_site_fract_y
_atom_site_fract_z
_atom_site_U_iso_or_equiv
_atom_site_adp_type
_atom_site_occupancy
Co1    Co    0.37748   0.40059   0.55276   0.01267  Uiso   1.00
Co2    Co    0.60413   0.35322   0.60697   0.01267  Uiso   1.00
Co3    Co    0.93024   0.55276   0.04665   0.01267  Uiso   1.00
Co4    Co    0.21110   0.60697   0.03981   0.01267  Uiso   1.00
Co5    Co    0.97689   0.04665   0.40059   0.01267  Uiso   1.00
Co6    Co    0.25091   0.03981   0.35322   0.01267  Uiso   1.00
Co7    Co    0.62252   0.59941   0.44724   0.01267  Uiso   1.00
Co8    Co    0.39587   0.64678   0.39303   0.01267  Uiso   1.00
Co9    Co    0.06976   0.44724   0.95335   0.01267  Uiso   1.00
Co10   Co    0.78890   0.39303   0.96019   0.01267  Uiso   1.00
Co11   Co    0.02311   0.95335   0.59941   0.01267  Uiso   1.00
Co12   Co    0.74909   0.96019   0.64678   0.01267  Uiso   1.00
H1     H     0.24800   0.56370   0.23050   0.01267  Uiso   1.00
H2     H     0.43710   0.38610   0.14470   0.01267  Uiso   1.00
H3     H     0.20250   0.12170   0.59430   0.01267  Uiso   1.00
H4     H     0.16000   0.85030   0.71260   0.01267  Uiso   1.00
H5     H     0.43940   0.04380   0.70690   0.01267  Uiso   1.00
H6     H     0.42200   0.38320   0.29000   0.01267  Uiso   1.00
H7     H     0.32780   0.88500   0.74970   0.01267  Uiso   1.00
H8     H     0.35390   0.47530   0.04910   0.01267  Uiso   1.00
H9     H     0.47850   0.23050   0.20580   0.01267  Uiso   1.00
H10    H     0.58180   0.14470   0.46920   0.01267  Uiso   1.00
H11    H     0.79680   0.59430   0.28400   0.01267  Uiso   1.00
H12    H     0.87260   0.71260   0.43710   0.01267  Uiso   1.00
H13    H     0.14630   0.70690   0.24930   0.01267  Uiso   1.00
H14    H     0.71200   0.29000   0.32680   0.01267  Uiso   1.00
H15    H     0.07750   0.74970   0.36530   0.01267  Uiso   1.00
H16    H     0.40300   0.04910   0.47560   0.01267  Uiso   1.00
H17    H     0.68430   0.20580   0.56370   0.01267  Uiso   1.00
H18    H     0.05100   0.46920   0.38610   0.01267  Uiso   1.00
H19    H     0.08080   0.28400   0.12170   0.01267  Uiso   1.00
H20    H     0.30970   0.43710   0.85030   0.01267  Uiso   1.00
H21    H     0.39560   0.24930   0.04380   0.01267  Uiso   1.00
H22    H     0.03880   0.32680   0.38320   0.01267  Uiso   1.00
H23    H     0.44280   0.36530   0.88500   0.01267  Uiso   1.00
H24    H     0.87860   0.47560   0.47530   0.01267  Uiso   1.00
H25    H     0.75200   0.43630   0.76950   0.01267  Uiso   1.00
H26    H     0.56290   0.61390   0.85530   0.01267  Uiso   1.00
H27    H     0.79750   0.87830   0.40570   0.01267  Uiso   1.00
H28    H     0.84000   0.14970   0.28740   0.01267  Uiso   1.00
H29    H     0.56060   0.95620   0.29310   0.01267  Uiso   1.00
H30    H     0.57800   0.61680   0.71000   0.01267  Uiso   1.00
H31    H     0.67220   0.11500   0.25030   0.01267  Uiso   1.00
H32    H     0.64610   0.52470   0.95090   0.01267  Uiso   1.00
H33    H     0.52150   0.76950   0.79420   0.01267  Uiso   1.00
H34    H     0.41820   0.85530   0.53080   0.01267  Uiso   1.00
H35    H     0.20320   0.40570   0.71600   0.01267  Uiso   1.00
H36    H     0.12740   0.28740   0.56290   0.01267  Uiso   1.00
H37    H     0.85370   0.29310   0.75070   0.01267  Uiso   1.00
H38    H     0.28800   0.71000   0.67320   0.01267  Uiso   1.00
H39    H     0.92250   0.25030   0.63470   0.01267  Uiso   1.00
H40    H     0.59700   0.95090   0.52440   0.01267  Uiso   1.00
H41    H     0.31570   0.79420   0.43630   0.01267  Uiso   1.00
H42    H     0.94900   0.53080   0.61390   0.01267  Uiso   1.00
H43    H     0.91920   0.71600   0.87830   0.01267  Uiso   1.00
H44    H     0.69030   0.56290   0.14970   0.01267  Uiso   1.00
H45    H     0.60440   0.75070   0.95620   0.01267  Uiso   1.00
H46    H     0.96120   0.67320   0.61680   0.01267  Uiso   1.00
H47    H     0.55720   0.63470   0.11500   0.01267  Uiso   1.00
H48    H     0.12140   0.52440   0.52470   0.01267  Uiso   1.00
C1     C     0.33440   0.47460   0.27430   0.01267  Uiso   1.00
C2     C     0.28620   0.52720   0.21320   0.01267  Uiso   1.00
C3     C     0.33260   0.09960   0.64390   0.01267  Uiso   1.00
C4     C     0.39840   0.42150   0.16390   0.01267  Uiso   1.00
C5     C     0.23000   0.07390   0.62420   0.01267  Uiso   1.00
C6     C     0.20440   0.91440   0.69420   0.01267  Uiso   1.00
C7     C     0.32710   0.48000   0.36640   0.01267  Uiso   1.00
C8     C     0.37100   0.02880   0.69190   0.01267  Uiso   1.00
C9     C     0.39030   0.42000   0.24970   0.01267  Uiso   1.00
C10    C     0.39810   0.20520   0.61300   0.01267  Uiso   1.00
C11    C     0.30440   0.93460   0.71710   0.01267  Uiso   1.00
C12    C     0.34850   0.47550   0.10660   0.01267  Uiso   1.00
C13    C     0.60870   0.27430   0.25110   0.01267  Uiso   1.00
C14    C     0.49940   0.21320   0.25960   0.01267  Uiso   1.00
C15    C     0.97650   0.64390   0.25650   0.01267  Uiso   1.00
C16    C     0.56230   0.16390   0.41460   0.01267  Uiso   1.00
C17    C     0.85420   0.62420   0.30190   0.01267  Uiso   1.00
C18    C     0.89860   0.69420   0.39140   0.01267  Uiso   1.00
C19    C     0.69350   0.36640   0.15360   0.01267  Uiso   1.00
C20    C     0.06290   0.69190   0.27930   0.01267  Uiso   1.00
C21    C     0.64000   0.24970   0.33030   0.01267  Uiso   1.00
C22    C     0.01110   0.61300   0.18180   0.01267  Uiso   1.00
C23    C     0.02150   0.71710   0.34830   0.01267  Uiso   1.00
C24    C     0.45510   0.10660   0.41790   0.01267  Uiso   1.00
C25    C     0.85980   0.25110   0.47460   0.01267  Uiso   1.00
C26    C     0.75900   0.25960   0.52720   0.01267  Uiso   1.00
C27    C     0.23300   0.25650   0.09960   0.01267  Uiso   1.00
C28    C     0.97690   0.41460   0.42150   0.01267  Uiso   1.00
C29    C     0.15610   0.30190   0.07390   0.01267  Uiso   1.00
C30    C     0.29000   0.39140   0.91440   0.01267  Uiso   1.00
C31    C     0.84710   0.15360   0.48000   0.01267  Uiso   1.00
C32    C     0.34220   0.27930   0.02880   0.01267  Uiso   1.00
C33    C     0.97030   0.33030   0.42000   0.01267  Uiso   1.00
C34    C     0.19290   0.18180   0.20520   0.01267  Uiso   1.00
C35    C     0.36980   0.34830   0.93460   0.01267  Uiso   1.00
C36    C     0.87300   0.41790   0.47550   0.01267  Uiso   1.00
C37    C     0.66560   0.52540   0.72570   0.01267  Uiso   1.00
C38    C     0.71380   0.47280   0.78680   0.01267  Uiso   1.00
C39    C     0.66740   0.90040   0.35610   0.01267  Uiso   1.00
C40    C     0.60160   0.57850   0.83610   0.01267  Uiso   1.00
C41    C     0.77000   0.92610   0.37580   0.01267  Uiso   1.00
C42    C     0.79560   0.08560   0.30580   0.01267  Uiso   1.00
C43    C     0.67290   0.52000   0.63360   0.01267  Uiso   1.00
C44    C     0.62900   0.97120   0.30810   0.01267  Uiso   1.00
C45    C     0.60970   0.58000   0.75030   0.01267  Uiso   1.00
C46    C     0.60190   0.79480   0.38700   0.01267  Uiso   1.00
C47    C     0.69560   0.06540   0.28290   0.01267  Uiso   1.00
C48    C     0.65150   0.52450   0.89340   0.01267  Uiso   1.00
C49    C     0.39130   0.72570   0.74890   0.01267  Uiso   1.00
C50    C     0.50060   0.78680   0.74040   0.01267  Uiso   1.00
C51    C     0.02350   0.35610   0.74350   0.01267  Uiso   1.00
C52    C     0.43770   0.83610   0.58540   0.01267  Uiso   1.00
C53    C     0.14580   0.37580   0.69810   0.01267  Uiso   1.00
C54    C     0.10140   0.30580   0.60860   0.01267  Uiso   1.00
C55    C     0.30650   0.63360   0.84640   0.01267  Uiso   1.00
C56    C     0.93710   0.30810   0.72070   0.01267  Uiso   1.00
C57    C     0.36000   0.75030   0.66970   0.01267  Uiso   1.00
C58    C     0.98890   0.38700   0.81820   0.01267  Uiso   1.00
C59    C     0.97850   0.28290   0.65170   0.01267  Uiso   1.00
C60    C     0.54490   0.89340   0.58210   0.01267  Uiso   1.00
C61    C     0.14020   0.74890   0.52540   0.01267  Uiso   1.00
C62    C     0.24100   0.74040   0.47280   0.01267  Uiso   1.00
C63    C     0.76700   0.74350   0.90040   0.01267  Uiso   1.00
C64    C     0.02310   0.58540   0.57850   0.01267  Uiso   1.00
C65    C     0.84390   0.69810   0.92610   0.01267  Uiso   1.00
C66    C     0.71000   0.60860   0.08560   0.01267  Uiso   1.00
C67    C     0.15290   0.84640   0.52000   0.01267  Uiso   1.00
C68    C     0.65780   0.72070   0.97120   0.01267  Uiso   1.00
C69    C     0.02970   0.66970   0.58000   0.01267  Uiso   1.00
C70    C     0.80710   0.81820   0.79480   0.01267  Uiso   1.00
C71    C     0.63020   0.65170   0.06540   0.01267  Uiso   1.00
C72    C     0.12700   0.58210   0.52450   0.01267  Uiso   1.00
N1     N     0.29290   0.52750   0.13040   0.01267  Uiso   1.00
N2     N     0.16820   0.98310   0.64590   0.01267  Uiso   1.00
N3     N     0.57860   0.44930   0.48210   0.01267  Uiso   1.00
N4     N     0.60350   0.43190   0.41460   0.01267  Uiso   1.00
N5     N     0.62400   0.41820   0.35260   0.01267  Uiso   1.00
N6     N     0.42330   0.13040   0.34210   0.01267  Uiso   1.00
N7     N     0.81410   0.64590   0.37100   0.01267  Uiso   1.00
N8     N     0.06070   0.48210   0.06860   0.01267  Uiso   1.00
N9     N     0.01810   0.41460   0.15350   0.01267  Uiso   1.00
N10    N     0.97660   0.35260   0.22920   0.01267  Uiso   1.00
N11    N     0.76540   0.34210   0.52750   0.01267  Uiso   1.00
N12    N     0.18510   0.37100   0.98310   0.01267  Uiso   1.00
N13    N     0.12930   0.06860   0.44930   0.01267  Uiso   1.00
N14    N     0.17160   0.15350   0.43190   0.01267  Uiso   1.00
N15    N     0.20580   0.22920   0.41820   0.01267  Uiso   1.00
N16    N     0.70710   0.47250   0.86960   0.01267  Uiso   1.00
N17    N     0.83180   0.01690   0.35410   0.01267  Uiso   1.00
N18    N     0.42140   0.55070   0.51790   0.01267  Uiso   1.00
N19    N     0.39650   0.56810   0.58540   0.01267  Uiso   1.00
N20    N     0.37600   0.58180   0.64740   0.01267  Uiso   1.00
N21    N     0.57670   0.86960   0.65790   0.01267  Uiso   1.00
N22    N     0.18590   0.35410   0.62900   0.01267  Uiso   1.00
N23    N     0.93930   0.51790   0.93140   0.01267  Uiso   1.00
N24    N     0.98190   0.58540   0.84650   0.01267  Uiso   1.00
N25    N     0.02340   0.64740   0.77080   0.01267  Uiso   1.00
N26    N     0.23460   0.65790   0.47250   0.01267  Uiso   1.00
N27    N     0.81490   0.62900   0.01690   0.01267  Uiso   1.00
N28    N     0.87070   0.93140   0.55070   0.01267  Uiso   1.00
N29    N     0.82840   0.84650   0.56810   0.01267  Uiso   1.00
N30    N     0.79420   0.77080   0.58180   0.01267  Uiso   1.00
Cl1    Cl    0.41352   0.35615   0.70509   0.01267  Uiso   1.00
Cl2    Cl    0.11861   0.70509   0.93876   0.01267  Uiso   1.00
Cl3    Cl    0.05737   0.93876   0.35615   0.01267  Uiso   1.00
Cl4    Cl    0.58648   0.64385   0.29491   0.01267  Uiso   1.00
Cl5    Cl    0.88139   0.29491   0.06124   0.01267  Uiso   1.00
Cl6    Cl    0.94263   0.06124   0.64385   0.01267  Uiso   1.00
O1     O     0.34700   0.26080   0.58130   0.01267  Uiso   1.00
O2     O     0.35870   0.42340   0.42320   0.01267  Uiso   1.00
O3     O     0.49950   0.22710   0.62080   0.01267  Uiso   1.00
O4     O     0.29270   0.54320   0.37500   0.01267  Uiso   1.00
O5     O     0.92830   0.58130   0.15790   0.01267  Uiso   1.00
O6     O     0.78190   0.42320   0.15340   0.01267  Uiso   1.00
O7     O     0.12030   0.62080   0.15210   0.01267  Uiso   1.00
O8     O     0.66770   0.37500   0.08180   0.01267  Uiso   1.00
O9     O     0.08620   0.15790   0.26080   0.01267  Uiso   1.00
O10    O     0.93530   0.15340   0.42340   0.01267  Uiso   1.00
O11    O     0.27240   0.15210   0.22710   0.01267  Uiso   1.00
O12    O     0.74950   0.08180   0.54320   0.01267  Uiso   1.00
O13    O     0.65300   0.73920   0.41870   0.01267  Uiso   1.00
O14    O     0.64130   0.57660   0.57680   0.01267  Uiso   1.00
O15    O     0.50050   0.77290   0.37920   0.01267  Uiso   1.00
O16    O     0.70730   0.45680   0.62500   0.01267  Uiso   1.00
O17    O     0.07170   0.41870   0.84210   0.01267  Uiso   1.00
O18    O     0.21810   0.57680   0.84660   0.01267  Uiso   1.00
O19    O     0.87970   0.37920   0.84790   0.01267  Uiso   1.00
O20    O     0.33230   0.62500   0.91820   0.01267  Uiso   1.00
O21    O     0.91380   0.84210   0.73920   0.01267  Uiso   1.00
O22    O     0.06470   0.84660   0.57660   0.01267  Uiso   1.00
O23    O     0.72760   0.84790   0.77290   0.01267  Uiso   1.00
O24    O     0.25050   0.91820   0.45680   0.01267  Uiso   1.00
