data_FAZZEM_clean
_audit_creation_date              2014-07-02
_audit_creation_method            'Materials Studio'
_symmetry_space_group_name_H-M    'P1'
_symmetry_Int_Tables_number       1
_symmetry_cell_setting            triclinic
loop_
_symmetry_equiv_pos_as_xyz
  x,y,z
_cell_length_a                    11.5520
_cell_length_b                    12.7420
_cell_length_c                    14.5890
_cell_angle_alpha                 94.2200
_cell_angle_beta                  109.0100
_cell_angle_gamma                 115.5700
loop_
_atom_site_label
_atom_site_type_symbol
_atom_site_fract_x
_atom_site_fract_y
_atom_site_fract_z
_atom_site_U_iso_or_equiv
_atom_site_adp_type
_atom_site_occupancy
La1    La    0.11849   0.54830   0.16889   0.01267  Uiso   1.00
La2    La    0.26551   0.47562   0.55631   0.01267  Uiso   1.00
La3    La    0.88151   0.45170   0.83111   0.01267  Uiso   1.00
La4    La    0.73449   0.52438   0.44369   0.01267  Uiso   1.00
Mo1    Mo    0.12723   0.07303   0.27191   0.01267  Uiso   1.00
Mo2    Mo    0.12198   0.87432   0.11559   0.01267  Uiso   1.00
Mo3    Mo    0.15075   0.24070   0.11396   0.01267  Uiso   1.00
Mo4    Mo    0.14630   0.04356   0.96191   0.01267  Uiso   1.00
Mo5    Mo    0.87277   0.92697   0.72809   0.01267  Uiso   1.00
Mo6    Mo    0.87802   0.12568   0.88441   0.01267  Uiso   1.00
Mo7    Mo    0.84925   0.75930   0.88604   0.01267  Uiso   1.00
Mo8    Mo    0.85370   0.95644   0.03809   0.01267  Uiso   1.00
H1     H     0.38650   0.66010   0.44320   0.01267  Uiso   1.00
H2     H     0.41740   0.58820   0.47010   0.01267  Uiso   1.00
H3     H     0.09410   0.62380   0.46230   0.01267  Uiso   1.00
H4     H     0.12340   0.58480   0.56230   0.01267  Uiso   1.00
H5     H     0.78650   0.16730   0.29430   0.01267  Uiso   1.00
H6     H     0.58190   0.07170   0.14850   0.01267  Uiso   1.00
H7     H     0.57680   0.15000   0.00930   0.01267  Uiso   1.00
H8     H     0.45230   0.61270   0.09740   0.01267  Uiso   1.00
H9     H     0.61470   0.65600   0.02470   0.01267  Uiso   1.00
H10    H     0.81120   0.63430   0.10130   0.01267  Uiso   1.00
H11    H     0.61350   0.33990   0.55680   0.01267  Uiso   1.00
H12    H     0.58260   0.41180   0.52990   0.01267  Uiso   1.00
H13    H     0.90590   0.37620   0.53770   0.01267  Uiso   1.00
H14    H     0.87660   0.41520   0.43770   0.01267  Uiso   1.00
H15    H     0.21350   0.83270   0.70570   0.01267  Uiso   1.00
H16    H     0.41810   0.92830   0.85150   0.01267  Uiso   1.00
H17    H     0.42320   0.85000   0.99070   0.01267  Uiso   1.00
H18    H     0.54770   0.38730   0.90260   0.01267  Uiso   1.00
H19    H     0.38530   0.34400   0.97530   0.01267  Uiso   1.00
H20    H     0.18880   0.36570   0.89870   0.01267  Uiso   1.00
C1     C     0.89230   0.30130   0.23960   0.01267  Uiso   1.00
C2     C     0.78060   0.19790   0.23800   0.01267  Uiso   1.00
C3     C     0.65940   0.14040   0.15110   0.01267  Uiso   1.00
C4     C     0.65620   0.18710   0.06880   0.01267  Uiso   1.00
C5     C     0.77280   0.29000   0.07580   0.01267  Uiso   1.00
C6     C     0.02610   0.37290   0.33130   0.01267  Uiso   1.00
C7     C     0.78120   0.34760   0.99110   0.01267  Uiso   1.00
C8     C     0.56120   0.57690   0.21870   0.01267  Uiso   1.00
C9     C     0.53370   0.60810   0.12830   0.01267  Uiso   1.00
C10    C     0.62970   0.63260   0.08450   0.01267  Uiso   1.00
C11    C     0.74730   0.62170   0.13050   0.01267  Uiso   1.00
C12    C     0.76770   0.59120   0.22210   0.01267  Uiso   1.00
C13    C     0.46610   0.55160   0.27510   0.01267  Uiso   1.00
C14    C     0.89790   0.58510   0.28120   0.01267  Uiso   1.00
C15    C     0.10770   0.69870   0.76040   0.01267  Uiso   1.00
C16    C     0.21940   0.80210   0.76200   0.01267  Uiso   1.00
C17    C     0.34060   0.85960   0.84890   0.01267  Uiso   1.00
C18    C     0.34380   0.81290   0.93120   0.01267  Uiso   1.00
C19    C     0.22720   0.71000   0.92420   0.01267  Uiso   1.00
C20    C     0.97390   0.62710   0.66870   0.01267  Uiso   1.00
C21    C     0.21880   0.65240   0.00890   0.01267  Uiso   1.00
C22    C     0.43880   0.42310   0.78130   0.01267  Uiso   1.00
C23    C     0.46630   0.39190   0.87170   0.01267  Uiso   1.00
C24    C     0.37030   0.36740   0.91550   0.01267  Uiso   1.00
C25    C     0.25270   0.37830   0.86950   0.01267  Uiso   1.00
C26    C     0.23230   0.40880   0.77790   0.01267  Uiso   1.00
C27    C     0.53390   0.44840   0.72490   0.01267  Uiso   1.00
C28    C     0.10210   0.41490   0.71880   0.01267  Uiso   1.00
N1     N     0.88950   0.34670   0.16000   0.01267  Uiso   1.00
N2     N     0.67780   0.56940   0.26500   0.01267  Uiso   1.00
N3     N     0.11050   0.65330   0.84000   0.01267  Uiso   1.00
N4     N     0.32220   0.43060   0.73500   0.01267  Uiso   1.00
O1     O     0.12540   0.45840   0.32250   0.01267  Uiso   1.00
O2     O     0.03060   0.34490   0.41270   0.01267  Uiso   1.00
O3     O     0.88370   0.45230   0.01207   0.01267  Uiso   1.00
O4     O     0.30820   0.70700   0.09590   0.01267  Uiso   1.00
O5     O     0.90870   0.56190   0.36520   0.01267  Uiso   1.00
O6     O     0.98730   0.60570   0.24560   0.01267  Uiso   1.00
O7     O     0.50630   0.52360   0.35610   0.01267  Uiso   1.00
O8     O     0.35830   0.56010   0.23900   0.01267  Uiso   1.00
O9     O     0.11860   0.36010   0.10300   0.01267  Uiso   1.00
O10    O     0.10420   0.04730   0.09722   0.01267  Uiso   1.00
O11    O     0.08470   0.91040   0.22757   0.01267  Uiso   1.00
O12    O     0.11140   0.20690   0.22740   0.01267  Uiso   1.00
O13    O     0.89450   0.98350   0.16640   0.01267  Uiso   1.00
O14    O     0.07700   0.72600   0.10810   0.01267  Uiso   1.00
O15    O     0.88570   0.81850   0.02651   0.01267  Uiso   1.00
O16    O     0.09240   0.88050   0.97447   0.01267  Uiso   1.00
O17    O     0.42780   0.64560   0.49440   0.01267  Uiso   1.00
O18    O     0.16560   0.62030   0.51300   0.01267  Uiso   1.00
O19    O     0.87460   0.54160   0.67750   0.01267  Uiso   1.00
O20    O     0.96940   0.65510   0.58730   0.01267  Uiso   1.00
O21    O     0.11630   0.54770   0.98793   0.01267  Uiso   1.00
O22    O     0.69180   0.29300   0.90410   0.01267  Uiso   1.00
O23    O     0.09130   0.43810   0.63480   0.01267  Uiso   1.00
O24    O     0.01270   0.39430   0.75440   0.01267  Uiso   1.00
O25    O     0.49370   0.47640   0.64390   0.01267  Uiso   1.00
O26    O     0.64170   0.43990   0.76100   0.01267  Uiso   1.00
O27    O     0.88140   0.63990   0.89700   0.01267  Uiso   1.00
O28    O     0.89580   0.95270   0.90278   0.01267  Uiso   1.00
O29    O     0.91530   0.08960   0.77243   0.01267  Uiso   1.00
O30    O     0.88860   0.79310   0.77260   0.01267  Uiso   1.00
O31    O     0.10550   0.01650   0.83360   0.01267  Uiso   1.00
O32    O     0.92300   0.27400   0.89190   0.01267  Uiso   1.00
O33    O     0.11430   0.18150   0.97349   0.01267  Uiso   1.00
O34    O     0.90760   0.11950   0.02553   0.01267  Uiso   1.00
O35    O     0.57220   0.35440   0.50560   0.01267  Uiso   1.00
O36    O     0.83440   0.37970   0.48700   0.01267  Uiso   1.00
