data_image0
_cell_length_a       13.668
_cell_length_b       17.525
_cell_length_c       19.059
_cell_angle_alpha    90
_cell_angle_beta     90
_cell_angle_gamma    90

_symmetry_space_group_name_H-M    "P 1"
_symmetry_int_tables_number       1

loop_
  _symmetry_equiv_pos_as_xyz
  'x, y, z'

loop_
  _atom_site_label
  _atom_site_occupancy
  _atom_site_fract_x
  _atom_site_fract_y
  _atom_site_fract_z
  _atom_site_thermal_displace_type
  _atom_site_B_iso_or_equiv
  _atom_site_type_symbol
  Cu1      1.0000 0.43001  0.13977  0.60977  Biso   1.000  Cu
  O1       1.0000 0.52401  0.11773  0.68530  Biso   1.000  O
  O2       1.0000 0.56210  0.99570  0.66380  Biso   1.000  O
  O3       1.0000 0.56942  0.04848  0.92371  Biso   1.000  O
  O4       1.0000 0.49020  0.01612  0.82526  Biso   1.000  O
  O5       1.0000 0.33732  0.31384  0.04337  Biso   1.000  O
  O6       1.0000 0.31640  0.21848  0.11941  Biso   1.000  O
  O7       1.0000 0.25270  0.02286  0.99433  Biso   1.000  O
  O8       1.0000 0.36970  0.11169  0.99723  Biso   1.000  O
  N1       1.0000 0.81960  0.10564  0.82728  Biso   1.000  N
  N2       1.0000 0.04340  0.18052  0.94702  Biso   1.000  N
  C1       1.0000 0.73560  0.08211  0.85602  Biso   1.000  C
  H1       1.0000 0.73280  0.07760  0.90460  Biso   1.000  H
  C2       1.0000 0.65250  0.06405  0.81799  Biso   1.000  C
  C3       1.0000 0.56180  0.04040  0.85782  Biso   1.000  C
  C4       1.0000 0.65760  0.06804  0.74465  Biso   1.000  C
  C5       1.0000 0.57230  0.05680  0.69495  Biso   1.000  C
  C6       1.0000 0.74660  0.08960  0.71525  Biso   1.000  C
  H2       1.0000 0.75320  0.09120  0.66670  Biso   1.000  H
  C7       1.0000 0.82500  0.10870  0.75688  Biso   1.000  C
  H3       1.0000 0.88320  0.12400  0.73590  Biso   1.000  H
  C8       1.0000 0.11870  0.13250  0.95771  Biso   1.000  C
  H4       1.0000 0.11360  0.08320  0.93990  Biso   1.000  H
  C9       1.0000 0.20360  0.15170  0.99374  Biso   1.000  C
  C10      1.0000 0.28310  0.09120  0.99696  Biso   1.000  C
  C11      1.0000 0.21100  0.22580  0.02048  Biso   1.000  C
  C12      1.0000 0.29660  0.25240  0.06544  Biso   1.000  C
  C13      1.0000 0.13280  0.27520  0.00949  Biso   1.000  C
  H5       1.0000 0.13580  0.32490  0.02640  Biso   1.000  H
  C14      1.0000 0.05111  0.25105  0.97374  Biso   1.000  C
  H6       1.0000 0.99930  0.28490  0.96790  Biso   1.000  H
  Cu2      1.0000 0.06999  0.86023  0.10977  Biso   1.000  Cu
  O9       1.0000 0.97599  0.88227  0.18530  Biso   1.000  O
  O10      1.0000 0.93790  0.00430  0.16380  Biso   1.000  O
  O11      1.0000 0.93058  0.95152  0.42371  Biso   1.000  O
  O12      1.0000 0.00980  0.98388  0.32526  Biso   1.000  O
  O13      1.0000 0.16268  0.68616  0.54337  Biso   1.000  O
  O14      1.0000 0.18360  0.78152  0.61941  Biso   1.000  O
  O15      1.0000 0.24730  0.97714  0.49433  Biso   1.000  O
  O16      1.0000 0.13030  0.88831  0.49723  Biso   1.000  O
  N3       1.0000 0.68040  0.89436  0.32728  Biso   1.000  N
  N4       1.0000 0.45660  0.81948  0.44702  Biso   1.000  N
  C15      1.0000 0.76440  0.91789  0.35602  Biso   1.000  C
  H7       1.0000 0.76720  0.92240  0.40460  Biso   1.000  H
  C16      1.0000 0.84750  0.93595  0.31799  Biso   1.000  C
  C17      1.0000 0.93820  0.95960  0.35782  Biso   1.000  C
  C18      1.0000 0.84240  0.93196  0.24465  Biso   1.000  C
  C19      1.0000 0.92770  0.94320  0.19495  Biso   1.000  C
  C20      1.0000 0.75340  0.91040  0.21525  Biso   1.000  C
  H8       1.0000 0.74680  0.90880  0.16670  Biso   1.000  H
  C21      1.0000 0.67500  0.89130  0.25688  Biso   1.000  C
  H9       1.0000 0.61680  0.87600  0.23590  Biso   1.000  H
  C22      1.0000 0.38130  0.86750  0.45771  Biso   1.000  C
  H10      1.0000 0.38640  0.91680  0.43990  Biso   1.000  H
  C23      1.0000 0.29640  0.84830  0.49374  Biso   1.000  C
  C24      1.0000 0.21690  0.90880  0.49696  Biso   1.000  C
  C25      1.0000 0.28900  0.77420  0.52048  Biso   1.000  C
  C26      1.0000 0.20340  0.74760  0.56544  Biso   1.000  C
  C27      1.0000 0.36720  0.72480  0.50949  Biso   1.000  C
  H11      1.0000 0.36420  0.67510  0.52640  Biso   1.000  H
  C28      1.0000 0.44889  0.74895  0.47374  Biso   1.000  C
  H12      1.0000 0.50070  0.71510  0.46790  Biso   1.000  H
  Cu3      1.0000 0.56999  0.63977  0.89023  Biso   1.000  Cu
  O17      1.0000 0.47599  0.61773  0.81470  Biso   1.000  O
  O18      1.0000 0.43790  0.49570  0.83620  Biso   1.000  O
  O19      1.0000 0.43058  0.54848  0.57629  Biso   1.000  O
  O20      1.0000 0.50980  0.51612  0.67474  Biso   1.000  O
  O21      1.0000 0.66268  0.81384  0.45663  Biso   1.000  O
  O22      1.0000 0.68360  0.71848  0.38059  Biso   1.000  O
  O23      1.0000 0.74730  0.52286  0.50567  Biso   1.000  O
  O24      1.0000 0.63030  0.61169  0.50277  Biso   1.000  O
  N5       1.0000 0.18040  0.60564  0.67272  Biso   1.000  N
  N6       1.0000 0.95660  0.68052  0.55298  Biso   1.000  N
  C29      1.0000 0.26440  0.58211  0.64398  Biso   1.000  C
  H13      1.0000 0.26720  0.57760  0.59540  Biso   1.000  H
  C30      1.0000 0.34750  0.56405  0.68201  Biso   1.000  C
  C31      1.0000 0.43820  0.54040  0.64218  Biso   1.000  C
  C32      1.0000 0.34240  0.56804  0.75535  Biso   1.000  C
  C33      1.0000 0.42770  0.55680  0.80505  Biso   1.000  C
  C34      1.0000 0.25340  0.58960  0.78475  Biso   1.000  C
  H14      1.0000 0.24680  0.59120  0.83330  Biso   1.000  H
  C35      1.0000 0.17500  0.60870  0.74312  Biso   1.000  C
  H15      1.0000 0.11680  0.62400  0.76410  Biso   1.000  H
  C36      1.0000 0.88130  0.63250  0.54229  Biso   1.000  C
  H16      1.0000 0.88640  0.58320  0.56010  Biso   1.000  H
  C37      1.0000 0.79640  0.65170  0.50626  Biso   1.000  C
  C38      1.0000 0.71690  0.59120  0.50304  Biso   1.000  C
  C39      1.0000 0.78900  0.72580  0.47952  Biso   1.000  C
  C40      1.0000 0.70340  0.75240  0.43456  Biso   1.000  C
  C41      1.0000 0.86720  0.77520  0.49051  Biso   1.000  C
  H17      1.0000 0.86420  0.82490  0.47360  Biso   1.000  H
  C42      1.0000 0.94889  0.75105  0.52626  Biso   1.000  C
  H18      1.0000 0.00070  0.78490  0.53210  Biso   1.000  H
  Cu4      1.0000 0.93001  0.36023  0.39023  Biso   1.000  Cu
  O25      1.0000 0.02401  0.38227  0.31470  Biso   1.000  O
  O26      1.0000 0.06210  0.50430  0.33620  Biso   1.000  O
  O27      1.0000 0.06942  0.45152  0.07629  Biso   1.000  O
  O28      1.0000 0.99020  0.48388  0.17474  Biso   1.000  O
  O29      1.0000 0.83732  0.18616  0.95663  Biso   1.000  O
  O30      1.0000 0.81640  0.28152  0.88059  Biso   1.000  O
  O31      1.0000 0.75270  0.47714  0.00567  Biso   1.000  O
  O32      1.0000 0.86970  0.38831  0.00277  Biso   1.000  O
  N7       1.0000 0.31960  0.39436  0.17272  Biso   1.000  N
  N8       1.0000 0.54340  0.31948  0.05298  Biso   1.000  N
  C43      1.0000 0.23560  0.41789  0.14398  Biso   1.000  C
  H19      1.0000 0.23280  0.42240  0.09540  Biso   1.000  H
  C44      1.0000 0.15250  0.43595  0.18201  Biso   1.000  C
  C45      1.0000 0.06180  0.45960  0.14218  Biso   1.000  C
  C46      1.0000 0.15760  0.43196  0.25535  Biso   1.000  C
  C47      1.0000 0.07230  0.44320  0.30505  Biso   1.000  C
  C48      1.0000 0.24660  0.41040  0.28475  Biso   1.000  C
  H20      1.0000 0.25320  0.40880  0.33330  Biso   1.000  H
  C49      1.0000 0.32500  0.39130  0.24312  Biso   1.000  C
  H21      1.0000 0.38320  0.37600  0.26410  Biso   1.000  H
  C50      1.0000 0.61870  0.36750  0.04229  Biso   1.000  C
  H22      1.0000 0.61360  0.41680  0.06010  Biso   1.000  H
  C51      1.0000 0.70360  0.34830  0.00626  Biso   1.000  C
  C52      1.0000 0.78310  0.40880  0.00304  Biso   1.000  C
  C53      1.0000 0.71100  0.27420  0.97952  Biso   1.000  C
  C54      1.0000 0.79660  0.24760  0.93456  Biso   1.000  C
  C55      1.0000 0.63280  0.22480  0.99051  Biso   1.000  C
  H23      1.0000 0.63580  0.17510  0.97360  Biso   1.000  H
  C56      1.0000 0.55111  0.24895  0.02626  Biso   1.000  C
  H24      1.0000 0.49930  0.21510  0.03210  Biso   1.000  H
  Cu5      1.0000 0.56999  0.86023  0.39023  Biso   1.000  Cu
  O33      1.0000 0.47599  0.88227  0.31470  Biso   1.000  O
  O34      1.0000 0.43790  0.00430  0.33620  Biso   1.000  O
  O35      1.0000 0.43058  0.95152  0.07629  Biso   1.000  O
  O36      1.0000 0.50980  0.98388  0.17474  Biso   1.000  O
  O37      1.0000 0.66268  0.68616  0.95663  Biso   1.000  O
  O38      1.0000 0.68360  0.78152  0.88059  Biso   1.000  O
  O39      1.0000 0.74730  0.97714  0.00567  Biso   1.000  O
  O40      1.0000 0.63030  0.88831  0.00277  Biso   1.000  O
  N9       1.0000 0.18040  0.89436  0.17272  Biso   1.000  N
  N10      1.0000 0.95660  0.81948  0.05298  Biso   1.000  N
  C57      1.0000 0.26440  0.91789  0.14398  Biso   1.000  C
  H25      1.0000 0.26720  0.92240  0.09540  Biso   1.000  H
  C58      1.0000 0.34750  0.93595  0.18201  Biso   1.000  C
  C59      1.0000 0.43820  0.95960  0.14218  Biso   1.000  C
  C60      1.0000 0.34240  0.93196  0.25535  Biso   1.000  C
  C61      1.0000 0.42770  0.94320  0.30505  Biso   1.000  C
  C62      1.0000 0.25340  0.91040  0.28475  Biso   1.000  C
  H26      1.0000 0.24680  0.90880  0.33330  Biso   1.000  H
  C63      1.0000 0.17500  0.89130  0.24312  Biso   1.000  C
  H27      1.0000 0.11680  0.87600  0.26410  Biso   1.000  H
  C64      1.0000 0.88130  0.86750  0.04229  Biso   1.000  C
  H28      1.0000 0.88640  0.91680  0.06010  Biso   1.000  H
  C65      1.0000 0.79640  0.84830  0.00626  Biso   1.000  C
  C66      1.0000 0.71690  0.90880  0.00304  Biso   1.000  C
  C67      1.0000 0.78900  0.77420  0.97952  Biso   1.000  C
  C68      1.0000 0.70340  0.74760  0.93456  Biso   1.000  C
  C69      1.0000 0.86720  0.72480  0.99051  Biso   1.000  C
  H29      1.0000 0.86420  0.67510  0.97360  Biso   1.000  H
  C70      1.0000 0.94889  0.74895  0.02626  Biso   1.000  C
  H30      1.0000 0.00070  0.71510  0.03210  Biso   1.000  H
  Cu6      1.0000 0.93001  0.13977  0.89023  Biso   1.000  Cu
  O41      1.0000 0.02401  0.11773  0.81470  Biso   1.000  O
  O42      1.0000 0.06210  0.99570  0.83620  Biso   1.000  O
  O43      1.0000 0.06942  0.04848  0.57629  Biso   1.000  O
  O44      1.0000 0.99020  0.01612  0.67474  Biso   1.000  O
  O45      1.0000 0.83732  0.31384  0.45663  Biso   1.000  O
  O46      1.0000 0.81640  0.21848  0.38059  Biso   1.000  O
  O47      1.0000 0.75270  0.02286  0.50567  Biso   1.000  O
  O48      1.0000 0.86970  0.11169  0.50277  Biso   1.000  O
  N11      1.0000 0.31960  0.10564  0.67272  Biso   1.000  N
  N12      1.0000 0.54340  0.18052  0.55298  Biso   1.000  N
  C71      1.0000 0.23560  0.08211  0.64398  Biso   1.000  C
  H31      1.0000 0.23280  0.07760  0.59540  Biso   1.000  H
  C72      1.0000 0.15250  0.06405  0.68201  Biso   1.000  C
  C73      1.0000 0.06180  0.04040  0.64218  Biso   1.000  C
  C74      1.0000 0.15760  0.06804  0.75535  Biso   1.000  C
  C75      1.0000 0.07230  0.05680  0.80505  Biso   1.000  C
  C76      1.0000 0.24660  0.08960  0.78475  Biso   1.000  C
  H32      1.0000 0.25320  0.09120  0.83330  Biso   1.000  H
  C77      1.0000 0.32500  0.10870  0.74312  Biso   1.000  C
  H33      1.0000 0.38320  0.12400  0.76410  Biso   1.000  H
  C78      1.0000 0.61870  0.13250  0.54229  Biso   1.000  C
  H34      1.0000 0.61360  0.08320  0.56010  Biso   1.000  H
  C79      1.0000 0.70360  0.15170  0.50626  Biso   1.000  C
  C80      1.0000 0.78310  0.09120  0.50304  Biso   1.000  C
  C81      1.0000 0.71100  0.22580  0.47952  Biso   1.000  C
  C82      1.0000 0.79660  0.25240  0.43456  Biso   1.000  C
  C83      1.0000 0.63280  0.27520  0.49051  Biso   1.000  C
  H35      1.0000 0.63580  0.32490  0.47360  Biso   1.000  H
  C84      1.0000 0.55111  0.25105  0.52626  Biso   1.000  C
  H36      1.0000 0.49930  0.28490  0.53210  Biso   1.000  H
  Cu7      1.0000 0.43001  0.36023  0.10977  Biso   1.000  Cu
  O49      1.0000 0.52401  0.38227  0.18530  Biso   1.000  O
  O50      1.0000 0.56210  0.50430  0.16380  Biso   1.000  O
  O51      1.0000 0.56942  0.45152  0.42371  Biso   1.000  O
  O52      1.0000 0.49020  0.48388  0.32526  Biso   1.000  O
  O53      1.0000 0.33732  0.18616  0.54337  Biso   1.000  O
  O54      1.0000 0.31640  0.28152  0.61941  Biso   1.000  O
  O55      1.0000 0.25270  0.47714  0.49433  Biso   1.000  O
  O56      1.0000 0.36970  0.38831  0.49723  Biso   1.000  O
  N13      1.0000 0.81960  0.39436  0.32728  Biso   1.000  N
  N14      1.0000 0.04340  0.31948  0.44702  Biso   1.000  N
  C85      1.0000 0.73560  0.41789  0.35602  Biso   1.000  C
  H37      1.0000 0.73280  0.42240  0.40460  Biso   1.000  H
  C86      1.0000 0.65250  0.43595  0.31799  Biso   1.000  C
  C87      1.0000 0.56180  0.45960  0.35782  Biso   1.000  C
  C88      1.0000 0.65760  0.43196  0.24465  Biso   1.000  C
  C89      1.0000 0.57230  0.44320  0.19495  Biso   1.000  C
  C90      1.0000 0.74660  0.41040  0.21525  Biso   1.000  C
  H38      1.0000 0.75320  0.40880  0.16670  Biso   1.000  H
  C91      1.0000 0.82500  0.39130  0.25688  Biso   1.000  C
  H39      1.0000 0.88320  0.37600  0.23590  Biso   1.000  H
  C92      1.0000 0.11870  0.36750  0.45771  Biso   1.000  C
  H40      1.0000 0.11360  0.41680  0.43990  Biso   1.000  H
  C93      1.0000 0.20360  0.34830  0.49374  Biso   1.000  C
  C94      1.0000 0.28310  0.40880  0.49696  Biso   1.000  C
  C95      1.0000 0.21100  0.27420  0.52048  Biso   1.000  C
  C96      1.0000 0.29660  0.24760  0.56544  Biso   1.000  C
  C97      1.0000 0.13280  0.22480  0.50949  Biso   1.000  C
  H41      1.0000 0.13580  0.17510  0.52640  Biso   1.000  H
  C98      1.0000 0.05111  0.24895  0.47374  Biso   1.000  C
  H42      1.0000 0.99930  0.21510  0.46790  Biso   1.000  H
  Cu8      1.0000 0.06999  0.63977  0.60977  Biso   1.000  Cu
  O57      1.0000 0.97599  0.61773  0.68530  Biso   1.000  O
  O58      1.0000 0.93790  0.49570  0.66380  Biso   1.000  O
  O59      1.0000 0.93058  0.54848  0.92371  Biso   1.000  O
  O60      1.0000 0.00980  0.51612  0.82526  Biso   1.000  O
  O61      1.0000 0.16268  0.81384  0.04337  Biso   1.000  O
  O62      1.0000 0.18360  0.71848  0.11941  Biso   1.000  O
  O63      1.0000 0.24730  0.52286  0.99433  Biso   1.000  O
  O64      1.0000 0.13030  0.61169  0.99723  Biso   1.000  O
  N15      1.0000 0.68040  0.60564  0.82728  Biso   1.000  N
  N16      1.0000 0.45660  0.68052  0.94702  Biso   1.000  N
  C99      1.0000 0.76440  0.58211  0.85602  Biso   1.000  C
  H43      1.0000 0.76720  0.57760  0.90460  Biso   1.000  H
  C100     1.0000 0.84750  0.56405  0.81799  Biso   1.000  C
  C101     1.0000 0.93820  0.54040  0.85782  Biso   1.000  C
  C102     1.0000 0.84240  0.56804  0.74465  Biso   1.000  C
  C103     1.0000 0.92770  0.55680  0.69495  Biso   1.000  C
  C104     1.0000 0.75340  0.58960  0.71525  Biso   1.000  C
  H44      1.0000 0.74680  0.59120  0.66670  Biso   1.000  H
  C105     1.0000 0.67500  0.60870  0.75688  Biso   1.000  C
  H45      1.0000 0.61680  0.62400  0.73590  Biso   1.000  H
  C106     1.0000 0.38130  0.63250  0.95771  Biso   1.000  C
  H46      1.0000 0.38640  0.58320  0.93990  Biso   1.000  H
  C107     1.0000 0.29640  0.65170  0.99374  Biso   1.000  C
  C108     1.0000 0.21690  0.59120  0.99696  Biso   1.000  C
  C109     1.0000 0.28900  0.72580  0.02048  Biso   1.000  C
  C110     1.0000 0.20340  0.75240  0.06544  Biso   1.000  C
  C111     1.0000 0.36720  0.77520  0.00949  Biso   1.000  C
  H47      1.0000 0.36420  0.82490  0.02640  Biso   1.000  H
  C112     1.0000 0.44889  0.75105  0.97374  Biso   1.000  C
  H48      1.0000 0.50070  0.78490  0.96790  Biso   1.000  H
  Cu9      1.0000 0.50000  0.00000  0.00000  Biso   1.000  Cu
  Cu10     1.0000 0.00000  0.00000  0.50000  Biso   1.000  Cu
  Cu11     1.0000 0.50000  0.50000  0.50000  Biso   1.000  Cu
  Cu12     1.0000 0.00000  0.50000  0.00000  Biso   1.000  Cu
