data_FEBXIV_clean
_audit_creation_date              2014-07-02
_audit_creation_method            'Materials Studio'
_symmetry_space_group_name_H-M    'P1'
_symmetry_Int_Tables_number       1
_symmetry_cell_setting            triclinic
loop_
_symmetry_equiv_pos_as_xyz
  x,y,z
_cell_length_a                    24.4616
_cell_length_b                    24.4616
_cell_length_c                    39.8821
_cell_angle_alpha                 72.1411
_cell_angle_beta                  72.1411
_cell_angle_gamma                 90.0000
loop_
_atom_site_label
_atom_site_type_symbol
_atom_site_fract_x
_atom_site_fract_y
_atom_site_fract_z
_atom_site_U_iso_or_equiv
_atom_site_adp_type
_atom_site_occupancy
Cu1    Cu    0.90300   0.89946   0.27356   0.01267  Uiso   1.00
Cu2    Cu    0.82344   0.82698   0.27356   0.01267  Uiso   1.00
Cu3    Cu    0.64946   0.07344   0.77356   0.01267  Uiso   1.00
Cu4    Cu    0.57698   0.15300   0.77356   0.01267  Uiso   1.00
Cu5    Cu    0.92656   0.35054   0.22644   0.01267  Uiso   1.00
Cu6    Cu    0.84700   0.42302   0.22644   0.01267  Uiso   1.00
Cu7    Cu    0.17302   0.17656   0.72644   0.01267  Uiso   1.00
Cu8    Cu    0.10054   0.09700   0.72644   0.01267  Uiso   1.00
P1     P     0.66301   0.33699   0.00000   0.01267  Uiso   1.00
P2     P     0.33699   0.66301   0.00000   0.01267  Uiso   1.00
P3     P     0.08699   0.58699   0.50000   0.01267  Uiso   1.00
P4     P     0.41301   0.91301   0.50000   0.01267  Uiso   1.00
H1     H     0.70520   0.08890   0.86280   0.01267  Uiso   1.00
H2     H     0.65650   0.26140   0.88520   0.01267  Uiso   1.00
H3     H     0.06000   0.22820   0.81580   0.01267  Uiso   1.00
H4     H     0.87760   0.12940   0.85840   0.01267  Uiso   1.00
H5     H     0.62310   0.23000   0.84560   0.01267  Uiso   1.00
H6     H     0.98640   0.24390   0.86800   0.01267  Uiso   1.00
H7     H     0.73060   0.11390   0.90900   0.01267  Uiso   1.00
H8     H     0.94890   0.11580   0.80900   0.01267  Uiso   1.00
H9     H     0.64310   0.22340   0.95160   0.01267  Uiso   1.00
H10    H     0.86240   0.22610   0.97440   0.01267  Uiso   1.00
H11    H     0.93360   0.21100   0.92600   0.01267  Uiso   1.00
H12    H     0.80860   0.18860   0.88180   0.01267  Uiso   1.00
H13    H     0.43200   0.04830   0.86280   0.01267  Uiso   1.00
H14    H     0.45830   0.85340   0.88520   0.01267  Uiso   1.00
H15    H     0.12420   0.95600   0.81580   0.01267  Uiso   1.00
H16    H     0.26400   0.01220   0.85840   0.01267  Uiso   1.00
H17    H     0.53130   0.92440   0.84560   0.01267  Uiso   1.00
H18    H     0.14560   0.88810   0.86800   0.01267  Uiso   1.00
H19    H     0.36040   0.97710   0.90900   0.01267  Uiso   1.00
H20    H     0.24210   0.07520   0.80900   0.01267  Uiso   1.00
H21    H     0.40530   0.82500   0.95160   0.01267  Uiso   1.00
H22    H     0.16320   0.79950   0.97440   0.01267  Uiso   1.00
H23    H     0.14040   0.86300   0.92600   0.01267  Uiso   1.00
H24    H     0.30960   0.92960   0.88180   0.01267  Uiso   1.00
H25    H     0.83890   0.68200   0.36280   0.01267  Uiso   1.00
H26    H     0.01140   0.70830   0.38520   0.01267  Uiso   1.00
H27    H     0.97820   0.37420   0.31580   0.01267  Uiso   1.00
H28    H     0.87940   0.51400   0.35840   0.01267  Uiso   1.00
H29    H     0.98000   0.78130   0.34560   0.01267  Uiso   1.00
H30    H     0.99390   0.39560   0.36800   0.01267  Uiso   1.00
H31    H     0.86390   0.61040   0.40900   0.01267  Uiso   1.00
H32    H     0.86580   0.49210   0.30900   0.01267  Uiso   1.00
H33    H     0.97340   0.65530   0.45160   0.01267  Uiso   1.00
H34    H     0.97610   0.41320   0.47440   0.01267  Uiso   1.00
H35    H     0.96100   0.39040   0.42600   0.01267  Uiso   1.00
H36    H     0.93860   0.55960   0.38180   0.01267  Uiso   1.00
H37    H     0.79830   0.95520   0.36280   0.01267  Uiso   1.00
H38    H     0.60340   0.90650   0.38520   0.01267  Uiso   1.00
H39    H     0.70600   0.31000   0.31580   0.01267  Uiso   1.00
H40    H     0.76220   0.12760   0.35840   0.01267  Uiso   1.00
H41    H     0.67440   0.87310   0.34560   0.01267  Uiso   1.00
H42    H     0.63810   0.23640   0.36800   0.01267  Uiso   1.00
H43    H     0.72710   0.98060   0.40900   0.01267  Uiso   1.00
H44    H     0.82520   0.19890   0.30900   0.01267  Uiso   1.00
H45    H     0.57500   0.89310   0.45160   0.01267  Uiso   1.00
H46    H     0.54950   0.11240   0.47440   0.01267  Uiso   1.00
H47    H     0.61300   0.18360   0.42600   0.01267  Uiso   1.00
H48    H     0.67960   0.05860   0.38180   0.01267  Uiso   1.00
H49    H     0.31800   0.16110   0.63720   0.01267  Uiso   1.00
H50    H     0.29170   0.98860   0.61480   0.01267  Uiso   1.00
H51    H     0.62580   0.02180   0.68420   0.01267  Uiso   1.00
H52    H     0.48600   0.12060   0.64160   0.01267  Uiso   1.00
H53    H     0.21870   0.02000   0.65440   0.01267  Uiso   1.00
H54    H     0.60440   0.00610   0.63200   0.01267  Uiso   1.00
H55    H     0.38960   0.13610   0.59100   0.01267  Uiso   1.00
H56    H     0.50790   0.13420   0.69100   0.01267  Uiso   1.00
H57    H     0.34470   0.02660   0.54840   0.01267  Uiso   1.00
H58    H     0.58680   0.02390   0.52560   0.01267  Uiso   1.00
H59    H     0.60960   0.03900   0.57400   0.01267  Uiso   1.00
H60    H     0.44040   0.06140   0.61820   0.01267  Uiso   1.00
H61    H     0.04480   0.20170   0.63720   0.01267  Uiso   1.00
H62    H     0.09350   0.39660   0.61480   0.01267  Uiso   1.00
H63    H     0.69000   0.29400   0.68420   0.01267  Uiso   1.00
H64    H     0.87240   0.23780   0.64160   0.01267  Uiso   1.00
H65    H     0.12690   0.32560   0.65440   0.01267  Uiso   1.00
H66    H     0.76360   0.36190   0.63200   0.01267  Uiso   1.00
H67    H     0.01940   0.27290   0.59100   0.01267  Uiso   1.00
H68    H     0.80110   0.17480   0.69100   0.01267  Uiso   1.00
H69    H     0.10690   0.42500   0.54840   0.01267  Uiso   1.00
H70    H     0.88760   0.45050   0.52560   0.01267  Uiso   1.00
H71    H     0.81640   0.38700   0.57400   0.01267  Uiso   1.00
H72    H     0.94140   0.32040   0.61820   0.01267  Uiso   1.00
H73    H     0.95170   0.56800   0.13720   0.01267  Uiso   1.00
H74    H     0.14660   0.54170   0.11480   0.01267  Uiso   1.00
H75    H     0.04400   0.87580   0.18420   0.01267  Uiso   1.00
H76    H     0.98780   0.73600   0.14160   0.01267  Uiso   1.00
H77    H     0.07560   0.46870   0.15440   0.01267  Uiso   1.00
H78    H     0.11190   0.85440   0.13200   0.01267  Uiso   1.00
H79    H     0.02290   0.63960   0.09100   0.01267  Uiso   1.00
H80    H     0.92480   0.75790   0.19100   0.01267  Uiso   1.00
H81    H     0.17500   0.59470   0.04840   0.01267  Uiso   1.00
H82    H     0.20050   0.83680   0.02560   0.01267  Uiso   1.00
H83    H     0.13700   0.85960   0.07400   0.01267  Uiso   1.00
H84    H     0.07040   0.69040   0.11820   0.01267  Uiso   1.00
H85    H     0.91110   0.29480   0.13720   0.01267  Uiso   1.00
H86    H     0.73860   0.34350   0.11480   0.01267  Uiso   1.00
H87    H     0.77180   0.94000   0.18420   0.01267  Uiso   1.00
H88    H     0.87060   0.12240   0.14160   0.01267  Uiso   1.00
H89    H     0.77000   0.37690   0.15440   0.01267  Uiso   1.00
H90    H     0.75610   0.01360   0.13200   0.01267  Uiso   1.00
H91    H     0.88610   0.26940   0.09100   0.01267  Uiso   1.00
H92    H     0.88420   0.05110   0.19100   0.01267  Uiso   1.00
H93    H     0.77660   0.35690   0.04840   0.01267  Uiso   1.00
H94    H     0.77390   0.13760   0.02560   0.01267  Uiso   1.00
H95    H     0.78900   0.06640   0.07400   0.01267  Uiso   1.00
H96    H     0.81140   0.19140   0.11820   0.01267  Uiso   1.00
C1     C     0.63958   0.14166   0.82124   0.01267  Uiso   1.00
C2     C     0.66063   0.15853   0.85014   0.01267  Uiso   1.00
C3     C     0.69434   0.12248   0.86812   0.01267  Uiso   1.00
C4     C     0.66542   0.22654   0.88116   0.01267  Uiso   1.00
C5     C     0.75136   0.23806   0.98308   0.01267  Uiso   1.00
C6     C     0.70028   0.18848   0.89964   0.01267  Uiso   1.00
C7     C     0.02333   0.20846   0.82448   0.01267  Uiso   1.00
C8     C     0.91407   0.14965   0.84970   0.01267  Uiso   1.00
C9     C     0.05711   0.15769   0.77530   0.01267  Uiso   1.00
C10    C     0.01177   0.17017   0.80746   0.01267  Uiso   1.00
C11    C     0.64671   0.20772   0.85736   0.01267  Uiso   1.00
C12    C     0.97908   0.21894   0.85604   0.01267  Uiso   1.00
C13    C     0.77668   0.20929   0.92844   0.01267  Uiso   1.00
C14    C     0.71139   0.13882   0.89476   0.01267  Uiso   1.00
C15    C     0.95701   0.14135   0.82038   0.01267  Uiso   1.00
C16    C     0.68120   0.22410   0.95140   0.01267  Uiso   1.00
C17    C     0.72042   0.20932   0.92536   0.01267  Uiso   1.00
C18    C     0.79183   0.22243   0.95714   0.01267  Uiso   1.00
C19    C     0.92595   0.18835   0.86610   0.01267  Uiso   1.00
C20    C     0.85206   0.22035   0.95508   0.01267  Uiso   1.00
C21    C     0.89539   0.21044   0.92638   0.01267  Uiso   1.00
C22    C     0.87834   0.19887   0.89652   0.01267  Uiso   1.00
C23    C     0.81977   0.19773   0.89986   0.01267  Uiso   1.00
C24    C     0.69616   0.24186   0.98008   0.01267  Uiso   1.00
C25    C     0.53918   0.03710   0.82124   0.01267  Uiso   1.00
C26    C     0.48923   0.99133   0.85014   0.01267  Uiso   1.00
C27    C     0.43754   0.00940   0.86812   0.01267  Uiso   1.00
C28    C     0.45342   0.89230   0.88116   0.01267  Uiso   1.00
C29    C     0.26556   0.77886   0.98308   0.01267  Uiso   1.00
C30    C     0.40008   0.91188   0.89964   0.01267  Uiso   1.00
C31    C     0.15219   0.96706   0.82448   0.01267  Uiso   1.00
C32    C     0.23623   0.00065   0.84970   0.01267  Uiso   1.00
C33    C     0.16759   0.06701   0.77530   0.01267  Uiso   1.00
C34    C     0.18077   0.02237   0.80746   0.01267  Uiso   1.00
C35    C     0.49593   0.93492   0.85736   0.01267  Uiso   1.00
C36    C     0.16488   0.92502   0.85604   0.01267  Uiso   1.00
C37    C     0.29488   0.86227   0.92844   0.01267  Uiso   1.00
C38    C     0.39385   0.96642   0.89476   0.01267  Uiso   1.00
C39    C     0.22261   0.03827   0.82038   0.01267  Uiso   1.00
C40    C     0.36740   0.82450   0.95140   0.01267  Uiso   1.00
C41    C     0.35422   0.86532   0.92536   0.01267  Uiso   1.00
C42    C     0.25103   0.82043   0.95714   0.01267  Uiso   1.00
C43    C     0.20795   0.94555   0.86610   0.01267  Uiso   1.00
C44    C     0.19286   0.82457   0.95508   0.01267  Uiso   1.00
C45    C     0.17823   0.86318   0.92638   0.01267  Uiso   1.00
C46    C     0.22514   0.90461   0.89652   0.01267  Uiso   1.00
C47    C     0.28037   0.90241   0.89986   0.01267  Uiso   1.00
C48    C     0.32376   0.77806   0.98008   0.01267  Uiso   1.00
C49    C     0.89166   0.78918   0.32124   0.01267  Uiso   1.00
C50    C     0.90853   0.73923   0.35014   0.01267  Uiso   1.00
C51    C     0.87248   0.68754   0.36812   0.01267  Uiso   1.00
C52    C     0.97654   0.70342   0.38116   0.01267  Uiso   1.00
C53    C     0.98806   0.51556   0.48308   0.01267  Uiso   1.00
C54    C     0.93848   0.65008   0.39964   0.01267  Uiso   1.00
C55    C     0.95846   0.40219   0.32448   0.01267  Uiso   1.00
C56    C     0.89965   0.48623   0.34970   0.01267  Uiso   1.00
C57    C     0.90769   0.41759   0.27530   0.01267  Uiso   1.00
C58    C     0.92017   0.43077   0.30746   0.01267  Uiso   1.00
C59    C     0.95772   0.74593   0.35736   0.01267  Uiso   1.00
C60    C     0.96894   0.41488   0.35604   0.01267  Uiso   1.00
C61    C     0.95929   0.54488   0.42844   0.01267  Uiso   1.00
C62    C     0.88882   0.64385   0.39476   0.01267  Uiso   1.00
C63    C     0.89135   0.47261   0.32038   0.01267  Uiso   1.00
C64    C     0.97410   0.61740   0.45140   0.01267  Uiso   1.00
C65    C     0.95932   0.60422   0.42536   0.01267  Uiso   1.00
C66    C     0.97243   0.50103   0.45714   0.01267  Uiso   1.00
C67    C     0.93835   0.45795   0.36610   0.01267  Uiso   1.00
C68    C     0.97035   0.44286   0.45508   0.01267  Uiso   1.00
C69    C     0.96044   0.42823   0.42638   0.01267  Uiso   1.00
C70    C     0.94887   0.47514   0.39652   0.01267  Uiso   1.00
C71    C     0.94773   0.53037   0.39986   0.01267  Uiso   1.00
C72    C     0.99186   0.57376   0.48008   0.01267  Uiso   1.00
C73    C     0.78710   0.88958   0.32124   0.01267  Uiso   1.00
C74    C     0.74133   0.91063   0.35014   0.01267  Uiso   1.00
C75    C     0.75940   0.94434   0.36812   0.01267  Uiso   1.00
C76    C     0.64230   0.91542   0.38116   0.01267  Uiso   1.00
C77    C     0.52886   0.00136   0.48308   0.01267  Uiso   1.00
C78    C     0.66188   0.95028   0.39964   0.01267  Uiso   1.00
C79    C     0.71706   0.27333   0.32448   0.01267  Uiso   1.00
C80    C     0.75065   0.16407   0.34970   0.01267  Uiso   1.00
C81    C     0.81701   0.30711   0.27530   0.01267  Uiso   1.00
C82    C     0.77237   0.26177   0.30746   0.01267  Uiso   1.00
C83    C     0.68492   0.89671   0.35736   0.01267  Uiso   1.00
C84    C     0.67502   0.22908   0.35604   0.01267  Uiso   1.00
C85    C     0.61227   0.02668   0.42844   0.01267  Uiso   1.00
C86    C     0.71642   0.96139   0.39476   0.01267  Uiso   1.00
C87    C     0.78827   0.20701   0.32038   0.01267  Uiso   1.00
C88    C     0.57450   0.93120   0.45140   0.01267  Uiso   1.00
C89    C     0.61532   0.97042   0.42536   0.01267  Uiso   1.00
C90    C     0.57043   0.04183   0.45714   0.01267  Uiso   1.00
C91    C     0.69555   0.17595   0.36610   0.01267  Uiso   1.00
C92    C     0.57457   0.10206   0.45508   0.01267  Uiso   1.00
C93    C     0.61318   0.14539   0.42638   0.01267  Uiso   1.00
C94    C     0.65461   0.12834   0.39652   0.01267  Uiso   1.00
C95    C     0.65241   0.06977   0.39986   0.01267  Uiso   1.00
C96    C     0.52806   0.94616   0.48008   0.01267  Uiso   1.00
C97    C     0.21082   0.10834   0.67876   0.01267  Uiso   1.00
C98    C     0.26077   0.09147   0.64986   0.01267  Uiso   1.00
C99    C     0.31246   0.12752   0.63188   0.01267  Uiso   1.00
C100   C     0.29658   0.02346   0.61884   0.01267  Uiso   1.00
C101   C     0.48444   0.01194   0.51692   0.01267  Uiso   1.00
C102   C     0.34992   0.06152   0.60036   0.01267  Uiso   1.00
C103   C     0.59781   0.04154   0.67552   0.01267  Uiso   1.00
C104   C     0.51377   0.10035   0.65030   0.01267  Uiso   1.00
C105   C     0.58241   0.09231   0.72470   0.01267  Uiso   1.00
C106   C     0.56923   0.07983   0.69254   0.01267  Uiso   1.00
C107   C     0.25407   0.04228   0.64264   0.01267  Uiso   1.00
C108   C     0.58512   0.03106   0.64396   0.01267  Uiso   1.00
C109   C     0.45512   0.04071   0.57156   0.01267  Uiso   1.00
C110   C     0.35615   0.11118   0.60524   0.01267  Uiso   1.00
C111   C     0.52739   0.10865   0.67962   0.01267  Uiso   1.00
C112   C     0.38260   0.02590   0.54860   0.01267  Uiso   1.00
C113   C     0.39578   0.04068   0.57464   0.01267  Uiso   1.00
C114   C     0.49897   0.02757   0.54286   0.01267  Uiso   1.00
C115   C     0.54205   0.06165   0.63390   0.01267  Uiso   1.00
C116   C     0.55714   0.02965   0.54492   0.01267  Uiso   1.00
C117   C     0.57177   0.03956   0.57362   0.01267  Uiso   1.00
C118   C     0.52486   0.05113   0.60348   0.01267  Uiso   1.00
C119   C     0.46963   0.05227   0.60014   0.01267  Uiso   1.00
C120   C     0.42624   0.00814   0.51992   0.01267  Uiso   1.00
C121   C     0.11042   0.21290   0.67876   0.01267  Uiso   1.00
C122   C     0.08937   0.25867   0.64986   0.01267  Uiso   1.00
C123   C     0.05566   0.24060   0.63188   0.01267  Uiso   1.00
C124   C     0.08458   0.35770   0.61884   0.01267  Uiso   1.00
C125   C     0.99864   0.47114   0.51692   0.01267  Uiso   1.00
C126   C     0.04972   0.33812   0.60036   0.01267  Uiso   1.00
C127   C     0.72667   0.28294   0.67552   0.01267  Uiso   1.00
C128   C     0.83593   0.24935   0.65030   0.01267  Uiso   1.00
C129   C     0.69289   0.18299   0.72470   0.01267  Uiso   1.00
C130   C     0.73823   0.22763   0.69254   0.01267  Uiso   1.00
C131   C     0.10329   0.31508   0.64264   0.01267  Uiso   1.00
C132   C     0.77092   0.32498   0.64396   0.01267  Uiso   1.00
C133   C     0.97332   0.38773   0.57156   0.01267  Uiso   1.00
C134   C     0.03861   0.28358   0.60524   0.01267  Uiso   1.00
C135   C     0.79299   0.21173   0.67962   0.01267  Uiso   1.00
C136   C     0.06880   0.42550   0.54860   0.01267  Uiso   1.00
C137   C     0.02958   0.38468   0.57464   0.01267  Uiso   1.00
C138   C     0.95817   0.42957   0.54286   0.01267  Uiso   1.00
C139   C     0.82405   0.30445   0.63390   0.01267  Uiso   1.00
C140   C     0.89794   0.42543   0.54492   0.01267  Uiso   1.00
C141   C     0.85461   0.38682   0.57362   0.01267  Uiso   1.00
C142   C     0.87166   0.34539   0.60348   0.01267  Uiso   1.00
C143   C     0.93023   0.34759   0.60014   0.01267  Uiso   1.00
C144   C     0.05384   0.47194   0.51992   0.01267  Uiso   1.00
C145   C     0.96290   0.46082   0.17876   0.01267  Uiso   1.00
C146   C     0.00867   0.51077   0.14986   0.01267  Uiso   1.00
C147   C     0.99060   0.56246   0.13188   0.01267  Uiso   1.00
C148   C     0.10770   0.54658   0.11884   0.01267  Uiso   1.00
C149   C     0.22114   0.73444   0.01692   0.01267  Uiso   1.00
C150   C     0.08812   0.59992   0.10036   0.01267  Uiso   1.00
C151   C     0.03294   0.84781   0.17552   0.01267  Uiso   1.00
C152   C     0.99935   0.76377   0.15030   0.01267  Uiso   1.00
C153   C     0.93299   0.83241   0.22470   0.01267  Uiso   1.00
C154   C     0.97763   0.81923   0.19254   0.01267  Uiso   1.00
C155   C     0.06508   0.50407   0.14264   0.01267  Uiso   1.00
C156   C     0.07498   0.83512   0.14396   0.01267  Uiso   1.00
C157   C     0.13773   0.70512   0.07156   0.01267  Uiso   1.00
C158   C     0.03358   0.60615   0.10524   0.01267  Uiso   1.00
C159   C     0.96173   0.77739   0.17962   0.01267  Uiso   1.00
C160   C     0.17550   0.63260   0.04860   0.01267  Uiso   1.00
C161   C     0.13468   0.64578   0.07464   0.01267  Uiso   1.00
C162   C     0.17957   0.74897   0.04286   0.01267  Uiso   1.00
C163   C     0.05445   0.79205   0.13390   0.01267  Uiso   1.00
C164   C     0.17543   0.80714   0.04492   0.01267  Uiso   1.00
C165   C     0.13682   0.82177   0.07362   0.01267  Uiso   1.00
C166   C     0.09539   0.77486   0.10348   0.01267  Uiso   1.00
C167   C     0.09759   0.71963   0.10014   0.01267  Uiso   1.00
C168   C     0.22194   0.67624   0.01992   0.01267  Uiso   1.00
C169   C     0.85834   0.36042   0.17876   0.01267  Uiso   1.00
C170   C     0.84147   0.33937   0.14986   0.01267  Uiso   1.00
C171   C     0.87752   0.30566   0.13188   0.01267  Uiso   1.00
C172   C     0.77346   0.33458   0.11884   0.01267  Uiso   1.00
C173   C     0.76194   0.24864   0.01692   0.01267  Uiso   1.00
C174   C     0.81152   0.29972   0.10036   0.01267  Uiso   1.00
C175   C     0.79154   0.97667   0.17552   0.01267  Uiso   1.00
C176   C     0.85035   0.08593   0.15030   0.01267  Uiso   1.00
C177   C     0.84231   0.94289   0.22470   0.01267  Uiso   1.00
C178   C     0.82983   0.98823   0.19254   0.01267  Uiso   1.00
C179   C     0.79228   0.35329   0.14264   0.01267  Uiso   1.00
C180   C     0.78106   0.02092   0.14396   0.01267  Uiso   1.00
C181   C     0.79071   0.22332   0.07156   0.01267  Uiso   1.00
C182   C     0.86118   0.28861   0.10524   0.01267  Uiso   1.00
C183   C     0.85865   0.04299   0.17962   0.01267  Uiso   1.00
C184   C     0.77590   0.31880   0.04860   0.01267  Uiso   1.00
C185   C     0.79068   0.27958   0.07464   0.01267  Uiso   1.00
C186   C     0.77757   0.20817   0.04286   0.01267  Uiso   1.00
C187   C     0.81165   0.07405   0.13390   0.01267  Uiso   1.00
C188   C     0.77965   0.14794   0.04492   0.01267  Uiso   1.00
C189   C     0.78956   0.10461   0.07362   0.01267  Uiso   1.00
C190   C     0.80113   0.12166   0.10348   0.01267  Uiso   1.00
C191   C     0.80227   0.18023   0.10014   0.01267  Uiso   1.00
C192   C     0.75814   0.30384   0.01992   0.01267  Uiso   1.00
O1     O     0.66204   0.09695   0.81416   0.01267  Uiso   1.00
O2     O     0.60682   0.17066   0.80902   0.01267  Uiso   1.00
O3     O     0.04458   0.12211   0.76202   0.01267  Uiso   1.00
O4     O     0.10583   0.18528   0.76740   0.01267  Uiso   1.00
O5     O     0.65386   0.26298   0.00604   0.01267  Uiso   1.00
O6     O     0.62959   0.34185   0.03678   0.01267  Uiso   1.00
O7     O     0.52380   0.08889   0.81416   0.01267  Uiso   1.00
O8     O     0.58416   0.02032   0.80902   0.01267  Uiso   1.00
O9     O     0.19340   0.11587   0.76202   0.01267  Uiso   1.00
O10    O     0.12677   0.04732   0.76740   0.01267  Uiso   1.00
O11    O     0.34010   0.73098   0.00604   0.01267  Uiso   1.00
O12    O     0.33363   0.62137   0.03678   0.01267  Uiso   1.00
O13    O     0.84695   0.77380   0.31416   0.01267  Uiso   1.00
O14    O     0.92066   0.83416   0.30902   0.01267  Uiso   1.00
O15    O     0.87211   0.44340   0.26202   0.01267  Uiso   1.00
O16    O     0.93528   0.37677   0.26740   0.01267  Uiso   1.00
O17    O     0.01298   0.59010   0.50604   0.01267  Uiso   1.00
O18    O     0.09185   0.58363   0.53678   0.01267  Uiso   1.00
O19    O     0.83889   0.91204   0.31416   0.01267  Uiso   1.00
O20    O     0.77032   0.85682   0.30902   0.01267  Uiso   1.00
O21    O     0.86587   0.29458   0.26202   0.01267  Uiso   1.00
O22    O     0.79732   0.35583   0.26740   0.01267  Uiso   1.00
O23    O     0.48098   0.90386   0.50604   0.01267  Uiso   1.00
O24    O     0.37137   0.87959   0.53678   0.01267  Uiso   1.00
O25    O     0.22620   0.15305   0.68584   0.01267  Uiso   1.00
O26    O     0.16584   0.07934   0.69098   0.01267  Uiso   1.00
O27    O     0.55660   0.12789   0.73798   0.01267  Uiso   1.00
O28    O     0.62323   0.06472   0.73260   0.01267  Uiso   1.00
O29    O     0.40990   0.98702   0.49396   0.01267  Uiso   1.00
O30    O     0.41637   0.90815   0.46322   0.01267  Uiso   1.00
O31    O     0.08796   0.16111   0.68584   0.01267  Uiso   1.00
O32    O     0.14318   0.22968   0.69098   0.01267  Uiso   1.00
O33    O     0.70542   0.13413   0.73798   0.01267  Uiso   1.00
O34    O     0.64417   0.20268   0.73260   0.01267  Uiso   1.00
O35    O     0.09614   0.51902   0.49396   0.01267  Uiso   1.00
O36    O     0.12041   0.62863   0.46322   0.01267  Uiso   1.00
O37    O     0.91111   0.47620   0.18584   0.01267  Uiso   1.00
O38    O     0.97968   0.41584   0.19098   0.01267  Uiso   1.00
O39    O     0.88413   0.80660   0.23798   0.01267  Uiso   1.00
O40    O     0.95268   0.87323   0.23260   0.01267  Uiso   1.00
O41    O     0.26902   0.65990   0.99396   0.01267  Uiso   1.00
O42    O     0.37863   0.66637   0.96322   0.01267  Uiso   1.00
O43    O     0.90305   0.33796   0.18584   0.01267  Uiso   1.00
O44    O     0.82934   0.39318   0.19098   0.01267  Uiso   1.00
O45    O     0.87789   0.95542   0.23798   0.01267  Uiso   1.00
O46    O     0.81472   0.89417   0.23260   0.01267  Uiso   1.00
O47    O     0.73702   0.34614   0.99396   0.01267  Uiso   1.00
O48    O     0.65815   0.37041   0.96322   0.01267  Uiso   1.00
