data_image0
_cell_length_a       10.3325
_cell_length_b       14.6405
_cell_length_c       9.5112
_cell_angle_alpha    90
_cell_angle_beta     90
_cell_angle_gamma    90

_symmetry_space_group_name_H-M    "P 1"
_symmetry_int_tables_number       1

loop_
  _symmetry_equiv_pos_as_xyz
  'x, y, z'

loop_
  _atom_site_label
  _atom_site_occupancy
  _atom_site_fract_x
  _atom_site_fract_y
  _atom_site_fract_z
  _atom_site_thermal_displace_type
  _atom_site_B_iso_or_equiv
  _atom_site_type_symbol
  P1       1.0000 0.33900  0.77000  0.15700  Biso   1.000  P
  P2       1.0000 0.14600  0.61200  0.63200  Biso   1.000  P
  P3       1.0000 0.34300  0.41500  0.36900  Biso   1.000  P
  Al1      1.0000 0.35400  0.60800  0.38700  Biso   1.000  Al
  Al2      1.0000 0.36600  0.89600  0.38300  Biso   1.000  Al
  Al3      1.0000 0.65100  0.75100  0.13900  Biso   1.000  Al
  O1       1.0000 0.33800  0.69600  0.27200  Biso   1.000  O
  O2       1.0000 0.31100  0.86400  0.21800  Biso   1.000  O
  O3       1.0000 0.48200  0.75800  0.08600  Biso   1.000  O
  O4       1.0000 0.24900  0.76400  0.01800  Biso   1.000  O
  O5       1.0000 0.18200  0.63700  0.79000  Biso   1.000  O
  O6       1.0000 0.13000  0.51200  0.61900  Biso   1.000  O
  O7       1.0000 0.01500  0.66800  0.58800  Biso   1.000  O
  O8       1.0000 0.25600  0.64300  0.53400  Biso   1.000  O
  O9       1.0000 0.30000  0.50600  0.31700  Biso   1.000  O
  O10      1.0000 0.33700  0.34900  0.24200  Biso   1.000  O
  O11      1.0000 0.48200  0.41200  0.42500  Biso   1.000  O
  O12      1.0000 0.25400  0.38100  0.48800  Biso   1.000  O
  P4       1.0000 0.66100  0.23000  0.15700  Biso   1.000  P
  P5       1.0000 0.85400  0.38800  0.63200  Biso   1.000  P
  P6       1.0000 0.65700  0.58500  0.36900  Biso   1.000  P
  Al4      1.0000 0.64600  0.39200  0.38700  Biso   1.000  Al
  Al5      1.0000 0.63400  0.10400  0.38300  Biso   1.000  Al
  Al6      1.0000 0.34900  0.24900  0.13900  Biso   1.000  Al
  O13      1.0000 0.66200  0.30400  0.27200  Biso   1.000  O
  O14      1.0000 0.68900  0.13600  0.21800  Biso   1.000  O
  O15      1.0000 0.51800  0.24200  0.08600  Biso   1.000  O
  O16      1.0000 0.75100  0.23600  0.01800  Biso   1.000  O
  O17      1.0000 0.81800  0.36300  0.79000  Biso   1.000  O
  O18      1.0000 0.87000  0.48800  0.61900  Biso   1.000  O
  O19      1.0000 0.98500  0.33200  0.58800  Biso   1.000  O
  O20      1.0000 0.74400  0.35700  0.53400  Biso   1.000  O
  O21      1.0000 0.70000  0.49400  0.31700  Biso   1.000  O
  O22      1.0000 0.66300  0.65100  0.24200  Biso   1.000  O
  O23      1.0000 0.51800  0.58800  0.42500  Biso   1.000  O
  O24      1.0000 0.74600  0.61900  0.48800  Biso   1.000  O
  P7       1.0000 0.16100  0.27000  0.84300  Biso   1.000  P
  P8       1.0000 0.35400  0.11200  0.36800  Biso   1.000  P
  P9       1.0000 0.15700  0.91500  0.63100  Biso   1.000  P
  Al7      1.0000 0.14600  0.10800  0.61300  Biso   1.000  Al
  Al8      1.0000 0.13400  0.39600  0.61700  Biso   1.000  Al
  Al9      1.0000 0.84900  0.25100  0.86100  Biso   1.000  Al
  O25      1.0000 0.16200  0.19600  0.72800  Biso   1.000  O
  O26      1.0000 0.18900  0.36400  0.78200  Biso   1.000  O
  O27      1.0000 0.01800  0.25800  0.91400  Biso   1.000  O
  O28      1.0000 0.25100  0.26400  0.98200  Biso   1.000  O
  O29      1.0000 0.31800  0.13700  0.21000  Biso   1.000  O
  O30      1.0000 0.37000  0.01200  0.38100  Biso   1.000  O
  O31      1.0000 0.48500  0.16800  0.41200  Biso   1.000  O
  O32      1.0000 0.24400  0.14300  0.46600  Biso   1.000  O
  O33      1.0000 0.20000  0.00600  0.68300  Biso   1.000  O
  O34      1.0000 0.16300  0.84900  0.75800  Biso   1.000  O
  O35      1.0000 0.01800  0.91200  0.57500  Biso   1.000  O
  O36      1.0000 0.24600  0.88100  0.51200  Biso   1.000  O
  P10      1.0000 0.83900  0.73000  0.84300  Biso   1.000  P
  P11      1.0000 0.64600  0.88800  0.36800  Biso   1.000  P
  P12      1.0000 0.84300  0.08500  0.63100  Biso   1.000  P
  Al10     1.0000 0.85400  0.89200  0.61300  Biso   1.000  Al
  Al11     1.0000 0.86600  0.60400  0.61700  Biso   1.000  Al
  Al12     1.0000 0.15100  0.74900  0.86100  Biso   1.000  Al
  O37      1.0000 0.83800  0.80400  0.72800  Biso   1.000  O
  O38      1.0000 0.81100  0.63600  0.78200  Biso   1.000  O
  O39      1.0000 0.98200  0.74200  0.91400  Biso   1.000  O
  O40      1.0000 0.74900  0.73600  0.98200  Biso   1.000  O
  O41      1.0000 0.68200  0.86300  0.21000  Biso   1.000  O
  O42      1.0000 0.63000  0.98800  0.38100  Biso   1.000  O
  O43      1.0000 0.51500  0.83200  0.41200  Biso   1.000  O
  O44      1.0000 0.75600  0.85700  0.46600  Biso   1.000  O
  O45      1.0000 0.80000  0.99400  0.68300  Biso   1.000  O
  O46      1.0000 0.83700  0.15100  0.75800  Biso   1.000  O
  O47      1.0000 0.98200  0.08800  0.57500  Biso   1.000  O
  O48      1.0000 0.75400  0.11900  0.51200  Biso   1.000  O
