data_FECKAA_clean
_audit_creation_date              2014-07-02
_audit_creation_method            'Materials Studio'
_symmetry_space_group_name_H-M    'P1'
_symmetry_Int_Tables_number       1
_symmetry_cell_setting            triclinic
loop_
_symmetry_equiv_pos_as_xyz
  x,y,z
_cell_length_a                    10.9175
_cell_length_b                    21.4699
_cell_length_c                    21.4699
_cell_angle_alpha                 62.8125
_cell_angle_beta                  80.2412
_cell_angle_gamma                 99.7588
loop_
_atom_site_label
_atom_site_type_symbol
_atom_site_fract_x
_atom_site_fract_y
_atom_site_fract_z
_atom_site_U_iso_or_equiv
_atom_site_adp_type
_atom_site_occupancy
Zn1    Zn    0.27628   0.00016   0.08622   0.01267  Uiso   1.00
Zn2    Zn    0.36250   0.08622   0.91362   0.01267  Uiso   1.00
Zn3    Zn    0.27612   0.91362   0.00016   0.01267  Uiso   1.00
Zn4    Zn    0.53927  -0.00000  -0.00000   0.01267  Uiso   1.00
H1     H     0.84210   0.00000   0.24350   0.01267  Uiso   1.00
H2     H     0.48830   0.99350   0.34590   0.01267  Uiso   1.00
H3     H     0.41170   0.99960   0.24850   0.01267  Uiso   1.00
H4     H     0.76550   0.00630   0.14600   0.01267  Uiso   1.00
H5     H     0.68740   0.89630   0.42720   0.01267  Uiso   1.00
H6     H     0.97110   0.12930   0.44720   0.01267  Uiso   1.00
H7     H     0.98940   0.24260   0.34720   0.01267  Uiso   1.00
H8     H     0.78310   0.14060   0.26320   0.01267  Uiso   1.00
H9     H     0.17770   0.99820   0.57080   0.01267  Uiso   1.00
H10    H     0.66870   0.00930   0.55670   0.01267  Uiso   1.00
H11    H     0.55070   0.01140   0.65720   0.01267  Uiso   1.00
H12    H     0.86220   0.00460   0.73680   0.01267  Uiso   1.00
H13    H     0.02970   0.88810   0.75620   0.01267  Uiso   1.00
H14    H     0.15260   0.10910   0.64150   0.01267  Uiso   1.00
H15    H     0.25240   0.10900   0.72990   0.01267  Uiso   1.00
H16    H     0.12960   0.88810   0.84440   0.01267  Uiso   1.00
H17    H     0.23470   0.00950   0.39580   0.01267  Uiso   1.00
H18    H     0.17710   0.93970   0.47780   0.01267  Uiso   1.00
H19    H     0.55790   0.97540   0.39320   0.01267  Uiso   1.00
H20    H     0.51970   0.08750   0.32290   0.01267  Uiso   1.00
H21    H     0.35930   0.12340   0.37470   0.01267  Uiso   1.00
H22    H     0.27540   0.93520   0.56690   0.01267  Uiso   1.00
H23    H     0.43570   0.89920   0.51530   0.01267  Uiso   1.00
H24    H     0.91740   0.89550   0.57460   0.01267  Uiso   1.00
H25    H     0.98250   0.87420   0.51760   0.01267  Uiso   1.00
H26    H     0.02110   0.78260   0.63540   0.01267  Uiso   1.00
H27    H     0.68750   0.76990   0.57710   0.01267  Uiso   1.00
H28    H     0.78110   0.74300   0.48930   0.01267  Uiso   1.00
H29    H     0.99480   0.73610   0.47430   0.01267  Uiso   1.00
H30    H     0.11470   0.75570   0.54760   0.01267  Uiso   1.00
H31    H     0.08560   0.24350   0.75650   0.01267  Uiso   1.00
H32    H     0.83420   0.34590   0.66060   0.01267  Uiso   1.00
H33    H     0.66020   0.24850   0.75190   0.01267  Uiso   1.00
H34    H     0.91150   0.14600   0.84770   0.01267  Uiso   1.00
H35    H     0.11460   0.42720   0.67650   0.01267  Uiso   1.00
H36    H     0.41830   0.44720   0.42350   0.01267  Uiso   1.00
H37    H     0.33660   0.34720   0.41020   0.01267  Uiso   1.00
H38    H     0.04630   0.26320   0.59620   0.01267  Uiso   1.00
H39    H     0.74850   0.57080   0.43100   0.01267  Uiso   1.00
H40    H     0.22540   0.55670   0.43400   0.01267  Uiso   1.00
H41    H     0.20790   0.65720   0.33140   0.01267  Uiso   1.00
H42    H     0.59900   0.73680   0.25860   0.01267  Uiso   1.00
H43    H     0.78590   0.75620   0.35570   0.01267  Uiso   1.00
H44    H     0.79410   0.64150   0.24940   0.01267  Uiso   1.00
H45    H     0.98230   0.72990   0.16110   0.01267  Uiso   1.00
H46    H     0.97400   0.84440   0.26750   0.01267  Uiso   1.00
H47    H     0.63050   0.39580   0.59470   0.01267  Uiso   1.00
H48    H     0.65490   0.47780   0.58250   0.01267  Uiso   1.00
H49    H     0.95110   0.39320   0.63140   0.01267  Uiso   1.00
H50    H     0.84260   0.32290   0.58960   0.01267  Uiso   1.00
H51    H     0.73400   0.37470   0.50190   0.01267  Uiso   1.00
H52    H     0.84230   0.56690   0.49790   0.01267  Uiso   1.00
H53    H     0.95100   0.51530   0.58550   0.01267  Uiso   1.00
H54    H     0.49200   0.57460   0.52990   0.01267  Uiso   1.00
H55    H     0.50010   0.51760   0.60820   0.01267  Uiso   1.00
H56    H     0.65650   0.63540   0.58200   0.01267  Uiso   1.00
H57    H     0.26460   0.57710   0.65300   0.01267  Uiso   1.00
H58    H     0.27040   0.48930   0.76770   0.01267  Uiso   1.00
H59    H     0.46910   0.47430   0.78960   0.01267  Uiso   1.00
H60    H     0.66230   0.54760   0.69670   0.01267  Uiso   1.00
H61    H     0.84210   0.75650   0.00000   0.01267  Uiso   1.00
H62    H     0.49480   0.66060   0.99350   0.01267  Uiso   1.00
H63    H     0.41210   0.75190   0.99960   0.01267  Uiso   1.00
H64    H     0.75920   0.84770   0.00630   0.01267  Uiso   1.00
H65    H     0.79110   0.67650   0.89630   0.01267  Uiso   1.00
H66    H     0.84180   0.42350   0.12930   0.01267  Uiso   1.00
H67    H     0.74680   0.41020   0.24260   0.01267  Uiso   1.00
H68    H     0.64250   0.59620   0.14060   0.01267  Uiso   1.00
H69    H     0.17950   0.43100   0.99820   0.01267  Uiso   1.00
H70    H     0.65940   0.43400   0.00930   0.01267  Uiso   1.00
H71    H     0.53930   0.33140   0.01140   0.01267  Uiso   1.00
H72    H     0.85760   0.25860   0.00460   0.01267  Uiso   1.00
H73    H     0.14160   0.35570   0.88810   0.01267  Uiso   1.00
H74    H     0.04350   0.24940   0.10910   0.01267  Uiso   1.00
H75    H     0.14340   0.16110   0.10900   0.01267  Uiso   1.00
H76    H     0.24150   0.26750   0.88810   0.01267  Uiso   1.00
H77    H     0.22520   0.59470   0.00950   0.01267  Uiso   1.00
H78    H     0.23740   0.58250   0.93970   0.01267  Uiso   1.00
H79    H     0.58250   0.63140   0.97540   0.01267  Uiso   1.00
H80    H     0.43220   0.58960   0.08750   0.01267  Uiso   1.00
H81    H     0.23590   0.50190   0.12340   0.01267  Uiso   1.00
H82    H     0.34020   0.49790   0.93520   0.01267  Uiso   1.00
H83    H     0.53650   0.58550   0.89920   0.01267  Uiso   1.00
H84    H     0.02190   0.52990   0.89550   0.01267  Uiso   1.00
H85    H     0.10830   0.60820   0.87420   0.01267  Uiso   1.00
H86    H     0.23850   0.58200   0.78260   0.01267  Uiso   1.00
H87    H     0.91760   0.65300   0.76990   0.01267  Uiso   1.00
H88    H     0.03810   0.76770   0.74300   0.01267  Uiso   1.00
H89    H     0.25870   0.78960   0.73610   0.01267  Uiso   1.00
H90    H     0.35900   0.69670   0.75570   0.01267  Uiso   1.00
C1     C     0.75500   0.00000   0.24500   0.01267  Uiso   1.00
C2     C     0.67200   0.99600   0.30400   0.01267  Uiso   1.00
C3     C     0.54460   0.99610   0.30530   0.01267  Uiso   1.00
C4     C     0.49910   0.99970   0.24740   0.01267  Uiso   1.00
C5     C     0.58120   0.00360   0.18800   0.01267  Uiso   1.00
C6     C     0.71000   0.00400   0.18600   0.01267  Uiso   1.00
C7     C     0.50530   0.00100   0.13110   0.01267  Uiso   1.00
C8     C     0.25400   0.99900   0.84100   0.01267  Uiso   1.00
C9     C     0.85600   0.00100   0.47400   0.01267  Uiso   1.00
C10    C     0.78900   0.93700   0.47900   0.01267  Uiso   1.00
C11    C     0.73400   0.94100   0.42300   0.01267  Uiso   1.00
C12    C     0.74400   0.00800   0.36400   0.01267  Uiso   1.00
C13    C     0.81100   0.07200   0.35900   0.01267  Uiso   1.00
C14    C     0.86640   0.06840   0.41420   0.01267  Uiso   1.00
C15    C     0.93300   0.13200   0.41000   0.01267  Uiso   1.00
C16    C     0.94400   0.19900   0.35100   0.01267  Uiso   1.00
C17    C     0.88800   0.20300   0.29500   0.01267  Uiso   1.00
C18    C     0.82200   0.13900   0.30000   0.01267  Uiso   1.00
C19    C     0.90520   0.00420   0.52760   0.01267  Uiso   1.00
C20    C     0.03320   0.00120   0.52160   0.01267  Uiso   1.00
C21    C     0.09100  -0.00000   0.57500   0.01267  Uiso   1.00
C22    C     0.02080   0.00180   0.63440   0.01267  Uiso   1.00
C23    C     0.89250   0.00420   0.64070   0.01267  Uiso   1.00
C24    C     0.83600   0.00600   0.58700   0.01267  Uiso   1.00
C25    C     0.70800   0.00900   0.59300   0.01267  Uiso   1.00
C26    C     0.63800   0.00900   0.65300   0.01267  Uiso   1.00
C27    C     0.69500   0.00800   0.70600   0.01267  Uiso   1.00
C28    C     0.82270   0.00470   0.70060   0.01267  Uiso   1.00
C29    C     0.07500   0.93290   0.75090   0.01267  Uiso   1.00
C30    C     0.08240   0.99940   0.69020   0.01267  Uiso   1.00
C31    C     0.14780   0.06480   0.68240   0.01267  Uiso   1.00
C32    C     0.20700   0.06420   0.73520   0.01267  Uiso   1.00
C33    C     0.20000   0.99850   0.79550   0.01267  Uiso   1.00
C34    C     0.13450   0.93280   0.80330   0.01267  Uiso   1.00
C35    C     0.20200   0.99300   0.44800   0.01267  Uiso   1.00
C36    C     0.49400   0.99100   0.41300   0.01267  Uiso   1.00
C37    C     0.47000   0.05600   0.37300   0.01267  Uiso   1.00
C38    C     0.37900   0.07900   0.40200   0.01267  Uiso   1.00
C39    C     0.30200   0.03300   0.47600   0.01267  Uiso   1.00
C40    C     0.32500   0.96600   0.51700   0.01267  Uiso   1.00
C41    C     0.42000   0.94500   0.48700   0.01267  Uiso   1.00
C42    C     0.89900   0.86700   0.55000   0.01267  Uiso   1.00
C43    C     0.97000   0.77500   0.60500   0.01267  Uiso   1.00
C44    C     0.84800   0.77900   0.61500   0.01267  Uiso   1.00
C45    C     0.77400   0.76600   0.57200   0.01267  Uiso   1.00
C46    C     0.83000   0.75000   0.52000   0.01267  Uiso   1.00
C47    C     0.95300   0.74800   0.50900   0.01267  Uiso   1.00
C48    C     0.02800   0.75900   0.55300   0.01267  Uiso   1.00
C49    C     0.00000   0.24500   0.75500   0.01267  Uiso   1.00
C50    C     0.97600   0.30400   0.70000   0.01267  Uiso   1.00
C51    C     0.84990   0.30530   0.69860   0.01267  Uiso   1.00
C52    C     0.74650   0.24740   0.75290   0.01267  Uiso   1.00
C53    C     0.76920   0.18800   0.80840   0.01267  Uiso   1.00
C54    C     0.89600   0.18600   0.81000   0.01267  Uiso   1.00
C55    C     0.63640   0.13110   0.86790   0.01267  Uiso   1.00
C56    C     0.09500   0.84100   0.16000   0.01267  Uiso   1.00
C57    C     0.33000   0.47400   0.52500   0.01267  Uiso   1.00
C58    C     0.26800   0.47900   0.58400   0.01267  Uiso   1.00
C59    C     0.15700   0.42300   0.63600   0.01267  Uiso   1.00
C60    C     0.10800   0.36400   0.62800   0.01267  Uiso   1.00
C61    C     0.17000   0.35900   0.56900   0.01267  Uiso   1.00
C62    C     0.28060   0.41420   0.51740   0.01267  Uiso   1.00
C63    C     0.34300   0.41000   0.45800   0.01267  Uiso   1.00
C64    C     0.29500   0.35100   0.45000   0.01267  Uiso   1.00
C65    C     0.18300   0.29500   0.50200   0.01267  Uiso   1.00
C66    C     0.12200   0.30000   0.56100   0.01267  Uiso   1.00
C67    C     0.43280   0.52760   0.46820   0.01267  Uiso   1.00
C68    C     0.55480   0.52160   0.47720   0.01267  Uiso   1.00
C69    C     0.66600   0.57500   0.42500   0.01267  Uiso   1.00
C70    C     0.65520   0.63440   0.36380   0.01267  Uiso   1.00
C71    C     0.53320   0.64070   0.35510   0.01267  Uiso   1.00
C72    C     0.42300   0.58700   0.40700   0.01267  Uiso   1.00
C73    C     0.30100   0.59300   0.39800   0.01267  Uiso   1.00
C74    C     0.29100   0.65300   0.33800   0.01267  Uiso   1.00
C75    C     0.40100   0.70600   0.28600   0.01267  Uiso   1.00
C76    C     0.52330   0.70060   0.29470   0.01267  Uiso   1.00
C77    C     0.82590   0.75090   0.31620   0.01267  Uiso   1.00
C78    C     0.77260   0.69020   0.31040   0.01267  Uiso   1.00
C79    C     0.83020   0.68240   0.25280   0.01267  Uiso   1.00
C80    C     0.94220   0.73520   0.20060   0.01267  Uiso   1.00
C81    C     0.99550   0.79550   0.20600   0.01267  Uiso   1.00
C82    C     0.93780   0.80330   0.26390   0.01267  Uiso   1.00
C83    C     0.65000   0.44800   0.55900   0.01267  Uiso   1.00
C84    C     0.90700   0.41300   0.59600   0.01267  Uiso   1.00
C85    C     0.84300   0.37300   0.57100   0.01267  Uiso   1.00
C86    C     0.78100   0.40200   0.51900   0.01267  Uiso   1.00
C87    C     0.77800   0.47600   0.49100   0.01267  Uiso   1.00
C88    C     0.84200   0.51700   0.51700   0.01267  Uiso   1.00
C89    C     0.90700   0.48700   0.56800   0.01267  Uiso   1.00
C90    C     0.44900   0.55000   0.58300   0.01267  Uiso   1.00
C91    C     0.57500   0.60500   0.62000   0.01267  Uiso   1.00
C92    C     0.46300   0.61500   0.60600   0.01267  Uiso   1.00
C93    C     0.34600   0.57200   0.66200   0.01267  Uiso   1.00
C94    C     0.35000   0.52000   0.73000   0.01267  Uiso   1.00
C95    C     0.46200   0.50900   0.74300   0.01267  Uiso   1.00
C96    C     0.58100   0.55300   0.68800   0.01267  Uiso   1.00
C97    C     0.75500   0.75500  -0.00000   0.01267  Uiso   1.00
C98    C     0.67600   0.70000   0.99600   0.01267  Uiso   1.00
C99    C     0.54850   0.69860   0.99610   0.01267  Uiso   1.00
C100   C     0.49940   0.75290   0.99970   0.01267  Uiso   1.00
C101   C     0.57760   0.80840   0.00360   0.01267  Uiso   1.00
C102   C     0.70600   0.81000   0.00400   0.01267  Uiso   1.00
C103   C     0.50430   0.86790   0.00100   0.01267  Uiso   1.00
C104   C     0.25500   0.16000   0.99900   0.01267  Uiso   1.00
C105   C     0.85500   0.52500   0.00100   0.01267  Uiso   1.00
C106   C     0.85200   0.58400   0.93700   0.01267  Uiso   1.00
C107   C     0.79300   0.63600   0.94100   0.01267  Uiso   1.00
C108   C     0.73600   0.62800   0.00800   0.01267  Uiso   1.00
C109   C     0.73900   0.56900   0.07200   0.01267  Uiso   1.00
C110   C     0.79800   0.51740   0.06840   0.01267  Uiso   1.00
C111   C     0.80100   0.45800   0.13200   0.01267  Uiso   1.00
C112   C     0.74500   0.45000   0.19900   0.01267  Uiso   1.00
C113   C     0.68500   0.50200   0.20300   0.01267  Uiso   1.00
C114   C     0.68300   0.56100   0.13900   0.01267  Uiso   1.00
C115   C     0.90100   0.46820   0.00420   0.01267  Uiso   1.00
C116   C     0.03200   0.47720   0.00120   0.01267  Uiso   1.00
C117   C     0.09100   0.42500  -0.00000   0.01267  Uiso   1.00
C118   C     0.01900   0.36380   0.00180   0.01267  Uiso   1.00
C119   C     0.88830   0.35510   0.00420   0.01267  Uiso   1.00
C120   C     0.83000   0.40700   0.00600   0.01267  Uiso   1.00
C121   C     0.69900   0.39800   0.00900   0.01267  Uiso   1.00
C122   C     0.62900   0.33800   0.00900   0.01267  Uiso   1.00
C123   C     0.68700   0.28600   0.00800   0.01267  Uiso   1.00
C124   C     0.81800   0.29470   0.00470   0.01267  Uiso   1.00
C125   C     0.14210   0.31620   0.93290   0.01267  Uiso   1.00
C126   C     0.08300   0.31040   0.99940   0.01267  Uiso   1.00
C127   C     0.08300   0.25280   0.06480   0.01267  Uiso   1.00
C128   C     0.14280   0.20060   0.06420   0.01267  Uiso   1.00
C129   C     0.20150   0.20600   0.99850   0.01267  Uiso   1.00
C130   C     0.20170   0.26390   0.93280   0.01267  Uiso   1.00
C131   C     0.20900   0.55900   0.99300   0.01267  Uiso   1.00
C132   C     0.50300   0.59600   0.99100   0.01267  Uiso   1.00
C133   C     0.41400   0.57100   0.05600   0.01267  Uiso   1.00
C134   C     0.30000   0.51900   0.07900   0.01267  Uiso   1.00
C135   C     0.26900   0.49100   0.03300   0.01267  Uiso   1.00
C136   C     0.35900   0.51700   0.96600   0.01267  Uiso   1.00
C137   C     0.47500   0.56800   0.94500   0.01267  Uiso   1.00
C138   C     0.03200   0.58300   0.86700   0.01267  Uiso   1.00
C139   C     0.19500   0.62000   0.77500   0.01267  Uiso   1.00
C140   C     0.06900   0.60600   0.77900   0.01267  Uiso   1.00
C141   C     0.00800   0.66200   0.76600   0.01267  Uiso   1.00
C142   C     0.08000   0.73000   0.75000   0.01267  Uiso   1.00
C143   C     0.20500   0.74300   0.74800   0.01267  Uiso   1.00
C144   C     0.26900   0.68800   0.75900   0.01267  Uiso   1.00
Cl1    Cl    0.57800   0.99500   0.79500   0.01267  Uiso   1.00
Cl2    Cl    0.37300   0.79500   0.21000   0.01267  Uiso   1.00
Cl3    Cl    0.58300   0.21000   0.99500   0.01267  Uiso   1.00
O1     O     0.39820   0.00030   0.14270   0.01267  Uiso   1.00
O2     O     0.58540   0.99950   0.08130   0.01267  Uiso   1.00
O3     O     0.24930   0.10160   0.05170   0.01267  Uiso   1.00
O4     O     0.30180   0.15440   0.94700   0.01267  Uiso   1.00
O5     O     0.11600   0.01800   0.46100   0.01267  Uiso   1.00
O6     O     0.82900   0.89200   0.51200   0.01267  Uiso   1.00
O7     O     0.54090   0.14270   0.85700   0.01267  Uiso   1.00
O8     O     0.66670   0.08130   0.91920   0.01267  Uiso   1.00
O9     O     0.30100   0.05170   0.84670   0.01267  Uiso   1.00
O10    O     0.24880   0.94700   0.89860   0.01267  Uiso   1.00
O11    O     0.57700   0.46100   0.52100   0.01267  Uiso   1.00
O12    O     0.34100   0.51200   0.59600   0.01267  Uiso   1.00
O13    O     0.39790   0.85700   0.00030   0.01267  Uiso   1.00
O14    O     0.58590   0.91920   0.99950   0.01267  Uiso   1.00
O15    O     0.14770   0.84670   0.10160   0.01267  Uiso   1.00
O16    O     0.14740   0.89860   0.15440   0.01267  Uiso   1.00
O17    O     0.09800   0.52100   0.01800   0.01267  Uiso   1.00
O18    O     0.93700   0.59600   0.89200   0.01267  Uiso   1.00
O19    O     0.36467  -0.00000   0.00000   0.01267  Uiso   1.00
