data_FECWOB01_clean
_audit_creation_date              2014-07-02
_audit_creation_method            'Materials Studio'
_symmetry_space_group_name_H-M    'P1'
_symmetry_Int_Tables_number       1
_symmetry_cell_setting            triclinic
loop_
_symmetry_equiv_pos_as_xyz
  x,y,z
_cell_length_a                    6.7910
_cell_length_b                    9.6040
_cell_length_c                    17.7220
_cell_angle_alpha                 101.8260
_cell_angle_beta                  96.5000
_cell_angle_gamma                 106.4250
loop_
_atom_site_label
_atom_site_type_symbol
_atom_site_fract_x
_atom_site_fract_y
_atom_site_fract_z
_atom_site_U_iso_or_equiv
_atom_site_adp_type
_atom_site_occupancy
Zn1    Zn    0.07651   0.53716   0.24926   0.01267  Uiso   1.00
Zn2    Zn    0.15857   0.19034   0.25068   0.01267  Uiso   1.00
Zn3    Zn    0.92349   0.46284   0.75074   0.01267  Uiso   1.00
Zn4    Zn    0.84143   0.80966   0.74932   0.01267  Uiso   1.00
H1     H     0.80870   0.06170   0.01850   0.01267  Uiso   1.00
H2     H     0.21820   0.45800   0.01790   0.01267  Uiso   1.00
H3     H     0.14770   0.39350   0.88170   0.01267  Uiso   1.00
H4     H     0.73550   0.00080   0.88260   0.01267  Uiso   1.00
H5     H     0.35360   0.70160   0.47880   0.01267  Uiso   1.00
H6     H     0.12980   0.27450   0.48760   0.01267  Uiso   1.00
H7     H     0.43000   0.77870   0.61590   0.01267  Uiso   1.00
H8     H     0.18700   0.34910   0.62230   0.01267  Uiso   1.00
H9     H     0.19130   0.93830   0.98150   0.01267  Uiso   1.00
H10    H     0.78180   0.54200   0.98210   0.01267  Uiso   1.00
H11    H     0.85230   0.60650   0.11830   0.01267  Uiso   1.00
H12    H     0.26450   0.99920   0.11740   0.01267  Uiso   1.00
H13    H     0.64640   0.29840   0.52120   0.01267  Uiso   1.00
H14    H     0.87020   0.72550   0.51240   0.01267  Uiso   1.00
H15    H     0.57000   0.22130   0.38410   0.01267  Uiso   1.00
H16    H     0.81300   0.65090   0.37770   0.01267  Uiso   1.00
C1     C     0.93900   0.19070   0.87050   0.01267  Uiso   1.00
C2     C     0.06090   0.30780   0.11930   0.01267  Uiso   1.00
C3     C     0.02200   0.26790   0.03320   0.01267  Uiso   1.00
C4     C     0.87600   0.12860   0.99140   0.01267  Uiso   1.00
C5     C     0.12200   0.36590   0.99100   0.01267  Uiso   1.00
C6     C     0.08070   0.32760   0.90950   0.01267  Uiso   1.00
C7     C     0.83400   0.09140   0.91010   0.01267  Uiso   1.00
C8     C     0.89200   0.15020   0.78300   0.01267  Uiso   1.00
C9     C     0.19080   0.43260   0.38280   0.01267  Uiso   1.00
C10    C     0.36340   0.61780   0.71800   0.01267  Uiso   1.00
C11    C     0.32330   0.63110   0.50830   0.01267  Uiso   1.00
C12    C     0.18710   0.37560   0.51330   0.01267  Uiso   1.00
C13    C     0.36830   0.67790   0.59040   0.01267  Uiso   1.00
C14    C     0.23500   0.48210   0.47120   0.01267  Uiso   1.00
C15    C     0.22470   0.42020   0.59360   0.01267  Uiso   1.00
C16    C     0.31860   0.57040   0.63260   0.01267  Uiso   1.00
C17    C     0.06100   0.80930   0.12950   0.01267  Uiso   1.00
C18    C     0.93910   0.69220   0.88070   0.01267  Uiso   1.00
C19    C     0.97800   0.73210   0.96680   0.01267  Uiso   1.00
C20    C     0.12400   0.87140   0.00860   0.01267  Uiso   1.00
C21    C     0.87800   0.63410   0.00900   0.01267  Uiso   1.00
C22    C     0.91930   0.67240   0.09050   0.01267  Uiso   1.00
C23    C     0.16600   0.90860   0.08990   0.01267  Uiso   1.00
C24    C     0.10800   0.84980   0.21700   0.01267  Uiso   1.00
C25    C     0.80920   0.56740   0.61720   0.01267  Uiso   1.00
C26    C     0.63660   0.38220   0.28200   0.01267  Uiso   1.00
C27    C     0.67670   0.36890   0.49170   0.01267  Uiso   1.00
C28    C     0.81290   0.62440   0.48670   0.01267  Uiso   1.00
C29    C     0.63170   0.32210   0.40960   0.01267  Uiso   1.00
C30    C     0.76500   0.51790   0.52880   0.01267  Uiso   1.00
C31    C     0.77530   0.57980   0.40640   0.01267  Uiso   1.00
C32    C     0.68140   0.42960   0.36740   0.01267  Uiso   1.00
N1     N     0.88400   0.24500   0.73850   0.01267  Uiso   1.00
N2     N     0.22920   0.57170   0.76340   0.01267  Uiso   1.00
N3     N     0.51750   0.72240   0.83940   0.01267  Uiso   1.00
N4     N     0.32960   0.63990   0.84020   0.01267  Uiso   1.00
N5     N     0.83500   0.16440   0.66540   0.01267  Uiso   1.00
N6     N     0.81500   0.02830   0.66660   0.01267  Uiso   1.00
N7     N     0.54620   0.71150   0.76320   0.01267  Uiso   1.00
N8     N     0.84700   0.01270   0.73830   0.01267  Uiso   1.00
N9     N     0.11600   0.75500   0.26150   0.01267  Uiso   1.00
N10    N     0.77080   0.42830   0.23660   0.01267  Uiso   1.00
N11    N     0.48250   0.27760   0.16060   0.01267  Uiso   1.00
N12    N     0.67040   0.36010   0.15980   0.01267  Uiso   1.00
N13    N     0.16500   0.83560   0.33460   0.01267  Uiso   1.00
N14    N     0.18500   0.97170   0.33340   0.01267  Uiso   1.00
N15    N     0.45380   0.28850   0.23680   0.01267  Uiso   1.00
N16    N     0.15300   0.98730   0.26170   0.01267  Uiso   1.00
O1     O     0.00900   0.20260   0.15270   0.01267  Uiso   1.00
O2     O     0.14780   0.44460   0.15350   0.01267  Uiso   1.00
O3     O     0.22850   0.53490   0.34830   0.01267  Uiso   1.00
O4     O     0.12190   0.29390   0.35120   0.01267  Uiso   1.00
O5     O     0.99100   0.79740   0.84730   0.01267  Uiso   1.00
O6     O     0.85220   0.55540   0.84650   0.01267  Uiso   1.00
O7     O     0.77150   0.46510   0.65170   0.01267  Uiso   1.00
O8     O     0.87810   0.70610   0.64880   0.01267  Uiso   1.00
