data_FECXES_clean
_audit_creation_date              2014-07-02
_audit_creation_method            'Materials Studio'
_symmetry_space_group_name_H-M    'P1'
_symmetry_Int_Tables_number       1
_symmetry_cell_setting            triclinic
loop_
_symmetry_equiv_pos_as_xyz
  x,y,z
_cell_length_a                    12.1000
_cell_length_b                    26.1620
_cell_length_c                    26.1620
_cell_angle_alpha                 90.0000
_cell_angle_beta                  90.0000
_cell_angle_gamma                 90.0000
loop_
_atom_site_label
_atom_site_type_symbol
_atom_site_fract_x
_atom_site_fract_y
_atom_site_fract_z
_atom_site_U_iso_or_equiv
_atom_site_adp_type
_atom_site_occupancy
Cu1    Cu    0.07621   0.99393   0.03557   0.01267  Uiso   1.00
Cu2    Cu    0.92379   0.00607   0.53557   0.01267  Uiso   1.00
Cu3    Cu    0.92379   0.49393   0.46443   0.01267  Uiso   1.00
Cu4    Cu    0.07621   0.50607   0.96443   0.01267  Uiso   1.00
Cu5    Cu    0.92379   0.00607   0.96443   0.01267  Uiso   1.00
Cu6    Cu    0.07621   0.99393   0.46443   0.01267  Uiso   1.00
Cu7    Cu    0.07621   0.50607   0.53557   0.01267  Uiso   1.00
Cu8    Cu    0.92379   0.49393   0.03557   0.01267  Uiso   1.00
Cu9    Cu    0.01028   0.70493   0.75000   0.01267  Uiso   1.00
Cu10   Cu    0.85594   0.77610   0.75000   0.01267  Uiso   1.00
Cu11   Cu    0.98972   0.29507   0.25000   0.01267  Uiso   1.00
Cu12   Cu    0.14406   0.22390   0.25000   0.01267  Uiso   1.00
Cu13   Cu    0.98972   0.20493   0.75000   0.01267  Uiso   1.00
Cu14   Cu    0.14406   0.27610   0.75000   0.01267  Uiso   1.00
Cu15   Cu    0.01028   0.79507   0.25000   0.01267  Uiso   1.00
Cu16   Cu    0.85594   0.72390   0.25000   0.01267  Uiso   1.00
H1     H     0.90210   0.61150   0.86880   0.01267  Uiso   1.00
H2     H     0.69940   0.61280   0.98910   0.01267  Uiso   1.00
H3     H     0.66830   0.72010   0.88070   0.01267  Uiso   1.00
H4     H     0.58410   0.76030   0.94780   0.01267  Uiso   1.00
H5     H     0.48810   0.72620   0.92600   0.01267  Uiso   1.00
H6     H     0.43090   0.67550   0.02390   0.01267  Uiso   1.00
H7     H     0.33580   0.69580   0.98810   0.01267  Uiso   1.00
H8     H     0.24570   0.63300   0.02840   0.01267  Uiso   1.00
H9     H     0.00040   0.62520   0.13100   0.01267  Uiso   1.00
H10    H     0.21140   0.74270   0.13280   0.01267  Uiso   1.00
H11    H     0.09790   0.38850   0.36880   0.01267  Uiso   1.00
H12    H     0.30060   0.38720   0.48910   0.01267  Uiso   1.00
H13    H     0.33170   0.27990   0.38070   0.01267  Uiso   1.00
H14    H     0.41590   0.23970   0.44780   0.01267  Uiso   1.00
H15    H     0.51190   0.27380   0.42600   0.01267  Uiso   1.00
H16    H     0.56910   0.32450   0.52390   0.01267  Uiso   1.00
H17    H     0.66420   0.30420   0.48810   0.01267  Uiso   1.00
H18    H     0.75430   0.36700   0.52840   0.01267  Uiso   1.00
H19    H     0.99960   0.37480   0.63100   0.01267  Uiso   1.00
H20    H     0.78860   0.25730   0.63280   0.01267  Uiso   1.00
H21    H     0.09790   0.11150   0.63120   0.01267  Uiso   1.00
H22    H     0.30060   0.11280   0.51090   0.01267  Uiso   1.00
H23    H     0.33170   0.22010   0.61930   0.01267  Uiso   1.00
H24    H     0.41590   0.26030   0.55220   0.01267  Uiso   1.00
H25    H     0.51190   0.22620   0.57400   0.01267  Uiso   1.00
H26    H     0.56910   0.17550   0.47610   0.01267  Uiso   1.00
H27    H     0.66420   0.19580   0.51190   0.01267  Uiso   1.00
H28    H     0.75430   0.13300   0.47160   0.01267  Uiso   1.00
H29    H     0.99960   0.12520   0.36900   0.01267  Uiso   1.00
H30    H     0.78860   0.24270   0.36720   0.01267  Uiso   1.00
H31    H     0.90210   0.88850   0.13120   0.01267  Uiso   1.00
H32    H     0.69940   0.88720   0.01090   0.01267  Uiso   1.00
H33    H     0.66830   0.77990   0.11930   0.01267  Uiso   1.00
H34    H     0.58410   0.73970   0.05220   0.01267  Uiso   1.00
H35    H     0.48810   0.77380   0.07400   0.01267  Uiso   1.00
H36    H     0.43090   0.82450   0.97610   0.01267  Uiso   1.00
H37    H     0.33580   0.80420   0.01190   0.01267  Uiso   1.00
H38    H     0.24570   0.86700   0.97160   0.01267  Uiso   1.00
H39    H     0.00040   0.87480   0.86900   0.01267  Uiso   1.00
H40    H     0.21140   0.75730   0.86720   0.01267  Uiso   1.00
H41    H     0.09790   0.38850   0.13120   0.01267  Uiso   1.00
H42    H     0.30060   0.38720   0.01090   0.01267  Uiso   1.00
H43    H     0.33170   0.27990   0.11930   0.01267  Uiso   1.00
H44    H     0.41590   0.23970   0.05220   0.01267  Uiso   1.00
H45    H     0.51190   0.27380   0.07400   0.01267  Uiso   1.00
H46    H     0.56910   0.32450   0.97610   0.01267  Uiso   1.00
H47    H     0.66420   0.30420   0.01190   0.01267  Uiso   1.00
H48    H     0.75430   0.36700   0.97160   0.01267  Uiso   1.00
H49    H     0.99960   0.37480   0.86900   0.01267  Uiso   1.00
H50    H     0.78860   0.25730   0.86720   0.01267  Uiso   1.00
H51    H     0.90210   0.61150   0.63120   0.01267  Uiso   1.00
H52    H     0.69940   0.61280   0.51090   0.01267  Uiso   1.00
H53    H     0.66830   0.72010   0.61930   0.01267  Uiso   1.00
H54    H     0.58410   0.76030   0.55220   0.01267  Uiso   1.00
H55    H     0.48810   0.72620   0.57400   0.01267  Uiso   1.00
H56    H     0.43090   0.67550   0.47610   0.01267  Uiso   1.00
H57    H     0.33580   0.69580   0.51190   0.01267  Uiso   1.00
H58    H     0.24570   0.63300   0.47160   0.01267  Uiso   1.00
H59    H     0.00040   0.62520   0.36900   0.01267  Uiso   1.00
H60    H     0.21140   0.74270   0.36720   0.01267  Uiso   1.00
H61    H     0.90210   0.88850   0.36880   0.01267  Uiso   1.00
H62    H     0.69940   0.88720   0.48910   0.01267  Uiso   1.00
H63    H     0.66830   0.77990   0.38070   0.01267  Uiso   1.00
H64    H     0.58410   0.73970   0.44780   0.01267  Uiso   1.00
H65    H     0.48810   0.77380   0.42600   0.01267  Uiso   1.00
H66    H     0.43090   0.82450   0.52390   0.01267  Uiso   1.00
H67    H     0.33580   0.80420   0.48810   0.01267  Uiso   1.00
H68    H     0.24570   0.86700   0.52840   0.01267  Uiso   1.00
H69    H     0.00040   0.87480   0.63100   0.01267  Uiso   1.00
H70    H     0.21140   0.75730   0.63280   0.01267  Uiso   1.00
H71    H     0.09790   0.11150   0.86880   0.01267  Uiso   1.00
H72    H     0.30060   0.11280   0.98910   0.01267  Uiso   1.00
H73    H     0.33170   0.22010   0.88070   0.01267  Uiso   1.00
H74    H     0.41590   0.26030   0.94780   0.01267  Uiso   1.00
H75    H     0.51190   0.22620   0.92600   0.01267  Uiso   1.00
H76    H     0.56910   0.17550   0.02390   0.01267  Uiso   1.00
H77    H     0.66420   0.19580   0.98810   0.01267  Uiso   1.00
H78    H     0.75430   0.13300   0.02840   0.01267  Uiso   1.00
H79    H     0.99960   0.12520   0.13100   0.01267  Uiso   1.00
H80    H     0.78860   0.24270   0.13280   0.01267  Uiso   1.00
C1     C     0.79330   0.66956   0.86871   0.01267  Uiso   1.00
C2     C     0.84510   0.62661   0.88725   0.01267  Uiso   1.00
C3     C     0.81170   0.60591   0.93374   0.01267  Uiso   1.00
C4     C     0.72380   0.62756   0.95877   0.01267  Uiso   1.00
C5     C     0.67040   0.67038   0.94056   0.01267  Uiso   1.00
C6     C     0.70420   0.69178   0.89423   0.01267  Uiso   1.00
C7     C     0.83500   0.69352   0.82103   0.01267  Uiso   1.00
C8     C     0.87720   0.56280   0.95640   0.01267  Uiso   1.00
C9     C     0.53240   0.73324   0.95609   0.01267  Uiso   1.00
C10    C     0.38570   0.70500   0.01562   0.01267  Uiso   1.00
C11    C     0.24160   0.69302   0.07668   0.01267  Uiso   1.00
C12    C     0.20750   0.64684   0.05600   0.01267  Uiso   1.00
C13    C     0.11710   0.62097   0.07591   0.01267  Uiso   1.00
C14    C     0.06150   0.64191   0.11740   0.01267  Uiso   1.00
C15    C     0.09660   0.68755   0.13861   0.01267  Uiso   1.00
C16    C     0.18710   0.71236   0.11815   0.01267  Uiso   1.00
C17    C     0.07830   0.57434   0.05009   0.01267  Uiso   1.00
C18    C     0.03640   0.71115   0.18116   0.01267  Uiso   1.00
C19    C     0.20670   0.33044   0.36871   0.01267  Uiso   1.00
C20    C     0.15490   0.37339   0.38725   0.01267  Uiso   1.00
C21    C     0.18830   0.39409   0.43374   0.01267  Uiso   1.00
C22    C     0.27620   0.37244   0.45877   0.01267  Uiso   1.00
C23    C     0.32960   0.32962   0.44056   0.01267  Uiso   1.00
C24    C     0.29580   0.30822   0.39423   0.01267  Uiso   1.00
C25    C     0.16500   0.30648   0.32103   0.01267  Uiso   1.00
C26    C     0.12280   0.43720   0.45640   0.01267  Uiso   1.00
C27    C     0.46760   0.26676   0.45609   0.01267  Uiso   1.00
C28    C     0.61430   0.29500   0.51562   0.01267  Uiso   1.00
C29    C     0.75840   0.30698   0.57668   0.01267  Uiso   1.00
C30    C     0.79250   0.35316   0.55600   0.01267  Uiso   1.00
C31    C     0.88290   0.37903   0.57591   0.01267  Uiso   1.00
C32    C     0.93850   0.35809   0.61740   0.01267  Uiso   1.00
C33    C     0.90340   0.31245   0.63861   0.01267  Uiso   1.00
C34    C     0.81290   0.28764   0.61815   0.01267  Uiso   1.00
C35    C     0.92170   0.42566   0.55009   0.01267  Uiso   1.00
C36    C     0.96360   0.28885   0.68116   0.01267  Uiso   1.00
C37    C     0.20670   0.16956   0.63129   0.01267  Uiso   1.00
C38    C     0.15490   0.12661   0.61275   0.01267  Uiso   1.00
C39    C     0.18830   0.10591   0.56626   0.01267  Uiso   1.00
C40    C     0.27620   0.12756   0.54123   0.01267  Uiso   1.00
C41    C     0.32960   0.17038   0.55944   0.01267  Uiso   1.00
C42    C     0.29580   0.19178   0.60577   0.01267  Uiso   1.00
C43    C     0.16500   0.19352   0.67897   0.01267  Uiso   1.00
C44    C     0.12280   0.06280   0.54360   0.01267  Uiso   1.00
C45    C     0.46760   0.23324   0.54391   0.01267  Uiso   1.00
C46    C     0.61430   0.20500   0.48438   0.01267  Uiso   1.00
C47    C     0.75840   0.19302   0.42332   0.01267  Uiso   1.00
C48    C     0.79250   0.14684   0.44400   0.01267  Uiso   1.00
C49    C     0.88290   0.12097   0.42409   0.01267  Uiso   1.00
C50    C     0.93850   0.14191   0.38260   0.01267  Uiso   1.00
C51    C     0.90340   0.18755   0.36139   0.01267  Uiso   1.00
C52    C     0.81290   0.21236   0.38185   0.01267  Uiso   1.00
C53    C     0.92170   0.07434   0.44991   0.01267  Uiso   1.00
C54    C     0.96360   0.21115   0.31884   0.01267  Uiso   1.00
C55    C     0.79330   0.83044   0.13129   0.01267  Uiso   1.00
C56    C     0.84510   0.87339   0.11275   0.01267  Uiso   1.00
C57    C     0.81170   0.89409   0.06626   0.01267  Uiso   1.00
C58    C     0.72380   0.87244   0.04123   0.01267  Uiso   1.00
C59    C     0.67040   0.82962   0.05944   0.01267  Uiso   1.00
C60    C     0.70420   0.80822   0.10577   0.01267  Uiso   1.00
C61    C     0.83500   0.80648   0.17897   0.01267  Uiso   1.00
C62    C     0.87720   0.93720   0.04360   0.01267  Uiso   1.00
C63    C     0.53240   0.76676   0.04391   0.01267  Uiso   1.00
C64    C     0.38570   0.79500   0.98438   0.01267  Uiso   1.00
C65    C     0.24160   0.80698   0.92332   0.01267  Uiso   1.00
C66    C     0.20750   0.85316   0.94400   0.01267  Uiso   1.00
C67    C     0.11710   0.87903   0.92409   0.01267  Uiso   1.00
C68    C     0.06150   0.85809   0.88260   0.01267  Uiso   1.00
C69    C     0.09660   0.81245   0.86139   0.01267  Uiso   1.00
C70    C     0.18710   0.78764   0.88185   0.01267  Uiso   1.00
C71    C     0.07830   0.92566   0.94991   0.01267  Uiso   1.00
C72    C     0.03640   0.78885   0.81884   0.01267  Uiso   1.00
C73    C     0.20670   0.33044   0.13129   0.01267  Uiso   1.00
C74    C     0.15490   0.37339   0.11275   0.01267  Uiso   1.00
C75    C     0.18830   0.39409   0.06626   0.01267  Uiso   1.00
C76    C     0.27620   0.37244   0.04123   0.01267  Uiso   1.00
C77    C     0.32960   0.32962   0.05944   0.01267  Uiso   1.00
C78    C     0.29580   0.30822   0.10577   0.01267  Uiso   1.00
C79    C     0.16500   0.30648   0.17897   0.01267  Uiso   1.00
C80    C     0.12280   0.43720   0.04360   0.01267  Uiso   1.00
C81    C     0.46760   0.26676   0.04391   0.01267  Uiso   1.00
C82    C     0.61430   0.29500   0.98438   0.01267  Uiso   1.00
C83    C     0.75840   0.30698   0.92332   0.01267  Uiso   1.00
C84    C     0.79250   0.35316   0.94400   0.01267  Uiso   1.00
C85    C     0.88290   0.37903   0.92409   0.01267  Uiso   1.00
C86    C     0.93850   0.35809   0.88260   0.01267  Uiso   1.00
C87    C     0.90340   0.31245   0.86139   0.01267  Uiso   1.00
C88    C     0.81290   0.28764   0.88185   0.01267  Uiso   1.00
C89    C     0.92170   0.42566   0.94991   0.01267  Uiso   1.00
C90    C     0.96360   0.28885   0.81884   0.01267  Uiso   1.00
C91    C     0.79330   0.66956   0.63129   0.01267  Uiso   1.00
C92    C     0.84510   0.62661   0.61275   0.01267  Uiso   1.00
C93    C     0.81170   0.60591   0.56626   0.01267  Uiso   1.00
C94    C     0.72380   0.62756   0.54123   0.01267  Uiso   1.00
C95    C     0.67040   0.67038   0.55944   0.01267  Uiso   1.00
C96    C     0.70420   0.69178   0.60577   0.01267  Uiso   1.00
C97    C     0.83500   0.69352   0.67897   0.01267  Uiso   1.00
C98    C     0.87720   0.56280   0.54360   0.01267  Uiso   1.00
C99    C     0.53240   0.73324   0.54391   0.01267  Uiso   1.00
C100   C     0.38570   0.70500   0.48438   0.01267  Uiso   1.00
C101   C     0.24160   0.69302   0.42332   0.01267  Uiso   1.00
C102   C     0.20750   0.64684   0.44400   0.01267  Uiso   1.00
C103   C     0.11710   0.62097   0.42409   0.01267  Uiso   1.00
C104   C     0.06150   0.64191   0.38260   0.01267  Uiso   1.00
C105   C     0.09660   0.68755   0.36139   0.01267  Uiso   1.00
C106   C     0.18710   0.71236   0.38185   0.01267  Uiso   1.00
C107   C     0.07830   0.57434   0.44991   0.01267  Uiso   1.00
C108   C     0.03640   0.71115   0.31884   0.01267  Uiso   1.00
C109   C     0.79330   0.83044   0.36871   0.01267  Uiso   1.00
C110   C     0.84510   0.87339   0.38725   0.01267  Uiso   1.00
C111   C     0.81170   0.89409   0.43374   0.01267  Uiso   1.00
C112   C     0.72380   0.87244   0.45877   0.01267  Uiso   1.00
C113   C     0.67040   0.82962   0.44056   0.01267  Uiso   1.00
C114   C     0.70420   0.80822   0.39423   0.01267  Uiso   1.00
C115   C     0.83500   0.80648   0.32103   0.01267  Uiso   1.00
C116   C     0.87720   0.93720   0.45640   0.01267  Uiso   1.00
C117   C     0.53240   0.76676   0.45609   0.01267  Uiso   1.00
C118   C     0.38570   0.79500   0.51562   0.01267  Uiso   1.00
C119   C     0.24160   0.80698   0.57668   0.01267  Uiso   1.00
C120   C     0.20750   0.85316   0.55600   0.01267  Uiso   1.00
C121   C     0.11710   0.87903   0.57591   0.01267  Uiso   1.00
C122   C     0.06150   0.85809   0.61740   0.01267  Uiso   1.00
C123   C     0.09660   0.81245   0.63861   0.01267  Uiso   1.00
C124   C     0.18710   0.78764   0.61815   0.01267  Uiso   1.00
C125   C     0.07830   0.92566   0.55009   0.01267  Uiso   1.00
C126   C     0.03640   0.78885   0.68116   0.01267  Uiso   1.00
C127   C     0.20670   0.16956   0.86871   0.01267  Uiso   1.00
C128   C     0.15490   0.12661   0.88725   0.01267  Uiso   1.00
C129   C     0.18830   0.10591   0.93374   0.01267  Uiso   1.00
C130   C     0.27620   0.12756   0.95877   0.01267  Uiso   1.00
C131   C     0.32960   0.17038   0.94056   0.01267  Uiso   1.00
C132   C     0.29580   0.19178   0.89423   0.01267  Uiso   1.00
C133   C     0.16500   0.19352   0.82103   0.01267  Uiso   1.00
C134   C     0.12280   0.06280   0.95640   0.01267  Uiso   1.00
C135   C     0.46760   0.23324   0.95609   0.01267  Uiso   1.00
C136   C     0.61430   0.20500   0.01562   0.01267  Uiso   1.00
C137   C     0.75840   0.19302   0.07668   0.01267  Uiso   1.00
C138   C     0.79250   0.14684   0.05600   0.01267  Uiso   1.00
C139   C     0.88290   0.12097   0.07591   0.01267  Uiso   1.00
C140   C     0.93850   0.14191   0.11740   0.01267  Uiso   1.00
C141   C     0.90340   0.18755   0.13861   0.01267  Uiso   1.00
C142   C     0.81290   0.21236   0.11815   0.01267  Uiso   1.00
C143   C     0.92170   0.07434   0.05009   0.01267  Uiso   1.00
C144   C     0.96360   0.21115   0.18116   0.01267  Uiso   1.00
C145   C     0.45810   0.75000   0.00000   0.01267  Uiso   1.00
C146   C     0.54190   0.25000   0.50000   0.01267  Uiso   1.00
C147   C     0.54190   0.25000   0.00000   0.01267  Uiso   1.00
C148   C     0.45810   0.75000   0.50000   0.01267  Uiso   1.00
O1     O     0.92180   0.67383   0.80208   0.01267  Uiso   1.00
O2     O     0.78996   0.73363   0.80410   0.01267  Uiso   1.00
O3     O     0.96660   0.55268   0.93567   0.01267  Uiso   1.00
O4     O     0.83752   0.54284   0.99622   0.01267  Uiso   1.00
O5     O     0.58998   0.68948   0.97037   0.01267  Uiso   1.00
O6     O     0.32535   0.72128   0.05925   0.01267  Uiso   1.00
O7     O     0.12511   0.56110   0.00994   0.01267  Uiso   1.00
O8     O     0.99469   0.55189   0.06948   0.01267  Uiso   1.00
O9     O     0.94832   0.69130   0.19733   0.01267  Uiso   1.00
O10    O     0.07670   0.75252   0.19821   0.01267  Uiso   1.00
O11    O     0.07820   0.32617   0.30208   0.01267  Uiso   1.00
O12    O     0.21004   0.26637   0.30410   0.01267  Uiso   1.00
O13    O     0.03340   0.44732   0.43567   0.01267  Uiso   1.00
O14    O     0.16248   0.45716   0.49622   0.01267  Uiso   1.00
O15    O     0.41002   0.31052   0.47037   0.01267  Uiso   1.00
O16    O     0.67465   0.27872   0.55925   0.01267  Uiso   1.00
O17    O     0.87489   0.43890   0.50994   0.01267  Uiso   1.00
O18    O     0.00531   0.44811   0.56948   0.01267  Uiso   1.00
O19    O     0.05168   0.30870   0.69733   0.01267  Uiso   1.00
O20    O     0.92330   0.24748   0.69821   0.01267  Uiso   1.00
O21    O     0.07820   0.17383   0.69792   0.01267  Uiso   1.00
O22    O     0.21004   0.23363   0.69590   0.01267  Uiso   1.00
O23    O     0.03340   0.05268   0.56433   0.01267  Uiso   1.00
O24    O     0.16248   0.04284   0.50378   0.01267  Uiso   1.00
O25    O     0.41002   0.18948   0.52963   0.01267  Uiso   1.00
O26    O     0.67465   0.22128   0.44075   0.01267  Uiso   1.00
O27    O     0.87489   0.06110   0.49006   0.01267  Uiso   1.00
O28    O     0.00531   0.05189   0.43052   0.01267  Uiso   1.00
O29    O     0.05168   0.19130   0.30267   0.01267  Uiso   1.00
O30    O     0.92330   0.25252   0.30179   0.01267  Uiso   1.00
O31    O     0.92180   0.82617   0.19792   0.01267  Uiso   1.00
O32    O     0.78996   0.76637   0.19590   0.01267  Uiso   1.00
O33    O     0.96660   0.94732   0.06433   0.01267  Uiso   1.00
O34    O     0.83752   0.95716   0.00378   0.01267  Uiso   1.00
O35    O     0.58998   0.81052   0.02963   0.01267  Uiso   1.00
O36    O     0.32535   0.77872   0.94075   0.01267  Uiso   1.00
O37    O     0.12511   0.93890   0.99006   0.01267  Uiso   1.00
O38    O     0.99469   0.94811   0.93052   0.01267  Uiso   1.00
O39    O     0.94832   0.80870   0.80267   0.01267  Uiso   1.00
O40    O     0.07670   0.74748   0.80179   0.01267  Uiso   1.00
O41    O     0.07820   0.32617   0.19792   0.01267  Uiso   1.00
O42    O     0.21004   0.26637   0.19590   0.01267  Uiso   1.00
O43    O     0.03340   0.44732   0.06433   0.01267  Uiso   1.00
O44    O     0.16248   0.45716   0.00378   0.01267  Uiso   1.00
O45    O     0.41002   0.31052   0.02963   0.01267  Uiso   1.00
O46    O     0.67465   0.27872   0.94075   0.01267  Uiso   1.00
O47    O     0.87489   0.43890   0.99006   0.01267  Uiso   1.00
O48    O     0.00531   0.44811   0.93052   0.01267  Uiso   1.00
O49    O     0.05168   0.30870   0.80267   0.01267  Uiso   1.00
O50    O     0.92330   0.24748   0.80179   0.01267  Uiso   1.00
O51    O     0.92180   0.67383   0.69792   0.01267  Uiso   1.00
O52    O     0.78996   0.73363   0.69590   0.01267  Uiso   1.00
O53    O     0.96660   0.55268   0.56433   0.01267  Uiso   1.00
O54    O     0.83752   0.54284   0.50378   0.01267  Uiso   1.00
O55    O     0.58998   0.68948   0.52963   0.01267  Uiso   1.00
O56    O     0.32535   0.72128   0.44075   0.01267  Uiso   1.00
O57    O     0.12511   0.56110   0.49006   0.01267  Uiso   1.00
O58    O     0.99469   0.55189   0.43052   0.01267  Uiso   1.00
O59    O     0.94832   0.69130   0.30267   0.01267  Uiso   1.00
O60    O     0.07670   0.75252   0.30179   0.01267  Uiso   1.00
O61    O     0.92180   0.82617   0.30208   0.01267  Uiso   1.00
O62    O     0.78996   0.76637   0.30410   0.01267  Uiso   1.00
O63    O     0.96660   0.94732   0.43567   0.01267  Uiso   1.00
O64    O     0.83752   0.95716   0.49622   0.01267  Uiso   1.00
O65    O     0.58998   0.81052   0.47037   0.01267  Uiso   1.00
O66    O     0.32535   0.77872   0.55925   0.01267  Uiso   1.00
O67    O     0.12511   0.93890   0.50994   0.01267  Uiso   1.00
O68    O     0.99469   0.94811   0.56948   0.01267  Uiso   1.00
O69    O     0.94832   0.80870   0.69733   0.01267  Uiso   1.00
O70    O     0.07670   0.74748   0.69821   0.01267  Uiso   1.00
O71    O     0.07820   0.17383   0.80208   0.01267  Uiso   1.00
O72    O     0.21004   0.23363   0.80410   0.01267  Uiso   1.00
O73    O     0.03340   0.05268   0.93567   0.01267  Uiso   1.00
O74    O     0.16248   0.04284   0.99622   0.01267  Uiso   1.00
O75    O     0.41002   0.18948   0.97037   0.01267  Uiso   1.00
O76    O     0.67465   0.22128   0.05925   0.01267  Uiso   1.00
O77    O     0.87489   0.06110   0.00994   0.01267  Uiso   1.00
O78    O     0.00531   0.05189   0.06948   0.01267  Uiso   1.00
O79    O     0.05168   0.19130   0.19733   0.01267  Uiso   1.00
O80    O     0.92330   0.25252   0.19821   0.01267  Uiso   1.00
