data_image0
_cell_length_a       12.335
_cell_length_b       12.335
_cell_length_c       5.265
_cell_angle_alpha    90
_cell_angle_beta     90
_cell_angle_gamma    90

_symmetry_space_group_name_H-M    "P 1"
_symmetry_int_tables_number       1

loop_
  _symmetry_equiv_pos_as_xyz
  'x, y, z'

loop_
  _atom_site_label
  _atom_site_occupancy
  _atom_site_fract_x
  _atom_site_fract_y
  _atom_site_fract_z
  _atom_site_thermal_displace_type
  _atom_site_B_iso_or_equiv
  _atom_site_type_symbol
  C1       1.0000 0.29540  0.79430  0.71950  Biso   1.000  C
  H1       1.0000 0.26330  0.80320  0.54640  Biso   1.000  H
  C2       1.0000 0.34480  0.68140  0.73930  Biso   1.000  C
  H2       1.0000 0.38240  0.66140  0.58000  Biso   1.000  H
  H3       1.0000 0.28830  0.62650  0.77610  Biso   1.000  H
  C3       1.0000 0.47560  0.83060  0.90080  Biso   1.000  C
  H4       1.0000 0.54230  0.82850  0.79270  Biso   1.000  H
  C4       1.0000 0.49840  0.89520  0.14020  Biso   1.000  C
  C5       1.0000 0.20620  0.81340  0.91840  Biso   1.000  C
  N1       1.0000 0.38370  0.87410  0.75060  Biso   1.000  N
  H5       1.0000 0.40200  0.89700  0.61600  Biso   1.000  H
  O1       1.0000 0.58324  0.87131  0.25700  Biso   1.000  O
  O2       1.0000 0.43148  0.96677  0.21120  Biso   1.000  O
  O3       1.0000 0.20776  0.89911  0.04650  Biso   1.000  O
  O4       1.0000 0.13228  0.74314  0.94200  Biso   1.000  O
  S1       1.0000 0.43970  0.69230  0.99992  Biso   1.000  S
  Co1      1.0000 0.32124  0.01546  0.94137  Biso   1.000  Co
  C6       1.0000 0.70460  0.20570  0.21950  Biso   1.000  C
  H6       1.0000 0.73670  0.19680  0.04640  Biso   1.000  H
  C7       1.0000 0.65520  0.31860  0.23930  Biso   1.000  C
  H7       1.0000 0.61760  0.33860  0.08000  Biso   1.000  H
  H8       1.0000 0.71170  0.37350  0.27610  Biso   1.000  H
  C8       1.0000 0.52440  0.16940  0.40080  Biso   1.000  C
  H9       1.0000 0.45770  0.17150  0.29270  Biso   1.000  H
  C9       1.0000 0.50160  0.10480  0.64020  Biso   1.000  C
  C10      1.0000 0.79380  0.18660  0.41840  Biso   1.000  C
  N2       1.0000 0.61630  0.12590  0.25060  Biso   1.000  N
  H10      1.0000 0.59800  0.10300  0.11600  Biso   1.000  H
  O5       1.0000 0.41676  0.12869  0.75700  Biso   1.000  O
  O6       1.0000 0.56852  0.03323  0.71120  Biso   1.000  O
  O7       1.0000 0.79224  0.10089  0.54650  Biso   1.000  O
  O8       1.0000 0.86772  0.25686  0.44200  Biso   1.000  O
  S2       1.0000 0.56030  0.30770  0.49992  Biso   1.000  S
  Co2      1.0000 0.67876  0.98454  0.44137  Biso   1.000  Co
  C11      1.0000 0.20570  0.29540  0.96950  Biso   1.000  C
  H11      1.0000 0.19680  0.26330  0.79640  Biso   1.000  H
  C12      1.0000 0.31860  0.34480  0.98930  Biso   1.000  C
  H12      1.0000 0.33860  0.38240  0.83000  Biso   1.000  H
  H13      1.0000 0.37350  0.28830  0.02610  Biso   1.000  H
  C13      1.0000 0.16940  0.47560  0.15080  Biso   1.000  C
  H14      1.0000 0.17150  0.54230  0.04270  Biso   1.000  H
  C14      1.0000 0.10480  0.49840  0.39020  Biso   1.000  C
  C15      1.0000 0.18660  0.20620  0.16840  Biso   1.000  C
  N3       1.0000 0.12590  0.38370  0.00060  Biso   1.000  N
  H15      1.0000 0.10300  0.40200  0.86600  Biso   1.000  H
  O9       1.0000 0.12869  0.58324  0.50700  Biso   1.000  O
  O10      1.0000 0.03323  0.43148  0.46120  Biso   1.000  O
  O11      1.0000 0.10089  0.20776  0.29650  Biso   1.000  O
  O12      1.0000 0.25686  0.13228  0.19200  Biso   1.000  O
  S3       1.0000 0.30770  0.43970  0.24992  Biso   1.000  S
  Co3      1.0000 0.98454  0.32124  0.19137  Biso   1.000  Co
  C16      1.0000 0.79430  0.70460  0.46950  Biso   1.000  C
  H16      1.0000 0.80320  0.73670  0.29640  Biso   1.000  H
  C17      1.0000 0.68140  0.65520  0.48930  Biso   1.000  C
  H17      1.0000 0.66140  0.61760  0.33000  Biso   1.000  H
  H18      1.0000 0.62650  0.71170  0.52610  Biso   1.000  H
  C18      1.0000 0.83060  0.52440  0.65080  Biso   1.000  C
  H19      1.0000 0.82850  0.45770  0.54270  Biso   1.000  H
  C19      1.0000 0.89520  0.50160  0.89020  Biso   1.000  C
  C20      1.0000 0.81340  0.79380  0.66840  Biso   1.000  C
  N4       1.0000 0.87410  0.61630  0.50060  Biso   1.000  N
  H20      1.0000 0.89700  0.59800  0.36600  Biso   1.000  H
  O13      1.0000 0.87131  0.41676  0.00700  Biso   1.000  O
  O14      1.0000 0.96677  0.56852  0.96120  Biso   1.000  O
  O15      1.0000 0.89911  0.79224  0.79650  Biso   1.000  O
  O16      1.0000 0.74314  0.86772  0.69200  Biso   1.000  O
  S4       1.0000 0.69230  0.56030  0.74992  Biso   1.000  S
  Co4      1.0000 0.01546  0.67876  0.69137  Biso   1.000  Co
