data_FEDBEX_clean
_audit_creation_date              2014-07-02
_audit_creation_method            'Materials Studio'
_symmetry_space_group_name_H-M    'P1'
_symmetry_Int_Tables_number       1
_symmetry_cell_setting            triclinic
loop_
_symmetry_equiv_pos_as_xyz
  x,y,z
_cell_length_a                    6.0200
_cell_length_b                    12.7722
_cell_length_c                    13.1612
_cell_angle_alpha                 118.8290
_cell_angle_beta                  90.6090
_cell_angle_gamma                 91.6870
loop_
_atom_site_label
_atom_site_type_symbol
_atom_site_fract_x
_atom_site_fract_y
_atom_site_fract_z
_atom_site_U_iso_or_equiv
_atom_site_adp_type
_atom_site_occupancy
Tm1    Tm    0.77803   0.66065   0.82171   0.01267  Uiso   1.00
Tm2    Tm    0.22197   0.33935   0.17829   0.01267  Uiso   1.00
H1     H     0.69280   0.53410   0.16070   0.01267  Uiso   1.00
H2     H     0.08320   0.88190   0.07850   0.01267  Uiso   1.00
H3     H     0.64620   0.55900   0.51510   0.01267  Uiso   1.00
H4     H     0.30720   0.46590   0.83930   0.01267  Uiso   1.00
H5     H     0.91680   0.11810   0.92150   0.01267  Uiso   1.00
H6     H     0.35380   0.44100   0.48490   0.01267  Uiso   1.00
C1     C     0.61060   0.51890   0.09450   0.01267  Uiso   1.00
C2     C     0.68840   0.56630   0.02760   0.01267  Uiso   1.00
C3     C     0.90400   0.64000   0.05440   0.01267  Uiso   1.00
C4     C     0.88270   0.95070   0.90000   0.01267  Uiso   1.00
C5     C     0.04730   0.92880   0.04470   0.01267  Uiso   1.00
C6     C     0.75020   0.89300   0.78690   0.01267  Uiso   1.00
C7     C     0.12390   0.53960   0.59660   0.01267  Uiso   1.00
C8     C     0.79160   0.53480   0.51060   0.01267  Uiso   1.00
C9     C     0.26180   0.59410   0.70610   0.01267  Uiso   1.00
C10    C     0.38940   0.48110   0.90550   0.01267  Uiso   1.00
C11    C     0.31160   0.43370   0.97240   0.01267  Uiso   1.00
C12    C     0.09600   0.36000   0.94560   0.01267  Uiso   1.00
C13    C     0.11730   0.04930   0.10000   0.01267  Uiso   1.00
C14    C     0.95270   0.07120   0.95530   0.01267  Uiso   1.00
C15    C     0.24980   0.10700   0.21310   0.01267  Uiso   1.00
C16    C     0.87610   0.46040   0.40340   0.01267  Uiso   1.00
C17    C     0.20840   0.46520   0.48940   0.01267  Uiso   1.00
C18    C     0.73820   0.40590   0.29390   0.01267  Uiso   1.00
N1     N     0.42360   0.45220   0.06990   0.01267  Uiso   1.00
N2     N     0.92970   0.87890   0.94420   0.01267  Uiso   1.00
N3     N     0.91420   0.57310   0.60860   0.01267  Uiso   1.00
N4     N     0.57640   0.54780   0.93010   0.01267  Uiso   1.00
N5     N     0.07030   0.12110   0.05580   0.01267  Uiso   1.00
N6     N     0.08580   0.42690   0.39140   0.01267  Uiso   1.00
O1     O     0.95030   0.67910   0.98530   0.01267  Uiso   1.00
O2     O     0.02020   0.65560   0.13880   0.01267  Uiso   1.00
O3     O     0.69340   0.78560   0.74800   0.01267  Uiso   1.00
O4     O     0.69960   0.95600   0.74380   0.01267  Uiso   1.00
O5     O     0.46310   0.56890   0.70400   0.01267  Uiso   1.00
O6     O     0.16430   0.66580   0.79690   0.01267  Uiso   1.00
O7     O     0.04970   0.32090   0.01470   0.01267  Uiso   1.00
O8     O     0.97980   0.34440   0.86120   0.01267  Uiso   1.00
O9     O     0.30660   0.21440   0.25200   0.01267  Uiso   1.00
O10    O     0.30040   0.04400   0.25620   0.01267  Uiso   1.00
O11    O     0.53690   0.43110   0.29600   0.01267  Uiso   1.00
O12    O     0.83570   0.33420   0.20310   0.01267  Uiso   1.00
