data_image0
_cell_length_a       14.7857
_cell_length_b       16.5284
_cell_length_c       10.2302
_cell_angle_alpha    90
_cell_angle_beta     119.104
_cell_angle_gamma    90

_symmetry_space_group_name_H-M    "P 1"
_symmetry_int_tables_number       1

loop_
  _symmetry_equiv_pos_as_xyz
  'x, y, z'

loop_
  _atom_site_label
  _atom_site_occupancy
  _atom_site_fract_x
  _atom_site_fract_y
  _atom_site_fract_z
  _atom_site_thermal_displace_type
  _atom_site_B_iso_or_equiv
  _atom_site_type_symbol
  Zn1      1.0000 0.04693  0.04566  0.68315  Biso   1.000  Zn
  C1       1.0000 0.12350  0.88760  0.83770  Biso   1.000  C
  C2       1.0000 0.16820  0.81170  0.88060  Biso   1.000  C
  C3       1.0000 0.19800  0.81100  0.68490  Biso   1.000  C
  C4       1.0000 0.15370  0.88630  0.64060  Biso   1.000  C
  C5       1.0000 0.08120  0.93390  0.92350  Biso   1.000  C
  N1       1.0000 0.20600  0.77270  0.80350  Biso   1.000  N
  N2       1.0000 0.11540  0.92480  0.71660  Biso   1.000  N
  O1       1.0000 0.09630  0.90510  0.04500  Biso   1.000  O
  O2       1.0000 0.03470  0.99830  0.86560  Biso   1.000  O
  N3       1.0000 0.89420  0.02250  0.51870  Biso   1.000  N
  N4       1.0000 0.51340  0.66080  0.73940  Biso   1.000  N
  C6       1.0000 0.84690  0.07630  0.40890  Biso   1.000  C
  C7       1.0000 0.75020  0.06520  0.28810  Biso   1.000  C
  C8       1.0000 0.69600  0.99420  0.27930  Biso   1.000  C
  C9       1.0000 0.74380  0.93950  0.39690  Biso   1.000  C
  C10      1.0000 0.84150  0.95500  0.51200  Biso   1.000  C
  C11      1.0000 0.55310  0.72900  0.71830  Biso   1.000  C
  C12      1.0000 0.54280  0.80220  0.77250  Biso   1.000  C
  C13      1.0000 0.49070  0.80880  0.85180  Biso   1.000  C
  C14      1.0000 0.44720  0.73890  0.86890  Biso   1.000  C
  C15      1.0000 0.45910  0.66690  0.80980  Biso   1.000  C
  C16      1.0000 0.59050  0.97850  0.14920  Biso   1.000  C
  C17      1.0000 0.59220  0.90450  0.06040  Biso   1.000  C
  C18      1.0000 0.48680  0.88690  0.92550  Biso   1.000  C
  H1       1.0000 0.16000  0.78100  0.97000  Biso   1.000  H
  H2       1.0000 0.21300  0.78100  0.62500  Biso   1.000  H
  H3       1.0000 0.14900  0.90900  0.55900  Biso   1.000  H
  H4       1.0000 0.61200  0.85300  0.13300  Biso   1.000  H
  H5       1.0000 0.43200  0.88600  0.95300  Biso   1.000  H
  H6       1.0000 0.64000  0.91200  0.04600  Biso   1.000  H
  H7       1.0000 0.53000  0.97500  0.16700  Biso   1.000  H
  H8       1.0000 0.55400  0.03200  0.07300  Biso   1.000  H
  H9       1.0000 0.43000  0.61800  0.82000  Biso   1.000  H
  H10      1.0000 0.40300  0.73400  0.92500  Biso   1.000  H
  H11      1.0000 0.45800  0.92500  0.86000  Biso   1.000  H
  H12      1.0000 0.56200  0.84800  0.76000  Biso   1.000  H
  H13      1.0000 0.60500  0.72700  0.67800  Biso   1.000  H
  H14      1.0000 0.86600  0.92100  0.58500  Biso   1.000  H
  H15      1.0000 0.71000  0.88900  0.41200  Biso   1.000  H
  H16      1.0000 0.72100  0.09900  0.22400  Biso   1.000  H
  H17      1.0000 0.88400  0.12300  0.40800  Biso   1.000  H
  Zn2      1.0000 0.54693  0.54566  0.68315  Biso   1.000  Zn
  C19      1.0000 0.62350  0.38760  0.83770  Biso   1.000  C
  C20      1.0000 0.66820  0.31170  0.88060  Biso   1.000  C
  C21      1.0000 0.69800  0.31100  0.68490  Biso   1.000  C
  C22      1.0000 0.65370  0.38630  0.64060  Biso   1.000  C
  C23      1.0000 0.58120  0.43390  0.92350  Biso   1.000  C
  N5       1.0000 0.70600  0.27270  0.80350  Biso   1.000  N
  N6       1.0000 0.61540  0.42480  0.71660  Biso   1.000  N
  O3       1.0000 0.59630  0.40510  0.04500  Biso   1.000  O
  O4       1.0000 0.53470  0.49830  0.86560  Biso   1.000  O
  N7       1.0000 0.39420  0.52250  0.51870  Biso   1.000  N
  N8       1.0000 0.01340  0.16080  0.73940  Biso   1.000  N
  C24      1.0000 0.34690  0.57630  0.40890  Biso   1.000  C
  C25      1.0000 0.25020  0.56520  0.28810  Biso   1.000  C
  C26      1.0000 0.19600  0.49420  0.27930  Biso   1.000  C
  C27      1.0000 0.24380  0.43950  0.39690  Biso   1.000  C
  C28      1.0000 0.34150  0.45500  0.51200  Biso   1.000  C
  C29      1.0000 0.05310  0.22900  0.71830  Biso   1.000  C
  C30      1.0000 0.04280  0.30220  0.77250  Biso   1.000  C
  C31      1.0000 0.99070  0.30880  0.85180  Biso   1.000  C
  C32      1.0000 0.94720  0.23890  0.86890  Biso   1.000  C
  C33      1.0000 0.95910  0.16690  0.80980  Biso   1.000  C
  C34      1.0000 0.09050  0.47850  0.14920  Biso   1.000  C
  C35      1.0000 0.09220  0.40450  0.06040  Biso   1.000  C
  C36      1.0000 0.98680  0.38690  0.92550  Biso   1.000  C
  H18      1.0000 0.66000  0.28100  0.97000  Biso   1.000  H
  H19      1.0000 0.71300  0.28100  0.62500  Biso   1.000  H
  H20      1.0000 0.64900  0.40900  0.55900  Biso   1.000  H
  H21      1.0000 0.11200  0.35300  0.13300  Biso   1.000  H
  H22      1.0000 0.93200  0.38600  0.95300  Biso   1.000  H
  H23      1.0000 0.14000  0.41200  0.04600  Biso   1.000  H
  H24      1.0000 0.03000  0.47500  0.16700  Biso   1.000  H
  H25      1.0000 0.05400  0.53200  0.07300  Biso   1.000  H
  H26      1.0000 0.93000  0.11800  0.82000  Biso   1.000  H
  H27      1.0000 0.90300  0.23400  0.92500  Biso   1.000  H
  H28      1.0000 0.95800  0.42500  0.86000  Biso   1.000  H
  H29      1.0000 0.06200  0.34800  0.76000  Biso   1.000  H
  H30      1.0000 0.10500  0.22700  0.67800  Biso   1.000  H
  H31      1.0000 0.36600  0.42100  0.58500  Biso   1.000  H
  H32      1.0000 0.21000  0.38900  0.41200  Biso   1.000  H
  H33      1.0000 0.22100  0.59900  0.22400  Biso   1.000  H
  H34      1.0000 0.38400  0.62300  0.40800  Biso   1.000  H
  Zn3      1.0000 0.04693  0.95434  0.18315  Biso   1.000  Zn
  C37      1.0000 0.12350  0.11240  0.33770  Biso   1.000  C
  C38      1.0000 0.16820  0.18830  0.38060  Biso   1.000  C
  C39      1.0000 0.19800  0.18900  0.18490  Biso   1.000  C
  C40      1.0000 0.15370  0.11370  0.14060  Biso   1.000  C
  C41      1.0000 0.08120  0.06610  0.42350  Biso   1.000  C
  N9       1.0000 0.20600  0.22730  0.30350  Biso   1.000  N
  N10      1.0000 0.11540  0.07520  0.21660  Biso   1.000  N
  O5       1.0000 0.09630  0.09490  0.54500  Biso   1.000  O
  O6       1.0000 0.03470  0.00170  0.36560  Biso   1.000  O
  N11      1.0000 0.89420  0.97750  0.01870  Biso   1.000  N
  N12      1.0000 0.51340  0.33920  0.23940  Biso   1.000  N
  C42      1.0000 0.84690  0.92370  0.90890  Biso   1.000  C
  C43      1.0000 0.75020  0.93480  0.78810  Biso   1.000  C
  C44      1.0000 0.69600  0.00580  0.77930  Biso   1.000  C
  C45      1.0000 0.74380  0.06050  0.89690  Biso   1.000  C
  C46      1.0000 0.84150  0.04500  0.01200  Biso   1.000  C
  C47      1.0000 0.55310  0.27100  0.21830  Biso   1.000  C
  C48      1.0000 0.54280  0.19780  0.27250  Biso   1.000  C
  C49      1.0000 0.49070  0.19120  0.35180  Biso   1.000  C
  C50      1.0000 0.44720  0.26110  0.36890  Biso   1.000  C
  C51      1.0000 0.45910  0.33310  0.30980  Biso   1.000  C
  C52      1.0000 0.59050  0.02150  0.64920  Biso   1.000  C
  C53      1.0000 0.59220  0.09550  0.56040  Biso   1.000  C
  C54      1.0000 0.48680  0.11310  0.42550  Biso   1.000  C
  H35      1.0000 0.16000  0.21900  0.47000  Biso   1.000  H
  H36      1.0000 0.21300  0.21900  0.12500  Biso   1.000  H
  H37      1.0000 0.14900  0.09100  0.05900  Biso   1.000  H
  H38      1.0000 0.61200  0.14700  0.63300  Biso   1.000  H
  H39      1.0000 0.43200  0.11400  0.45300  Biso   1.000  H
  H40      1.0000 0.64000  0.08800  0.54600  Biso   1.000  H
  H41      1.0000 0.53000  0.02500  0.66700  Biso   1.000  H
  H42      1.0000 0.55400  0.96800  0.57300  Biso   1.000  H
  H43      1.0000 0.43000  0.38200  0.32000  Biso   1.000  H
  H44      1.0000 0.40300  0.26600  0.42500  Biso   1.000  H
  H45      1.0000 0.45800  0.07500  0.36000  Biso   1.000  H
  H46      1.0000 0.56200  0.15200  0.26000  Biso   1.000  H
  H47      1.0000 0.60500  0.27300  0.17800  Biso   1.000  H
  H48      1.0000 0.86600  0.07900  0.08500  Biso   1.000  H
  H49      1.0000 0.71000  0.11100  0.91200  Biso   1.000  H
  H50      1.0000 0.72100  0.90100  0.72400  Biso   1.000  H
  H51      1.0000 0.88400  0.87700  0.90800  Biso   1.000  H
  Zn4      1.0000 0.54693  0.45434  0.18315  Biso   1.000  Zn
  C55      1.0000 0.62350  0.61240  0.33770  Biso   1.000  C
  C56      1.0000 0.66820  0.68830  0.38060  Biso   1.000  C
  C57      1.0000 0.69800  0.68900  0.18490  Biso   1.000  C
  C58      1.0000 0.65370  0.61370  0.14060  Biso   1.000  C
  C59      1.0000 0.58120  0.56610  0.42350  Biso   1.000  C
  N13      1.0000 0.70600  0.72730  0.30350  Biso   1.000  N
  N14      1.0000 0.61540  0.57520  0.21660  Biso   1.000  N
  O7       1.0000 0.59630  0.59490  0.54500  Biso   1.000  O
  O8       1.0000 0.53470  0.50170  0.36560  Biso   1.000  O
  N15      1.0000 0.39420  0.47750  0.01870  Biso   1.000  N
  N16      1.0000 0.01340  0.83920  0.23940  Biso   1.000  N
  C60      1.0000 0.34690  0.42370  0.90890  Biso   1.000  C
  C61      1.0000 0.25020  0.43480  0.78810  Biso   1.000  C
  C62      1.0000 0.19600  0.50580  0.77930  Biso   1.000  C
  C63      1.0000 0.24380  0.56050  0.89690  Biso   1.000  C
  C64      1.0000 0.34150  0.54500  0.01200  Biso   1.000  C
  C65      1.0000 0.05310  0.77100  0.21830  Biso   1.000  C
  C66      1.0000 0.04280  0.69780  0.27250  Biso   1.000  C
  C67      1.0000 0.99070  0.69120  0.35180  Biso   1.000  C
  C68      1.0000 0.94720  0.76110  0.36890  Biso   1.000  C
  C69      1.0000 0.95910  0.83310  0.30980  Biso   1.000  C
  C70      1.0000 0.09050  0.52150  0.64920  Biso   1.000  C
  C71      1.0000 0.09220  0.59550  0.56040  Biso   1.000  C
  C72      1.0000 0.98680  0.61310  0.42550  Biso   1.000  C
  H52      1.0000 0.66000  0.71900  0.47000  Biso   1.000  H
  H53      1.0000 0.71300  0.71900  0.12500  Biso   1.000  H
  H54      1.0000 0.64900  0.59100  0.05900  Biso   1.000  H
  H55      1.0000 0.11200  0.64700  0.63300  Biso   1.000  H
  H56      1.0000 0.93200  0.61400  0.45300  Biso   1.000  H
  H57      1.0000 0.14000  0.58800  0.54600  Biso   1.000  H
  H58      1.0000 0.03000  0.52500  0.66700  Biso   1.000  H
  H59      1.0000 0.05400  0.46800  0.57300  Biso   1.000  H
  H60      1.0000 0.93000  0.88200  0.32000  Biso   1.000  H
  H61      1.0000 0.90300  0.76600  0.42500  Biso   1.000  H
  H62      1.0000 0.95800  0.57500  0.36000  Biso   1.000  H
  H63      1.0000 0.06200  0.65200  0.26000  Biso   1.000  H
  H64      1.0000 0.10500  0.77300  0.17800  Biso   1.000  H
  H65      1.0000 0.36600  0.57900  0.08500  Biso   1.000  H
  H66      1.0000 0.21000  0.61100  0.91200  Biso   1.000  H
  H67      1.0000 0.22100  0.40100  0.72400  Biso   1.000  H
  H68      1.0000 0.38400  0.37700  0.90800  Biso   1.000  H
