data_image0
_cell_length_a       13.0843
_cell_length_b       25.4045
_cell_length_c       16.3416
_cell_angle_alpha    90
_cell_angle_beta     93.974
_cell_angle_gamma    90

_symmetry_space_group_name_H-M    "P 1"
_symmetry_int_tables_number       1

loop_
  _symmetry_equiv_pos_as_xyz
  'x, y, z'

loop_
  _atom_site_label
  _atom_site_occupancy
  _atom_site_fract_x
  _atom_site_fract_y
  _atom_site_fract_z
  _atom_site_thermal_displace_type
  _atom_site_B_iso_or_equiv
  _atom_site_type_symbol
  C1       1.0000 0.54776  0.78317  0.47782  Biso   1.000  C
  C2       1.0000 0.67354  0.73818  0.40145  Biso   1.000  C
  H1       1.0000 0.69720  0.70710  0.37930  Biso   1.000  H
  C3       1.0000 0.22458  0.90102  0.26943  Biso   1.000  C
  C4       1.0000 0.82948  0.67126  0.06082  Biso   1.000  C
  C5       1.0000 0.94466  0.74100  0.26655  Biso   1.000  C
  C6       1.0000 0.91795  0.70104  0.02906  Biso   1.000  C
  C7       1.0000 0.11943  0.72905  0.18648  Biso   1.000  C
  H2       1.0000 0.17910  0.72480  0.15930  Biso   1.000  H
  C8       1.0000 0.72654  0.78457  0.39181  Biso   1.000  C
  C9       1.0000 0.58561  0.73761  0.44378  Biso   1.000  C
  H3       1.0000 0.55100  0.70600  0.44960  Biso   1.000  H
  C10      1.0000 0.82156  0.78948  0.34581  Biso   1.000  C
  C11      1.0000 0.99493  0.78369  0.23377  Biso   1.000  C
  H4       1.0000 0.96820  0.81730  0.23910  Biso   1.000  H
  C12      1.0000 0.98494  0.69110  0.25754  Biso   1.000  C
  H5       1.0000 0.95290  0.66190  0.27860  Biso   1.000  H
  C13      1.0000 0.29730  0.95280  0.38985  Biso   1.000  C
  H6       1.0000 0.31530  0.92110  0.41550  Biso   1.000  H
  C14      1.0000 0.69020  0.83007  0.42625  Biso   1.000  C
  H7       1.0000 0.72540  0.86150  0.42090  Biso   1.000  H
  C15      1.0000 0.24769  0.95240  0.31204  Biso   1.000  C
  C16      1.0000 0.07296  0.68535  0.21710  Biso   1.000  C
  H8       1.0000 0.10100  0.65210  0.21050  Biso   1.000  H
  C17      1.0000 0.91798  0.75554  0.02881  Biso   1.000  C
  H9       1.0000 0.86290  0.77380  0.04800  Biso   1.000  H
  C18      1.0000 0.60250  0.82944  0.46827  Biso   1.000  C
  H10      1.0000 0.57940  0.86060  0.49070  Biso   1.000  H
  N1       1.0000 0.08112  0.77729  0.19471  Biso   1.000  N
  N2       1.0000 0.85458  0.74591  0.30873  Biso   1.000  N
  H11      1.0000 0.81690  0.71830  0.31100  Biso   1.000  H
  O1       1.0000 0.26423  0.86029  0.29660  Biso   1.000  O
  O2       1.0000 0.16410  0.90349  0.20457  Biso   1.000  O
  O3       1.0000 0.38550  0.95705  0.55028  Biso   1.000  O
  O4       1.0000 0.86718  0.83111  0.34337  Biso   1.000  O
  O5       1.0000 0.76940  0.69844  0.10246  Biso   1.000  O
  O6       1.0000 0.81741  0.62457  0.04569  Biso   1.000  O
  O7       1.0000 0.05888  0.86626  0.05091  Biso   1.000  O
  Zn1      1.0000 0.15353  0.83879  0.14203  Biso   1.000  Zn
  C19      1.0000 0.04776  0.28317  0.47782  Biso   1.000  C
  C20      1.0000 0.17354  0.23818  0.40145  Biso   1.000  C
  H12      1.0000 0.19720  0.20710  0.37930  Biso   1.000  H
  C21      1.0000 0.72458  0.40102  0.26943  Biso   1.000  C
  C22      1.0000 0.32948  0.17126  0.06082  Biso   1.000  C
  C23      1.0000 0.44466  0.24100  0.26655  Biso   1.000  C
  C24      1.0000 0.41795  0.20104  0.02906  Biso   1.000  C
  C25      1.0000 0.61943  0.22905  0.18648  Biso   1.000  C
  H13      1.0000 0.67910  0.22480  0.15930  Biso   1.000  H
  C26      1.0000 0.22654  0.28457  0.39181  Biso   1.000  C
  C27      1.0000 0.08561  0.23761  0.44378  Biso   1.000  C
  H14      1.0000 0.05100  0.20600  0.44960  Biso   1.000  H
  C28      1.0000 0.32156  0.28948  0.34581  Biso   1.000  C
  C29      1.0000 0.49493  0.28369  0.23377  Biso   1.000  C
  H15      1.0000 0.46820  0.31730  0.23910  Biso   1.000  H
  C30      1.0000 0.48494  0.19110  0.25754  Biso   1.000  C
  H16      1.0000 0.45290  0.16190  0.27860  Biso   1.000  H
  C31      1.0000 0.79730  0.45280  0.38985  Biso   1.000  C
  H17      1.0000 0.81530  0.42110  0.41550  Biso   1.000  H
  C32      1.0000 0.19020  0.33007  0.42625  Biso   1.000  C
  H18      1.0000 0.22540  0.36150  0.42090  Biso   1.000  H
  C33      1.0000 0.74769  0.45240  0.31204  Biso   1.000  C
  C34      1.0000 0.57296  0.18535  0.21710  Biso   1.000  C
  H19      1.0000 0.60100  0.15210  0.21050  Biso   1.000  H
  C35      1.0000 0.41798  0.25554  0.02881  Biso   1.000  C
  H20      1.0000 0.36290  0.27380  0.04800  Biso   1.000  H
  C36      1.0000 0.10250  0.32944  0.46827  Biso   1.000  C
  H21      1.0000 0.07940  0.36060  0.49070  Biso   1.000  H
  N3       1.0000 0.58112  0.27729  0.19471  Biso   1.000  N
  N4       1.0000 0.35458  0.24591  0.30873  Biso   1.000  N
  H22      1.0000 0.31690  0.21830  0.31100  Biso   1.000  H
  O8       1.0000 0.76423  0.36029  0.29660  Biso   1.000  O
  O9       1.0000 0.66410  0.40349  0.20457  Biso   1.000  O
  O10      1.0000 0.88550  0.45705  0.55028  Biso   1.000  O
  O11      1.0000 0.36718  0.33111  0.34337  Biso   1.000  O
  O12      1.0000 0.26940  0.19844  0.10246  Biso   1.000  O
  O13      1.0000 0.31741  0.12457  0.04569  Biso   1.000  O
  O14      1.0000 0.55888  0.36626  0.05091  Biso   1.000  O
  Zn2      1.0000 0.65353  0.33879  0.14203  Biso   1.000  Zn
  C37      1.0000 0.45224  0.78317  0.52218  Biso   1.000  C
  C38      1.0000 0.32646  0.73818  0.59855  Biso   1.000  C
  H23      1.0000 0.30280  0.70710  0.62070  Biso   1.000  H
  C39      1.0000 0.77542  0.90102  0.73057  Biso   1.000  C
  C40      1.0000 0.17052  0.67126  0.93918  Biso   1.000  C
  C41      1.0000 0.05534  0.74100  0.73345  Biso   1.000  C
  C42      1.0000 0.08205  0.70104  0.97094  Biso   1.000  C
  C43      1.0000 0.88057  0.72905  0.81352  Biso   1.000  C
  H24      1.0000 0.82090  0.72480  0.84070  Biso   1.000  H
  C44      1.0000 0.27346  0.78457  0.60819  Biso   1.000  C
  C45      1.0000 0.41439  0.73761  0.55622  Biso   1.000  C
  H25      1.0000 0.44900  0.70600  0.55040  Biso   1.000  H
  C46      1.0000 0.17844  0.78948  0.65419  Biso   1.000  C
  C47      1.0000 0.00507  0.78369  0.76623  Biso   1.000  C
  H26      1.0000 0.03180  0.81730  0.76090  Biso   1.000  H
  C48      1.0000 0.01506  0.69110  0.74246  Biso   1.000  C
  H27      1.0000 0.04710  0.66190  0.72140  Biso   1.000  H
  C49      1.0000 0.70270  0.95280  0.61015  Biso   1.000  C
  H28      1.0000 0.68470  0.92110  0.58450  Biso   1.000  H
  C50      1.0000 0.30980  0.83007  0.57375  Biso   1.000  C
  H29      1.0000 0.27460  0.86150  0.57910  Biso   1.000  H
  C51      1.0000 0.75231  0.95240  0.68796  Biso   1.000  C
  C52      1.0000 0.92704  0.68535  0.78290  Biso   1.000  C
  H30      1.0000 0.89900  0.65210  0.78950  Biso   1.000  H
  C53      1.0000 0.08202  0.75554  0.97119  Biso   1.000  C
  H31      1.0000 0.13710  0.77380  0.95200  Biso   1.000  H
  C54      1.0000 0.39750  0.82944  0.53173  Biso   1.000  C
  H32      1.0000 0.42060  0.86060  0.50930  Biso   1.000  H
  N5       1.0000 0.91888  0.77729  0.80529  Biso   1.000  N
  N6       1.0000 0.14542  0.74591  0.69127  Biso   1.000  N
  H33      1.0000 0.18310  0.71830  0.68900  Biso   1.000  H
  O15      1.0000 0.73577  0.86029  0.70340  Biso   1.000  O
  O16      1.0000 0.83590  0.90349  0.79543  Biso   1.000  O
  O17      1.0000 0.61450  0.95705  0.44972  Biso   1.000  O
  O18      1.0000 0.13282  0.83111  0.65663  Biso   1.000  O
  O19      1.0000 0.23060  0.69844  0.89754  Biso   1.000  O
  O20      1.0000 0.18259  0.62457  0.95431  Biso   1.000  O
  O21      1.0000 0.94112  0.86626  0.94909  Biso   1.000  O
  Zn3      1.0000 0.84647  0.83879  0.85797  Biso   1.000  Zn
  C55      1.0000 0.95224  0.28317  0.52218  Biso   1.000  C
  C56      1.0000 0.82646  0.23818  0.59855  Biso   1.000  C
  H34      1.0000 0.80280  0.20710  0.62070  Biso   1.000  H
  C57      1.0000 0.27542  0.40102  0.73057  Biso   1.000  C
  C58      1.0000 0.67052  0.17126  0.93918  Biso   1.000  C
  C59      1.0000 0.55534  0.24100  0.73345  Biso   1.000  C
  C60      1.0000 0.58205  0.20104  0.97094  Biso   1.000  C
  C61      1.0000 0.38057  0.22905  0.81352  Biso   1.000  C
  H35      1.0000 0.32090  0.22480  0.84070  Biso   1.000  H
  C62      1.0000 0.77346  0.28457  0.60819  Biso   1.000  C
  C63      1.0000 0.91439  0.23761  0.55622  Biso   1.000  C
  H36      1.0000 0.94900  0.20600  0.55040  Biso   1.000  H
  C64      1.0000 0.67844  0.28948  0.65419  Biso   1.000  C
  C65      1.0000 0.50507  0.28369  0.76623  Biso   1.000  C
  H37      1.0000 0.53180  0.31730  0.76090  Biso   1.000  H
  C66      1.0000 0.51506  0.19110  0.74246  Biso   1.000  C
  H38      1.0000 0.54710  0.16190  0.72140  Biso   1.000  H
  C67      1.0000 0.20270  0.45280  0.61015  Biso   1.000  C
  H39      1.0000 0.18470  0.42110  0.58450  Biso   1.000  H
  C68      1.0000 0.80980  0.33007  0.57375  Biso   1.000  C
  H40      1.0000 0.77460  0.36150  0.57910  Biso   1.000  H
  C69      1.0000 0.25231  0.45240  0.68796  Biso   1.000  C
  C70      1.0000 0.42704  0.18535  0.78290  Biso   1.000  C
  H41      1.0000 0.39900  0.15210  0.78950  Biso   1.000  H
  C71      1.0000 0.58202  0.25554  0.97119  Biso   1.000  C
  H42      1.0000 0.63710  0.27380  0.95200  Biso   1.000  H
  C72      1.0000 0.89750  0.32944  0.53173  Biso   1.000  C
  H43      1.0000 0.92060  0.36060  0.50930  Biso   1.000  H
  N7       1.0000 0.41888  0.27729  0.80529  Biso   1.000  N
  N8       1.0000 0.64542  0.24591  0.69127  Biso   1.000  N
  H44      1.0000 0.68310  0.21830  0.68900  Biso   1.000  H
  O22      1.0000 0.23577  0.36029  0.70340  Biso   1.000  O
  O23      1.0000 0.33590  0.40349  0.79543  Biso   1.000  O
  O24      1.0000 0.11450  0.45705  0.44972  Biso   1.000  O
  O25      1.0000 0.63282  0.33111  0.65663  Biso   1.000  O
  O26      1.0000 0.73060  0.19844  0.89754  Biso   1.000  O
  O27      1.0000 0.68259  0.12457  0.95431  Biso   1.000  O
  O28      1.0000 0.44112  0.36626  0.94909  Biso   1.000  O
  Zn4      1.0000 0.34647  0.33879  0.85797  Biso   1.000  Zn
  C73      1.0000 0.45224  0.21683  0.52218  Biso   1.000  C
  C74      1.0000 0.32646  0.26182  0.59855  Biso   1.000  C
  H45      1.0000 0.30280  0.29290  0.62070  Biso   1.000  H
  C75      1.0000 0.77542  0.09898  0.73057  Biso   1.000  C
  C76      1.0000 0.17052  0.32874  0.93918  Biso   1.000  C
  C77      1.0000 0.05534  0.25900  0.73345  Biso   1.000  C
  C78      1.0000 0.08205  0.29896  0.97094  Biso   1.000  C
  C79      1.0000 0.88057  0.27095  0.81352  Biso   1.000  C
  H46      1.0000 0.82090  0.27520  0.84070  Biso   1.000  H
  C80      1.0000 0.27346  0.21543  0.60819  Biso   1.000  C
  C81      1.0000 0.41439  0.26239  0.55622  Biso   1.000  C
  H47      1.0000 0.44900  0.29400  0.55040  Biso   1.000  H
  C82      1.0000 0.17844  0.21052  0.65419  Biso   1.000  C
  C83      1.0000 0.00507  0.21631  0.76623  Biso   1.000  C
  H48      1.0000 0.03180  0.18270  0.76090  Biso   1.000  H
  C84      1.0000 0.01506  0.30890  0.74246  Biso   1.000  C
  H49      1.0000 0.04710  0.33810  0.72140  Biso   1.000  H
  C85      1.0000 0.70270  0.04720  0.61015  Biso   1.000  C
  H50      1.0000 0.68470  0.07890  0.58450  Biso   1.000  H
  C86      1.0000 0.30980  0.16993  0.57375  Biso   1.000  C
  H51      1.0000 0.27460  0.13850  0.57910  Biso   1.000  H
  C87      1.0000 0.75231  0.04760  0.68796  Biso   1.000  C
  C88      1.0000 0.92704  0.31465  0.78290  Biso   1.000  C
  H52      1.0000 0.89900  0.34790  0.78950  Biso   1.000  H
  C89      1.0000 0.08202  0.24446  0.97119  Biso   1.000  C
  H53      1.0000 0.13710  0.22620  0.95200  Biso   1.000  H
  C90      1.0000 0.39750  0.17056  0.53173  Biso   1.000  C
  H54      1.0000 0.42060  0.13940  0.50930  Biso   1.000  H
  N9       1.0000 0.91888  0.22271  0.80529  Biso   1.000  N
  N10      1.0000 0.14542  0.25409  0.69127  Biso   1.000  N
  H55      1.0000 0.18310  0.28170  0.68900  Biso   1.000  H
  O29      1.0000 0.73577  0.13971  0.70340  Biso   1.000  O
  O30      1.0000 0.83590  0.09651  0.79543  Biso   1.000  O
  O31      1.0000 0.61450  0.04295  0.44972  Biso   1.000  O
  O32      1.0000 0.13282  0.16889  0.65663  Biso   1.000  O
  O33      1.0000 0.23060  0.30156  0.89754  Biso   1.000  O
  O34      1.0000 0.18259  0.37543  0.95431  Biso   1.000  O
  O35      1.0000 0.94112  0.13374  0.94909  Biso   1.000  O
  Zn5      1.0000 0.84647  0.16121  0.85797  Biso   1.000  Zn
  C91      1.0000 0.95224  0.71683  0.52218  Biso   1.000  C
  C92      1.0000 0.82646  0.76182  0.59855  Biso   1.000  C
  H56      1.0000 0.80280  0.79290  0.62070  Biso   1.000  H
  C93      1.0000 0.27542  0.59898  0.73057  Biso   1.000  C
  C94      1.0000 0.67052  0.82874  0.93918  Biso   1.000  C
  C95      1.0000 0.55534  0.75900  0.73345  Biso   1.000  C
  C96      1.0000 0.58205  0.79896  0.97094  Biso   1.000  C
  C97      1.0000 0.38057  0.77095  0.81352  Biso   1.000  C
  H57      1.0000 0.32090  0.77520  0.84070  Biso   1.000  H
  C98      1.0000 0.77346  0.71543  0.60819  Biso   1.000  C
  C99      1.0000 0.91439  0.76239  0.55622  Biso   1.000  C
  H58      1.0000 0.94900  0.79400  0.55040  Biso   1.000  H
  C100     1.0000 0.67844  0.71052  0.65419  Biso   1.000  C
  C101     1.0000 0.50507  0.71631  0.76623  Biso   1.000  C
  H59      1.0000 0.53180  0.68270  0.76090  Biso   1.000  H
  C102     1.0000 0.51506  0.80890  0.74246  Biso   1.000  C
  H60      1.0000 0.54710  0.83810  0.72140  Biso   1.000  H
  C103     1.0000 0.20270  0.54720  0.61015  Biso   1.000  C
  H61      1.0000 0.18470  0.57890  0.58450  Biso   1.000  H
  C104     1.0000 0.80980  0.66993  0.57375  Biso   1.000  C
  H62      1.0000 0.77460  0.63850  0.57910  Biso   1.000  H
  C105     1.0000 0.25231  0.54760  0.68796  Biso   1.000  C
  C106     1.0000 0.42704  0.81465  0.78290  Biso   1.000  C
  H63      1.0000 0.39900  0.84790  0.78950  Biso   1.000  H
  C107     1.0000 0.58202  0.74446  0.97119  Biso   1.000  C
  H64      1.0000 0.63710  0.72620  0.95200  Biso   1.000  H
  C108     1.0000 0.89750  0.67056  0.53173  Biso   1.000  C
  H65      1.0000 0.92060  0.63940  0.50930  Biso   1.000  H
  N11      1.0000 0.41888  0.72271  0.80529  Biso   1.000  N
  N12      1.0000 0.64542  0.75409  0.69127  Biso   1.000  N
  H66      1.0000 0.68310  0.78170  0.68900  Biso   1.000  H
  O36      1.0000 0.23577  0.63971  0.70340  Biso   1.000  O
  O37      1.0000 0.33590  0.59651  0.79543  Biso   1.000  O
  O38      1.0000 0.11450  0.54295  0.44972  Biso   1.000  O
  O39      1.0000 0.63282  0.66889  0.65663  Biso   1.000  O
  O40      1.0000 0.73060  0.80156  0.89754  Biso   1.000  O
  O41      1.0000 0.68259  0.87543  0.95431  Biso   1.000  O
  O42      1.0000 0.44112  0.63374  0.94909  Biso   1.000  O
  Zn6      1.0000 0.34647  0.66121  0.85797  Biso   1.000  Zn
  C109     1.0000 0.54776  0.21683  0.47782  Biso   1.000  C
  C110     1.0000 0.67354  0.26182  0.40145  Biso   1.000  C
  H67      1.0000 0.69720  0.29290  0.37930  Biso   1.000  H
  C111     1.0000 0.22458  0.09898  0.26943  Biso   1.000  C
  C112     1.0000 0.82948  0.32874  0.06082  Biso   1.000  C
  C113     1.0000 0.94466  0.25900  0.26655  Biso   1.000  C
  C114     1.0000 0.91795  0.29896  0.02906  Biso   1.000  C
  C115     1.0000 0.11943  0.27095  0.18648  Biso   1.000  C
  H68      1.0000 0.17910  0.27520  0.15930  Biso   1.000  H
  C116     1.0000 0.72654  0.21543  0.39181  Biso   1.000  C
  C117     1.0000 0.58561  0.26239  0.44378  Biso   1.000  C
  H69      1.0000 0.55100  0.29400  0.44960  Biso   1.000  H
  C118     1.0000 0.82156  0.21052  0.34581  Biso   1.000  C
  C119     1.0000 0.99493  0.21631  0.23377  Biso   1.000  C
  H70      1.0000 0.96820  0.18270  0.23910  Biso   1.000  H
  C120     1.0000 0.98494  0.30890  0.25754  Biso   1.000  C
  H71      1.0000 0.95290  0.33810  0.27860  Biso   1.000  H
  C121     1.0000 0.29730  0.04720  0.38985  Biso   1.000  C
  H72      1.0000 0.31530  0.07890  0.41550  Biso   1.000  H
  C122     1.0000 0.69020  0.16993  0.42625  Biso   1.000  C
  H73      1.0000 0.72540  0.13850  0.42090  Biso   1.000  H
  C123     1.0000 0.24769  0.04760  0.31204  Biso   1.000  C
  C124     1.0000 0.07296  0.31465  0.21710  Biso   1.000  C
  H74      1.0000 0.10100  0.34790  0.21050  Biso   1.000  H
  C125     1.0000 0.91798  0.24446  0.02881  Biso   1.000  C
  H75      1.0000 0.86290  0.22620  0.04800  Biso   1.000  H
  C126     1.0000 0.60250  0.17056  0.46827  Biso   1.000  C
  H76      1.0000 0.57940  0.13940  0.49070  Biso   1.000  H
  N13      1.0000 0.08112  0.22271  0.19471  Biso   1.000  N
  N14      1.0000 0.85458  0.25409  0.30873  Biso   1.000  N
  H77      1.0000 0.81690  0.28170  0.31100  Biso   1.000  H
  O43      1.0000 0.26423  0.13971  0.29660  Biso   1.000  O
  O44      1.0000 0.16410  0.09651  0.20457  Biso   1.000  O
  O45      1.0000 0.38550  0.04295  0.55028  Biso   1.000  O
  O46      1.0000 0.86718  0.16889  0.34337  Biso   1.000  O
  O47      1.0000 0.76940  0.30156  0.10246  Biso   1.000  O
  O48      1.0000 0.81741  0.37543  0.04569  Biso   1.000  O
  O49      1.0000 0.05888  0.13374  0.05091  Biso   1.000  O
  Zn7      1.0000 0.15353  0.16121  0.14203  Biso   1.000  Zn
  C127     1.0000 0.04776  0.71683  0.47782  Biso   1.000  C
  C128     1.0000 0.17354  0.76182  0.40145  Biso   1.000  C
  H78      1.0000 0.19720  0.79290  0.37930  Biso   1.000  H
  C129     1.0000 0.72458  0.59898  0.26943  Biso   1.000  C
  C130     1.0000 0.32948  0.82874  0.06082  Biso   1.000  C
  C131     1.0000 0.44466  0.75900  0.26655  Biso   1.000  C
  C132     1.0000 0.41795  0.79896  0.02906  Biso   1.000  C
  C133     1.0000 0.61943  0.77095  0.18648  Biso   1.000  C
  H79      1.0000 0.67910  0.77520  0.15930  Biso   1.000  H
  C134     1.0000 0.22654  0.71543  0.39181  Biso   1.000  C
  C135     1.0000 0.08561  0.76239  0.44378  Biso   1.000  C
  H80      1.0000 0.05100  0.79400  0.44960  Biso   1.000  H
  C136     1.0000 0.32156  0.71052  0.34581  Biso   1.000  C
  C137     1.0000 0.49493  0.71631  0.23377  Biso   1.000  C
  H81      1.0000 0.46820  0.68270  0.23910  Biso   1.000  H
  C138     1.0000 0.48494  0.80890  0.25754  Biso   1.000  C
  H82      1.0000 0.45290  0.83810  0.27860  Biso   1.000  H
  C139     1.0000 0.79730  0.54720  0.38985  Biso   1.000  C
  H83      1.0000 0.81530  0.57890  0.41550  Biso   1.000  H
  C140     1.0000 0.19020  0.66993  0.42625  Biso   1.000  C
  H84      1.0000 0.22540  0.63850  0.42090  Biso   1.000  H
  C141     1.0000 0.74769  0.54760  0.31204  Biso   1.000  C
  C142     1.0000 0.57296  0.81465  0.21710  Biso   1.000  C
  H85      1.0000 0.60100  0.84790  0.21050  Biso   1.000  H
  C143     1.0000 0.41798  0.74446  0.02881  Biso   1.000  C
  H86      1.0000 0.36290  0.72620  0.04800  Biso   1.000  H
  C144     1.0000 0.10250  0.67056  0.46827  Biso   1.000  C
  H87      1.0000 0.07940  0.63940  0.49070  Biso   1.000  H
  N15      1.0000 0.58112  0.72271  0.19471  Biso   1.000  N
  N16      1.0000 0.35458  0.75409  0.30873  Biso   1.000  N
  H88      1.0000 0.31690  0.78170  0.31100  Biso   1.000  H
  O50      1.0000 0.76423  0.63971  0.29660  Biso   1.000  O
  O51      1.0000 0.66410  0.59651  0.20457  Biso   1.000  O
  O52      1.0000 0.88550  0.54295  0.55028  Biso   1.000  O
  O53      1.0000 0.36718  0.66889  0.34337  Biso   1.000  O
  O54      1.0000 0.26940  0.80156  0.10246  Biso   1.000  O
  O55      1.0000 0.31741  0.87543  0.04569  Biso   1.000  O
  O56      1.0000 0.55888  0.63374  0.05091  Biso   1.000  O
  Zn8      1.0000 0.65353  0.66121  0.14203  Biso   1.000  Zn
  C145     1.0000 0.22200  0.00000  0.27470  Biso   1.000  C
  H89      1.0000 0.18670  0.00000  0.22330  Biso   1.000  H
  C146     1.0000 0.32050  0.00000  0.42980  Biso   1.000  C
  C147     1.0000 0.36850  0.00000  0.51530  Biso   1.000  C
  C148     1.0000 0.72200  0.50000  0.27470  Biso   1.000  C
  H90      1.0000 0.68670  0.50000  0.22330  Biso   1.000  H
  C149     1.0000 0.82050  0.50000  0.42980  Biso   1.000  C
  C150     1.0000 0.86850  0.50000  0.51530  Biso   1.000  C
  C151     1.0000 0.77800  0.00000  0.72530  Biso   1.000  C
  H91      1.0000 0.81330  0.00000  0.77670  Biso   1.000  H
  C152     1.0000 0.67950  0.00000  0.57020  Biso   1.000  C
  C153     1.0000 0.63150  0.00000  0.48470  Biso   1.000  C
  C154     1.0000 0.27800  0.50000  0.72530  Biso   1.000  C
  H92      1.0000 0.31330  0.50000  0.77670  Biso   1.000  H
  C155     1.0000 0.17950  0.50000  0.57020  Biso   1.000  C
  C156     1.0000 0.13150  0.50000  0.48470  Biso   1.000  C
  C157     1.0000 0.00000  0.67390  0.00000  Biso   1.000  C
  H93      1.0000 0.00000  0.63730  0.00000  Biso   1.000  H
  C158     1.0000 0.00000  0.78304  0.00000  Biso   1.000  C
  C159     1.0000 0.00000  0.84201  0.00000  Biso   1.000  C
  C160     1.0000 0.50000  0.17390  0.00000  Biso   1.000  C
  H94      1.0000 0.50000  0.13730  0.00000  Biso   1.000  H
  C161     1.0000 0.50000  0.28304  0.00000  Biso   1.000  C
  C162     1.0000 0.50000  0.34201  0.00000  Biso   1.000  C
  C163     1.0000 0.00000  0.32610  0.00000  Biso   1.000  C
  H95      1.0000 0.00000  0.36270  0.00000  Biso   1.000  H
  C164     1.0000 0.00000  0.21696  0.00000  Biso   1.000  C
  C165     1.0000 0.00000  0.15799  0.00000  Biso   1.000  C
  C166     1.0000 0.50000  0.82610  0.00000  Biso   1.000  C
  H96      1.0000 0.50000  0.86270  0.00000  Biso   1.000  H
  C167     1.0000 0.50000  0.71696  0.00000  Biso   1.000  C
  C168     1.0000 0.50000  0.65799  0.00000  Biso   1.000  C
