data_image0
_cell_length_a       10.3397
_cell_length_b       14.7632
_cell_length_c       13.7726
_cell_angle_alpha    90
_cell_angle_beta     100.734
_cell_angle_gamma    90

_symmetry_space_group_name_H-M    "P 1"
_symmetry_int_tables_number       1

loop_
  _symmetry_equiv_pos_as_xyz
  'x, y, z'

loop_
  _atom_site_label
  _atom_site_occupancy
  _atom_site_fract_x
  _atom_site_fract_y
  _atom_site_fract_z
  _atom_site_thermal_displace_type
  _atom_site_B_iso_or_equiv
  _atom_site_type_symbol
  Zn1      1.0000 0.05411  0.92103  0.39766  Biso   1.000  Zn
  P1       1.0000 0.21080  0.84684  0.23170  Biso   1.000  P
  H1       1.0000 0.19400  0.75800  0.26100  Biso   1.000  H
  P2       1.0000 0.56456  0.62075  0.11604  Biso   1.000  P
  H2       1.0000 0.66000  0.59920  0.20260  Biso   1.000  H
  O1       1.0000 0.18810  0.90620  0.31610  Biso   1.000  O
  O2       1.0000 0.45540  0.55201  0.10760  Biso   1.000  O
  O3       1.0000 0.10890  0.85800  0.13930  Biso   1.000  O
  O4       1.0000 0.63480  0.62050  0.02884  Biso   1.000  O
  O5       1.0000 0.51290  0.71497  0.13271  Biso   1.000  O
  O6       1.0000 0.34920  0.86151  0.21230  Biso   1.000  O
  Zn2      1.0000 0.55411  0.42103  0.39766  Biso   1.000  Zn
  P3       1.0000 0.71080  0.34684  0.23170  Biso   1.000  P
  H3       1.0000 0.69400  0.25800  0.26100  Biso   1.000  H
  P4       1.0000 0.06456  0.12075  0.11604  Biso   1.000  P
  H4       1.0000 0.16000  0.09920  0.20260  Biso   1.000  H
  O7       1.0000 0.68810  0.40620  0.31610  Biso   1.000  O
  O8       1.0000 0.95540  0.05201  0.10760  Biso   1.000  O
  O9       1.0000 0.60890  0.35800  0.13930  Biso   1.000  O
  O10      1.0000 0.13480  0.12050  0.02884  Biso   1.000  O
  O11      1.0000 0.01290  0.21497  0.13271  Biso   1.000  O
  O12      1.0000 0.84920  0.36151  0.21230  Biso   1.000  O
  Zn3      1.0000 0.94589  0.92103  0.10234  Biso   1.000  Zn
  P5       1.0000 0.78920  0.84684  0.26830  Biso   1.000  P
  H5       1.0000 0.80600  0.75800  0.23900  Biso   1.000  H
  P6       1.0000 0.43544  0.62075  0.38396  Biso   1.000  P
  H6       1.0000 0.34000  0.59920  0.29740  Biso   1.000  H
  O13      1.0000 0.81190  0.90620  0.18390  Biso   1.000  O
  O14      1.0000 0.54460  0.55201  0.39240  Biso   1.000  O
  O15      1.0000 0.89110  0.85800  0.36070  Biso   1.000  O
  O16      1.0000 0.36520  0.62050  0.47116  Biso   1.000  O
  O17      1.0000 0.48710  0.71497  0.36729  Biso   1.000  O
  O18      1.0000 0.65080  0.86151  0.28770  Biso   1.000  O
  Zn4      1.0000 0.44589  0.42103  0.10234  Biso   1.000  Zn
  P7       1.0000 0.28920  0.34684  0.26830  Biso   1.000  P
  H7       1.0000 0.30600  0.25800  0.23900  Biso   1.000  H
  P8       1.0000 0.93544  0.12075  0.38396  Biso   1.000  P
  H8       1.0000 0.84000  0.09920  0.29740  Biso   1.000  H
  O19      1.0000 0.31190  0.40620  0.18390  Biso   1.000  O
  O20      1.0000 0.04460  0.05201  0.39240  Biso   1.000  O
  O21      1.0000 0.39110  0.35800  0.36070  Biso   1.000  O
  O22      1.0000 0.86520  0.12050  0.47116  Biso   1.000  O
  O23      1.0000 0.98710  0.21497  0.36729  Biso   1.000  O
  O24      1.0000 0.15080  0.36151  0.28770  Biso   1.000  O
  Zn5      1.0000 0.94589  0.07897  0.60234  Biso   1.000  Zn
  P9       1.0000 0.78920  0.15316  0.76830  Biso   1.000  P
  H9       1.0000 0.80600  0.24200  0.73900  Biso   1.000  H
  P10      1.0000 0.43544  0.37925  0.88396  Biso   1.000  P
  H10      1.0000 0.34000  0.40080  0.79740  Biso   1.000  H
  O25      1.0000 0.81190  0.09380  0.68390  Biso   1.000  O
  O26      1.0000 0.54460  0.44799  0.89240  Biso   1.000  O
  O27      1.0000 0.89110  0.14200  0.86070  Biso   1.000  O
  O28      1.0000 0.36520  0.37950  0.97116  Biso   1.000  O
  O29      1.0000 0.48710  0.28503  0.86729  Biso   1.000  O
  O30      1.0000 0.65080  0.13849  0.78770  Biso   1.000  O
  Zn6      1.0000 0.44589  0.57897  0.60234  Biso   1.000  Zn
  P11      1.0000 0.28920  0.65316  0.76830  Biso   1.000  P
  H11      1.0000 0.30600  0.74200  0.73900  Biso   1.000  H
  P12      1.0000 0.93544  0.87925  0.88396  Biso   1.000  P
  H12      1.0000 0.84000  0.90080  0.79740  Biso   1.000  H
  O31      1.0000 0.31190  0.59380  0.68390  Biso   1.000  O
  O32      1.0000 0.04460  0.94799  0.89240  Biso   1.000  O
  O33      1.0000 0.39110  0.64200  0.86070  Biso   1.000  O
  O34      1.0000 0.86520  0.87950  0.97116  Biso   1.000  O
  O35      1.0000 0.98710  0.78503  0.86729  Biso   1.000  O
  O36      1.0000 0.15080  0.63849  0.78770  Biso   1.000  O
  Zn7      1.0000 0.05411  0.07897  0.89766  Biso   1.000  Zn
  P13      1.0000 0.21080  0.15316  0.73170  Biso   1.000  P
  H13      1.0000 0.19400  0.24200  0.76100  Biso   1.000  H
  P14      1.0000 0.56456  0.37925  0.61604  Biso   1.000  P
  H14      1.0000 0.66000  0.40080  0.70260  Biso   1.000  H
  O37      1.0000 0.18810  0.09380  0.81610  Biso   1.000  O
  O38      1.0000 0.45540  0.44799  0.60760  Biso   1.000  O
  O39      1.0000 0.10890  0.14200  0.63930  Biso   1.000  O
  O40      1.0000 0.63480  0.37950  0.52884  Biso   1.000  O
  O41      1.0000 0.51290  0.28503  0.63271  Biso   1.000  O
  O42      1.0000 0.34920  0.13849  0.71230  Biso   1.000  O
  Zn8      1.0000 0.55411  0.57897  0.89766  Biso   1.000  Zn
  P15      1.0000 0.71080  0.65316  0.73170  Biso   1.000  P
  H15      1.0000 0.69400  0.74200  0.76100  Biso   1.000  H
  P16      1.0000 0.06456  0.87925  0.61604  Biso   1.000  P
  H16      1.0000 0.16000  0.90080  0.70260  Biso   1.000  H
  O43      1.0000 0.68810  0.59380  0.81610  Biso   1.000  O
  O44      1.0000 0.95540  0.94799  0.60760  Biso   1.000  O
  O45      1.0000 0.60890  0.64200  0.63930  Biso   1.000  O
  O46      1.0000 0.13480  0.87950  0.52884  Biso   1.000  O
  O47      1.0000 0.01290  0.78503  0.63271  Biso   1.000  O
  O48      1.0000 0.84920  0.63849  0.71230  Biso   1.000  O
  Zn9      1.0000 0.50000  0.78471  0.25000  Biso   1.000  Zn
  Zn10     1.0000 0.00000  0.28471  0.25000  Biso   1.000  Zn
  Zn11     1.0000 0.50000  0.21529  0.75000  Biso   1.000  Zn
  Zn12     1.0000 0.00000  0.71529  0.75000  Biso   1.000  Zn
