data_image0
_cell_length_a       13.047
_cell_length_b       11.6893
_cell_length_c       7.8244
_cell_angle_alpha    90
_cell_angle_beta     109.954
_cell_angle_gamma    90

_symmetry_space_group_name_H-M    "P 1"
_symmetry_int_tables_number       1

loop_
  _symmetry_equiv_pos_as_xyz
  'x, y, z'

loop_
  _atom_site_label
  _atom_site_occupancy
  _atom_site_fract_x
  _atom_site_fract_y
  _atom_site_fract_z
  _atom_site_thermal_displace_type
  _atom_site_B_iso_or_equiv
  _atom_site_type_symbol
  C1       1.0000 0.13570  0.86620  0.95040  Biso   1.000  C
  O1       1.0000 0.13110  0.90150  0.79670  Biso   1.000  O
  O2       1.0000 0.07290  0.91100  0.02700  Biso   1.000  O
  C2       1.0000 0.21640  0.77580  0.05250  Biso   1.000  C
  H1       1.0000 0.17680  0.71490  0.08690  Biso   1.000  H
  H2       1.0000 0.26560  0.80950  0.16360  Biso   1.000  H
  C3       1.0000 0.63570  0.36620  0.95040  Biso   1.000  C
  O3       1.0000 0.63110  0.40150  0.79670  Biso   1.000  O
  O4       1.0000 0.57290  0.41100  0.02700  Biso   1.000  O
  C4       1.0000 0.71640  0.27580  0.05250  Biso   1.000  C
  H3       1.0000 0.67680  0.21490  0.08690  Biso   1.000  H
  H4       1.0000 0.76560  0.30950  0.16360  Biso   1.000  H
  C5       1.0000 0.86430  0.86620  0.54960  Biso   1.000  C
  O5       1.0000 0.86890  0.90150  0.70330  Biso   1.000  O
  O6       1.0000 0.92710  0.91100  0.47300  Biso   1.000  O
  C6       1.0000 0.78360  0.77580  0.44750  Biso   1.000  C
  H5       1.0000 0.82320  0.71490  0.41310  Biso   1.000  H
  H6       1.0000 0.73440  0.80950  0.33640  Biso   1.000  H
  C7       1.0000 0.36430  0.36620  0.54960  Biso   1.000  C
  O7       1.0000 0.36890  0.40150  0.70330  Biso   1.000  O
  O8       1.0000 0.42710  0.41100  0.47300  Biso   1.000  O
  C8       1.0000 0.28360  0.27580  0.44750  Biso   1.000  C
  H7       1.0000 0.32320  0.21490  0.41310  Biso   1.000  H
  H8       1.0000 0.23440  0.30950  0.33640  Biso   1.000  H
  C9       1.0000 0.86430  0.13380  0.04960  Biso   1.000  C
  O9       1.0000 0.86890  0.09850  0.20330  Biso   1.000  O
  O10      1.0000 0.92710  0.08900  0.97300  Biso   1.000  O
  C10      1.0000 0.78360  0.22420  0.94750  Biso   1.000  C
  H9       1.0000 0.82320  0.28510  0.91310  Biso   1.000  H
  H10      1.0000 0.73440  0.19050  0.83640  Biso   1.000  H
  C11      1.0000 0.36430  0.63380  0.04960  Biso   1.000  C
  O11      1.0000 0.36890  0.59850  0.20330  Biso   1.000  O
  O12      1.0000 0.42710  0.58900  0.97300  Biso   1.000  O
  C12      1.0000 0.28360  0.72420  0.94750  Biso   1.000  C
  H11      1.0000 0.32320  0.78510  0.91310  Biso   1.000  H
  H12      1.0000 0.23440  0.69050  0.83640  Biso   1.000  H
  C13      1.0000 0.13570  0.13380  0.45040  Biso   1.000  C
  O13      1.0000 0.13110  0.09850  0.29670  Biso   1.000  O
  O14      1.0000 0.07290  0.08900  0.52700  Biso   1.000  O
  C14      1.0000 0.21640  0.22420  0.55250  Biso   1.000  C
  H13      1.0000 0.17680  0.28510  0.58690  Biso   1.000  H
  H14      1.0000 0.26560  0.19050  0.66360  Biso   1.000  H
  C15      1.0000 0.63570  0.63380  0.45040  Biso   1.000  C
  O15      1.0000 0.63110  0.59850  0.29670  Biso   1.000  O
  O16      1.0000 0.57290  0.58900  0.52700  Biso   1.000  O
  C16      1.0000 0.71640  0.72420  0.55250  Biso   1.000  C
  H15      1.0000 0.67680  0.78510  0.58690  Biso   1.000  H
  H16      1.0000 0.76560  0.69050  0.66360  Biso   1.000  H
  Er1      1.0000 0.00000  0.05540  0.75000  Biso   1.000  Er
  Er2      1.0000 0.50000  0.55540  0.75000  Biso   1.000  Er
  Er3      1.0000 0.00000  0.94460  0.25000  Biso   1.000  Er
  Er4      1.0000 0.50000  0.44460  0.25000  Biso   1.000  Er
