data_image0
_cell_length_a       12.702
_cell_length_b       9.365
_cell_length_c       11.253
_cell_angle_alpha    90
_cell_angle_beta     90
_cell_angle_gamma    90

_symmetry_space_group_name_H-M    "P 1"
_symmetry_int_tables_number       1

loop_
  _symmetry_equiv_pos_as_xyz
  'x, y, z'

loop_
  _atom_site_label
  _atom_site_occupancy
  _atom_site_fract_x
  _atom_site_fract_y
  _atom_site_fract_z
  _atom_site_thermal_displace_type
  _atom_site_B_iso_or_equiv
  _atom_site_type_symbol
  P1       1.0000 0.42472  0.51160  0.20056  Biso   1.000  P
  O1       1.0000 0.23780  0.86820  0.11240  Biso   1.000  O
  O2       1.0000 0.51410  0.53060  0.10950  Biso   1.000  O
  H1       1.0000 0.56970  0.50320  0.13860  Biso   1.000  H
  O3       1.0000 0.37320  0.36780  0.17670  Biso   1.000  O
  O4       1.0000 0.34490  0.62990  0.17680  Biso   1.000  O
  O5       1.0000 0.15340  0.01480  0.95590  Biso   1.000  O
  O6       1.0000 0.03100  0.47730  0.32470  Biso   1.000  O
  P2       1.0000 0.07528  0.48840  0.20056  Biso   1.000  P
  O7       1.0000 0.26220  0.13180  0.11240  Biso   1.000  O
  O8       1.0000 0.98590  0.46940  0.10950  Biso   1.000  O
  H2       1.0000 0.93030  0.49680  0.13860  Biso   1.000  H
  O9       1.0000 0.12680  0.63220  0.17670  Biso   1.000  O
  O10      1.0000 0.15510  0.37010  0.17680  Biso   1.000  O
  O11      1.0000 0.34660  0.98520  0.95590  Biso   1.000  O
  O12      1.0000 0.46900  0.52270  0.32470  Biso   1.000  O
  P3       1.0000 0.07528  0.01160  0.29944  Biso   1.000  P
  O13      1.0000 0.26220  0.36820  0.38760  Biso   1.000  O
  O14      1.0000 0.98590  0.03060  0.39050  Biso   1.000  O
  H3       1.0000 0.93030  0.00320  0.36140  Biso   1.000  H
  O15      1.0000 0.12680  0.86780  0.32330  Biso   1.000  O
  O16      1.0000 0.15510  0.12990  0.32320  Biso   1.000  O
  O17      1.0000 0.34660  0.51480  0.54410  Biso   1.000  O
  O18      1.0000 0.46900  0.97730  0.17530  Biso   1.000  O
  P4       1.0000 0.42472  0.98840  0.29944  Biso   1.000  P
  O19      1.0000 0.23780  0.63180  0.38760  Biso   1.000  O
  O20      1.0000 0.51410  0.96940  0.39050  Biso   1.000  O
  H4       1.0000 0.56970  0.99680  0.36140  Biso   1.000  H
  O21      1.0000 0.37320  0.13220  0.32330  Biso   1.000  O
  O22      1.0000 0.34490  0.87010  0.32320  Biso   1.000  O
  O23      1.0000 0.15340  0.48520  0.54410  Biso   1.000  O
  O24      1.0000 0.03100  0.02270  0.17530  Biso   1.000  O
  P5       1.0000 0.57528  0.48840  0.79944  Biso   1.000  P
  O25      1.0000 0.76220  0.13180  0.88760  Biso   1.000  O
  O26      1.0000 0.48590  0.46940  0.89050  Biso   1.000  O
  H5       1.0000 0.43030  0.49680  0.86140  Biso   1.000  H
  O27      1.0000 0.62680  0.63220  0.82330  Biso   1.000  O
  O28      1.0000 0.65510  0.37010  0.82320  Biso   1.000  O
  O29      1.0000 0.84660  0.98520  0.04410  Biso   1.000  O
  O30      1.0000 0.96900  0.52270  0.67530  Biso   1.000  O
  P6       1.0000 0.92472  0.51160  0.79944  Biso   1.000  P
  O31      1.0000 0.73780  0.86820  0.88760  Biso   1.000  O
  O32      1.0000 0.01410  0.53060  0.89050  Biso   1.000  O
  H6       1.0000 0.06970  0.50320  0.86140  Biso   1.000  H
  O33      1.0000 0.87320  0.36780  0.82330  Biso   1.000  O
  O34      1.0000 0.84490  0.62990  0.82320  Biso   1.000  O
  O35      1.0000 0.65340  0.01480  0.04410  Biso   1.000  O
  O36      1.0000 0.53100  0.47730  0.67530  Biso   1.000  O
  P7       1.0000 0.92472  0.98840  0.70056  Biso   1.000  P
  O37      1.0000 0.73780  0.63180  0.61240  Biso   1.000  O
  O38      1.0000 0.01410  0.96940  0.60950  Biso   1.000  O
  H7       1.0000 0.06970  0.99680  0.63860  Biso   1.000  H
  O39      1.0000 0.87320  0.13220  0.67670  Biso   1.000  O
  O40      1.0000 0.84490  0.87010  0.67680  Biso   1.000  O
  O41      1.0000 0.65340  0.48520  0.45590  Biso   1.000  O
  O42      1.0000 0.53100  0.02270  0.82470  Biso   1.000  O
  P8       1.0000 0.57528  0.01160  0.70056  Biso   1.000  P
  O43      1.0000 0.76220  0.36820  0.61240  Biso   1.000  O
  O44      1.0000 0.48590  0.03060  0.60950  Biso   1.000  O
  H8       1.0000 0.43030  0.00320  0.63860  Biso   1.000  H
  O45      1.0000 0.62680  0.86780  0.67670  Biso   1.000  O
  O46      1.0000 0.65510  0.12990  0.67680  Biso   1.000  O
  O47      1.0000 0.84660  0.51480  0.45590  Biso   1.000  O
  O48      1.0000 0.96900  0.97730  0.82470  Biso   1.000  O
  Ti1      1.0000 0.25799  0.25000  0.25000  Biso   1.000  Ti
  Ti2      1.0000 0.24201  0.75000  0.25000  Biso   1.000  Ti
  Ti3      1.0000 0.74201  0.75000  0.75000  Biso   1.000  Ti
  Ti4      1.0000 0.75799  0.25000  0.75000  Biso   1.000  Ti
  Ti5      1.0000 0.00000  0.00000  0.00000  Biso   1.000  Ti
  Ti6      1.0000 0.50000  0.00000  0.00000  Biso   1.000  Ti
  Ti7      1.0000 0.50000  0.50000  0.50000  Biso   1.000  Ti
  Ti8      1.0000 0.00000  0.50000  0.50000  Biso   1.000  Ti
  P9       1.0000 0.25000  0.00000  0.03370  Biso   1.000  P
  P10      1.0000 0.25000  0.50000  0.46630  Biso   1.000  P
  P11      1.0000 0.75000  0.00000  0.96630  Biso   1.000  P
  P12      1.0000 0.75000  0.50000  0.53370  Biso   1.000  P
