data_FERVIJ_clean
_audit_creation_date              2014-07-02
_audit_creation_method            'Materials Studio'
_symmetry_space_group_name_H-M    'P1'
_symmetry_Int_Tables_number       1
_symmetry_cell_setting            triclinic
loop_
_symmetry_equiv_pos_as_xyz
  x,y,z
_cell_length_a                    9.7512
_cell_length_b                    15.8547
_cell_length_c                    15.8547
_cell_angle_alpha                 64.0902
_cell_angle_beta                  78.1698
_cell_angle_gamma                 101.8300
loop_
_atom_site_label
_atom_site_type_symbol
_atom_site_fract_x
_atom_site_fract_y
_atom_site_fract_z
_atom_site_U_iso_or_equiv
_atom_site_adp_type
_atom_site_occupancy
Fe1    Fe    0.00000   0.50000   0.00000   0.01267  Uiso   1.00
Fe2    Fe    0.00000   0.00000   0.50000   0.01267  Uiso   1.00
Fe3    Fe    0.50000   0.50000   0.50000   0.01267  Uiso   1.00
H1     H     0.97600   0.58380   0.14420   0.01267  Uiso   1.00
H2     H     0.02420   0.72890   0.14890   0.01267  Uiso   1.00
H3     H     0.12020   0.14420   0.27200   0.01267  Uiso   1.00
H4     H     0.17310   0.14890   0.12220   0.01267  Uiso   1.00
H5     H     0.39220   0.27200   0.58380   0.01267  Uiso   1.00
H6     H     0.29530   0.12220   0.72890   0.01267  Uiso   1.00
H7     H     0.87980   0.27200   0.14420   0.01267  Uiso   1.00
H8     H     0.82690   0.12220   0.14890   0.01267  Uiso   1.00
H9     H     0.60780   0.58380   0.27200   0.01267  Uiso   1.00
H10    H     0.70470   0.72890   0.12220   0.01267  Uiso   1.00
H11    H     0.02400   0.14420   0.58380   0.01267  Uiso   1.00
H12    H     0.97580   0.14890   0.72890   0.01267  Uiso   1.00
H13    H     0.02400   0.41620   0.85580   0.01267  Uiso   1.00
H14    H     0.97580   0.27110   0.85110   0.01267  Uiso   1.00
H15    H     0.87980   0.85580   0.72800   0.01267  Uiso   1.00
H16    H     0.82690   0.85110   0.87780   0.01267  Uiso   1.00
H17    H     0.60780   0.72800   0.41620   0.01267  Uiso   1.00
H18    H     0.70470   0.87780   0.27110   0.01267  Uiso   1.00
H19    H     0.12020   0.72800   0.85580   0.01267  Uiso   1.00
H20    H     0.17310   0.87780   0.85110   0.01267  Uiso   1.00
H21    H     0.39220   0.41620   0.72800   0.01267  Uiso   1.00
H22    H     0.29530   0.27110   0.87780   0.01267  Uiso   1.00
H23    H     0.97600   0.85580   0.41620   0.01267  Uiso   1.00
H24    H     0.02420   0.85110   0.27110   0.01267  Uiso   1.00
Au1    Au    0.20784   0.41568   0.29216   0.01267  Uiso   1.00
Au2    Au    0.50000   0.29216   0.29216   0.01267  Uiso   1.00
Au3    Au    0.79216   0.29216   0.41568   0.01267  Uiso   1.00
Au4    Au    0.79216   0.58432   0.70784   0.01267  Uiso   1.00
Au5    Au    0.50000   0.70784   0.70784   0.01267  Uiso   1.00
Au6    Au    0.20784   0.70784   0.58432   0.01267  Uiso   1.00
C1     C     0.01530   0.64390   0.08460   0.01267  Uiso   1.00
C2     C     0.04480   0.73060   0.08820   0.01267  Uiso   1.00
C3     C     0.13300   0.42420   0.18260   0.01267  Uiso   1.00
C4     C     0.09990   0.08460   0.27150   0.01267  Uiso   1.00
C5     C     0.13300   0.08820   0.18120   0.01267  Uiso   1.00
C6     C     0.31560   0.18260   0.39320   0.01267  Uiso   1.00
C7     C     0.37140   0.27150   0.64390   0.01267  Uiso   1.00
C8     C     0.31420   0.18120   0.73060   0.01267  Uiso   1.00
C9     C     0.70880   0.39320   0.42420   0.01267  Uiso   1.00
C10    C     0.90010   0.27150   0.08460   0.01267  Uiso   1.00
C11    C     0.86700   0.18120   0.08820   0.01267  Uiso   1.00
C12    C     0.68440   0.39320   0.18260   0.01267  Uiso   1.00
C13    C     0.62860   0.64390   0.27150   0.01267  Uiso   1.00
C14    C     0.68580   0.73060   0.18120   0.01267  Uiso   1.00
C15    C     0.29120   0.42420   0.39320   0.01267  Uiso   1.00
C16    C     0.98470   0.08460   0.64390   0.01267  Uiso   1.00
C17    C     0.95520   0.08820   0.73060   0.01267  Uiso   1.00
C18    C     0.86700   0.18260   0.42420   0.01267  Uiso   1.00
C19    C     0.98470   0.35610   0.91540   0.01267  Uiso   1.00
C20    C     0.95520   0.26940   0.91180   0.01267  Uiso   1.00
C21    C     0.86700   0.57580   0.81740   0.01267  Uiso   1.00
C22    C     0.90010   0.91540   0.72850   0.01267  Uiso   1.00
C23    C     0.86700   0.91180   0.81880   0.01267  Uiso   1.00
C24    C     0.68440   0.81740   0.60680   0.01267  Uiso   1.00
C25    C     0.62860   0.72850   0.35610   0.01267  Uiso   1.00
C26    C     0.68580   0.81880   0.26940   0.01267  Uiso   1.00
C27    C     0.29120   0.60680   0.57580   0.01267  Uiso   1.00
C28    C     0.09990   0.72850   0.91540   0.01267  Uiso   1.00
C29    C     0.13300   0.81880   0.91180   0.01267  Uiso   1.00
C30    C     0.31560   0.60680   0.81740   0.01267  Uiso   1.00
C31    C     0.37140   0.35610   0.72850   0.01267  Uiso   1.00
C32    C     0.31420   0.26940   0.81880   0.01267  Uiso   1.00
C33    C     0.70880   0.57580   0.60680   0.01267  Uiso   1.00
C34    C     0.01530   0.91540   0.35610   0.01267  Uiso   1.00
C35    C     0.04480   0.91180   0.26940   0.01267  Uiso   1.00
C36    C     0.13300   0.81740   0.57580   0.01267  Uiso   1.00
C37    C     0.10585   0.82015  -0.00000   0.01267  Uiso   1.00
C38    C     0.13995   0.91675   0.00000   0.01267  Uiso   1.00
C39    C     0.10585   0.00000   0.17985   0.01267  Uiso   1.00
C40    C     0.13995   0.00000   0.08325   0.01267  Uiso   1.00
C41    C     0.28570   0.17985   0.82015   0.01267  Uiso   1.00
C42    C     0.22320   0.08325   0.91675   0.01267  Uiso   1.00
C43    C     0.89415   0.17985   0.00000   0.01267  Uiso   1.00
C44    C     0.86005   0.08325   0.00000   0.01267  Uiso   1.00
C45    C     0.71430   0.82015   0.17985   0.01267  Uiso   1.00
C46    C     0.77680   0.91675   0.08325   0.01267  Uiso   1.00
C47    C     0.89415   0.00000   0.82015   0.01267  Uiso   1.00
C48    C     0.86005   1.00000   0.91675   0.01267  Uiso   1.00
N1     N     0.09060   0.44190   0.11750   0.01267  Uiso   1.00
N2     N     0.20810   0.11750   0.44060   0.01267  Uiso   1.00
N3     N     0.64870   0.44060   0.44190   0.01267  Uiso   1.00
N4     N     0.79190   0.44060   0.11750   0.01267  Uiso   1.00
N5     N     0.35130   0.44190   0.44060   0.01267  Uiso   1.00
N6     N     0.90940   0.11750   0.44190   0.01267  Uiso   1.00
N7     N     0.90940   0.55810   0.88250   0.01267  Uiso   1.00
N8     N     0.79190   0.88250   0.55940   0.01267  Uiso   1.00
N9     N     0.35130   0.55940   0.55810   0.01267  Uiso   1.00
N10    N     0.20810   0.55940   0.88250   0.01267  Uiso   1.00
N11    N     0.64870   0.55810   0.55940   0.01267  Uiso   1.00
N12    N     0.09060   0.88250   0.55810   0.01267  Uiso   1.00
N13    N     0.04020   0.64180  -0.00000   0.01267  Uiso   1.00
N14    N     0.04020   1.00000   0.35820   0.01267  Uiso   1.00
N15    N     0.39840   0.35820   0.64180   0.01267  Uiso   1.00
N16    N     0.95980   0.35820   0.00000   0.01267  Uiso   1.00
N17    N     0.60160   0.64180   0.35820   0.01267  Uiso   1.00
N18    N     0.95980   1.00000   0.64180   0.01267  Uiso   1.00
N19    N     0.10860   0.91210   0.08790   0.01267  Uiso   1.00
N20    N     0.19650   0.08790   0.00000   0.01267  Uiso   1.00
N21    N     0.19650   1.00000   0.91210   0.01267  Uiso   1.00
N22    N     0.80350   0.00000   0.08790   0.01267  Uiso   1.00
N23    N     0.80350   0.91210   0.00000   0.01267  Uiso   1.00
N24    N     0.89140   0.08790   0.91210   0.01267  Uiso   1.00
