data_FERVOP_clean
_audit_creation_date              2014-07-02
_audit_creation_method            'Materials Studio'
_symmetry_space_group_name_H-M    'P1'
_symmetry_Int_Tables_number       1
_symmetry_cell_setting            triclinic
loop_
_symmetry_equiv_pos_as_xyz
  x,y,z
_cell_length_a                    9.1030
_cell_length_b                    15.4537
_cell_length_c                    15.4537
_cell_angle_alpha                 63.7576
_cell_angle_beta                  78.6764
_cell_angle_gamma                 101.3240
loop_
_atom_site_label
_atom_site_type_symbol
_atom_site_fract_x
_atom_site_fract_y
_atom_site_fract_z
_atom_site_U_iso_or_equiv
_atom_site_adp_type
_atom_site_occupancy
Fe1    Fe    0.50000   0.50000  -0.00000   0.01267  Uiso   1.00
Fe2    Fe    0.50000  -0.00000   0.50000   0.01267  Uiso   1.00
Fe3    Fe    0.00000   0.50000   0.50000   0.01267  Uiso   1.00
Ag1    Ag    0.30437   0.60874   0.69563   0.01267  Uiso   1.00
Ag2    Ag    0.00000   0.69563   0.69563   0.01267  Uiso   1.00
Ag3    Ag    0.69563   0.69563   0.60874   0.01267  Uiso   1.00
Ag4    Ag    0.69563   0.39126   0.30437   0.01267  Uiso   1.00
Ag5    Ag    0.00000   0.30437   0.30437   0.01267  Uiso   1.00
Ag6    Ag    0.30437   0.30437   0.39126   0.01267  Uiso   1.00
H1     H     0.47730   0.57270   0.14860   0.01267  Uiso   1.00
H2     H     0.52960   0.72010   0.15440   0.01267  Uiso   1.00
H3     H     0.62590   0.14860   0.27870   0.01267  Uiso   1.00
H4     H     0.68400   0.15440   0.12550   0.01267  Uiso   1.00
H5     H     0.90460   0.27870   0.57270   0.01267  Uiso   1.00
H6     H     0.80950   0.12550   0.72010   0.01267  Uiso   1.00
H7     H     0.37410   0.27870   0.14860   0.01267  Uiso   1.00
H8     H     0.31600   0.12550   0.15440   0.01267  Uiso   1.00
H9     H     0.09540   0.57270   0.27870   0.01267  Uiso   1.00
H10    H     0.19050   0.72010   0.12550   0.01267  Uiso   1.00
H11    H     0.52270   0.14860   0.57270   0.01267  Uiso   1.00
H12    H     0.47040   0.15440   0.72010   0.01267  Uiso   1.00
H13    H     0.52270   0.42730   0.85140   0.01267  Uiso   1.00
H14    H     0.47040   0.27990   0.84560   0.01267  Uiso   1.00
H15    H     0.37410   0.85140   0.72130   0.01267  Uiso   1.00
H16    H     0.31600   0.84560   0.87450   0.01267  Uiso   1.00
H17    H     0.09540   0.72130   0.42730   0.01267  Uiso   1.00
H18    H     0.19050   0.87450   0.27990   0.01267  Uiso   1.00
H19    H     0.62590   0.72130   0.85140   0.01267  Uiso   1.00
H20    H     0.68400   0.87450   0.84560   0.01267  Uiso   1.00
H21    H     0.90460   0.42730   0.72130   0.01267  Uiso   1.00
H22    H     0.80950   0.27990   0.87450   0.01267  Uiso   1.00
H23    H     0.47730   0.85140   0.42730   0.01267  Uiso   1.00
H24    H     0.52960   0.84560   0.27990   0.01267  Uiso   1.00
C1     C     0.52140   0.63440   0.08760   0.01267  Uiso   1.00
C2     C     0.55100   0.72260   0.09180   0.01267  Uiso   1.00
C3     C     0.36460   0.58600   0.82320   0.01267  Uiso   1.00
C4     C     0.60900   0.08760   0.27800   0.01267  Uiso   1.00
C5     C     0.64280   0.09180   0.18560   0.01267  Uiso   1.00
C6     C     0.18780   0.82320   0.59080   0.01267  Uiso   1.00
C7     C     0.88700   0.27800   0.63440   0.01267  Uiso   1.00
C8     C     0.82840   0.18560   0.72260   0.01267  Uiso   1.00
C9     C     0.77860   0.59080   0.58600   0.01267  Uiso   1.00
C10    C     0.39100   0.27800   0.08760   0.01267  Uiso   1.00
C11    C     0.35720   0.18560   0.09180   0.01267  Uiso   1.00
C12    C     0.81220   0.59080   0.82320   0.01267  Uiso   1.00
C13    C     0.11300   0.63440   0.27800   0.01267  Uiso   1.00
C14    C     0.17160   0.72260   0.18560   0.01267  Uiso   1.00
C15    C     0.22140   0.58600   0.59080   0.01267  Uiso   1.00
C16    C     0.47860   0.08760   0.63440   0.01267  Uiso   1.00
C17    C     0.44900   0.09180   0.72260   0.01267  Uiso   1.00
C18    C     0.63540   0.82320   0.58600   0.01267  Uiso   1.00
C19    C     0.47860   0.36560   0.91240   0.01267  Uiso   1.00
C20    C     0.44900   0.27740   0.90820   0.01267  Uiso   1.00
C21    C     0.63540   0.41400   0.17680   0.01267  Uiso   1.00
C22    C     0.39100   0.91240   0.72200   0.01267  Uiso   1.00
C23    C     0.35720   0.90820   0.81440   0.01267  Uiso   1.00
C24    C     0.81220   0.17680   0.40920   0.01267  Uiso   1.00
C25    C     0.11300   0.72200   0.36560   0.01267  Uiso   1.00
C26    C     0.17160   0.81440   0.27740   0.01267  Uiso   1.00
C27    C     0.22140   0.40920   0.41400   0.01267  Uiso   1.00
C28    C     0.60900   0.72200   0.91240   0.01267  Uiso   1.00
C29    C     0.64280   0.81440   0.90820   0.01267  Uiso   1.00
C30    C     0.18780   0.40920   0.17680   0.01267  Uiso   1.00
C31    C     0.88700   0.36560   0.72200   0.01267  Uiso   1.00
C32    C     0.82840   0.27740   0.81440   0.01267  Uiso   1.00
C33    C     0.77860   0.41400   0.40920   0.01267  Uiso   1.00
C34    C     0.52140   0.91240   0.36560   0.01267  Uiso   1.00
C35    C     0.55100   0.90820   0.27740   0.01267  Uiso   1.00
C36    C     0.36460   0.17680   0.41400   0.01267  Uiso   1.00
C37    C     0.61500   0.81800   0.00000   0.01267  Uiso   1.00
C38    C     0.65110   0.91430  -0.00000   0.01267  Uiso   1.00
C39    C     0.61500  -0.00000   0.18200   0.01267  Uiso   1.00
C40    C     0.65110  -0.00000   0.08570   0.01267  Uiso   1.00
C41    C     0.79700   0.18200   0.81800   0.01267  Uiso   1.00
C42    C     0.73680   0.08570   0.91430   0.01267  Uiso   1.00
C43    C     0.38500   0.18200   0.00000   0.01267  Uiso   1.00
C44    C     0.34890   0.08570   0.00000   0.01267  Uiso   1.00
C45    C     0.20300   0.81800   0.18200   0.01267  Uiso   1.00
C46    C     0.26320   0.91430   0.08570   0.01267  Uiso   1.00
C47    C     0.38500   1.00000   0.81800   0.01267  Uiso   1.00
C48    C     0.34890   1.00000   0.91430   0.01267  Uiso   1.00
N1     N     0.40660   0.55610   0.89320   0.01267  Uiso   1.00
N2     N     0.29980   0.89320   0.55070   0.01267  Uiso   1.00
N3     N     0.85050   0.55070   0.55610   0.01267  Uiso   1.00
N4     N     0.70020   0.55070   0.89320   0.01267  Uiso   1.00
N5     N     0.14950   0.55610   0.55070   0.01267  Uiso   1.00
N6     N     0.59340   0.89320   0.55610   0.01267  Uiso   1.00
N7     N     0.59340   0.44390   0.10680   0.01267  Uiso   1.00
N8     N     0.70020   0.10680   0.44930   0.01267  Uiso   1.00
N9     N     0.14950   0.44930   0.44390   0.01267  Uiso   1.00
N10    N     0.29980   0.44930   0.10680   0.01267  Uiso   1.00
N11    N     0.85050   0.44390   0.44930   0.01267  Uiso   1.00
N12    N     0.40660   0.10680   0.44390   0.01267  Uiso   1.00
N13    N     0.55270   0.63200  -0.00000   0.01267  Uiso   1.00
N14    N     0.55270  -0.00000   0.36800   0.01267  Uiso   1.00
N15    N     0.92070   0.36800   0.63200   0.01267  Uiso   1.00
N16    N     0.44730   0.36800   0.00000   0.01267  Uiso   1.00
N17    N     0.07930   0.63200   0.36800   0.01267  Uiso   1.00
N18    N     0.44730  -0.00000   0.63200   0.01267  Uiso   1.00
N19    N     0.70555  -0.00000   0.91035   0.01267  Uiso   1.00
N20    N     0.61590   0.91035   0.08965   0.01267  Uiso   1.00
N21    N     0.70555   0.08965  -0.00000   0.01267  Uiso   1.00
N22    N     0.38410   0.08965   0.91035   0.01267  Uiso   1.00
N23    N     0.29445  -0.00000   0.08965   0.01267  Uiso   1.00
N24    N     0.29445   0.91035   0.00000   0.01267  Uiso   1.00
