data_image0
_cell_length_a       26.227
_cell_length_b       26.227
_cell_length_c       9.3541
_cell_angle_alpha    90
_cell_angle_beta     90
_cell_angle_gamma    120

_symmetry_space_group_name_H-M    "P 1"
_symmetry_int_tables_number       1

loop_
  _symmetry_equiv_pos_as_xyz
  'x, y, z'

loop_
  _atom_site_label
  _atom_site_occupancy
  _atom_site_fract_x
  _atom_site_fract_y
  _atom_site_fract_z
  _atom_site_thermal_displace_type
  _atom_site_B_iso_or_equiv
  _atom_site_type_symbol
  N1       1.0000 0.55210  0.99750  0.85590  Biso   1.000  N
  C1       1.0000 0.48480  0.88190  0.00650  Biso   1.000  C
  H1       1.0000 0.52570  0.90290  0.00860  Biso   1.000  H
  C2       1.0000 0.45620  0.82040  0.00400  Biso   1.000  C
  H2       1.0000 0.47780  0.80120  0.00420  Biso   1.000  H
  C3       1.0000 0.58320  0.98940  0.78280  Biso   1.000  C
  N2       1.0000 0.21877  0.33083  0.18923  Biso   1.000  N
  C4       1.0000 0.15147  0.21523  0.33983  Biso   1.000  C
  H3       1.0000 0.19237  0.23623  0.34193  Biso   1.000  H
  C5       1.0000 0.12287  0.15373  0.33733  Biso   1.000  C
  H4       1.0000 0.14447  0.13453  0.33753  Biso   1.000  H
  C6       1.0000 0.24987  0.32273  0.11613  Biso   1.000  C
  N3       1.0000 0.88543  0.66417  0.52257  Biso   1.000  N
  C7       1.0000 0.81813  0.54857  0.67317  Biso   1.000  C
  H5       1.0000 0.85903  0.56957  0.67527  Biso   1.000  H
  C8       1.0000 0.78953  0.48707  0.67067  Biso   1.000  C
  H6       1.0000 0.81113  0.46787  0.67087  Biso   1.000  H
  C9       1.0000 0.91653  0.65607  0.44947  Biso   1.000  C
  N4       1.0000 0.00250  0.55460  0.85590  Biso   1.000  N
  C10      1.0000 0.11810  0.60290  0.00650  Biso   1.000  C
  H7       1.0000 0.09710  0.62280  0.00860  Biso   1.000  H
  C11      1.0000 0.17960  0.63580  0.00400  Biso   1.000  C
  H8       1.0000 0.19880  0.67660  0.00420  Biso   1.000  H
  C12      1.0000 0.01060  0.59380  0.78280  Biso   1.000  C
  N5       1.0000 0.66917  0.88793  0.18923  Biso   1.000  N
  C13      1.0000 0.78477  0.93623  0.33983  Biso   1.000  C
  H9       1.0000 0.76377  0.95613  0.34193  Biso   1.000  H
  C14      1.0000 0.84627  0.96913  0.33733  Biso   1.000  C
  H10      1.0000 0.86547  0.00993  0.33753  Biso   1.000  H
  C15      1.0000 0.67727  0.92713  0.11613  Biso   1.000  C
  N6       1.0000 0.33583  0.22127  0.52257  Biso   1.000  N
  C16      1.0000 0.45143  0.26957  0.67317  Biso   1.000  C
  H11      1.0000 0.43043  0.28947  0.67527  Biso   1.000  H
  C17      1.0000 0.51293  0.30247  0.67067  Biso   1.000  C
  H12      1.0000 0.53213  0.34327  0.67087  Biso   1.000  H
  C18      1.0000 0.34393  0.26047  0.44947  Biso   1.000  C
  N7       1.0000 0.44540  0.44790  0.85590  Biso   1.000  N
  C19      1.0000 0.39710  0.51520  0.00650  Biso   1.000  C
  H13      1.0000 0.37720  0.47430  0.00860  Biso   1.000  H
  C20      1.0000 0.36420  0.54380  0.00400  Biso   1.000  C
  H14      1.0000 0.32340  0.52220  0.00420  Biso   1.000  H
  C21      1.0000 0.40620  0.41680  0.78280  Biso   1.000  C
  N8       1.0000 0.11207  0.78123  0.18923  Biso   1.000  N
  C22      1.0000 0.06377  0.84853  0.33983  Biso   1.000  C
  H15      1.0000 0.04387  0.80763  0.34193  Biso   1.000  H
  C23      1.0000 0.03087  0.87713  0.33733  Biso   1.000  C
  H16      1.0000 0.99007  0.85553  0.33753  Biso   1.000  H
  C24      1.0000 0.07287  0.75013  0.11613  Biso   1.000  C
  N9       1.0000 0.77873  0.11457  0.52257  Biso   1.000  N
  C25      1.0000 0.73043  0.18187  0.67317  Biso   1.000  C
  H17      1.0000 0.71053  0.14097  0.67527  Biso   1.000  H
  C26      1.0000 0.69753  0.21047  0.67067  Biso   1.000  C
  H18      1.0000 0.65673  0.18887  0.67087  Biso   1.000  H
  C27      1.0000 0.73953  0.08347  0.44947  Biso   1.000  C
  N10      1.0000 0.99750  0.55210  0.14410  Biso   1.000  N
  C28      1.0000 0.88190  0.48480  0.99350  Biso   1.000  C
  H19      1.0000 0.90290  0.52570  0.99140  Biso   1.000  H
  C29      1.0000 0.82040  0.45620  0.99600  Biso   1.000  C
  H20      1.0000 0.80120  0.47780  0.99580  Biso   1.000  H
  C30      1.0000 0.98940  0.58320  0.21720  Biso   1.000  C
  N11      1.0000 0.66417  0.88543  0.47743  Biso   1.000  N
  C31      1.0000 0.54857  0.81813  0.32683  Biso   1.000  C
  H21      1.0000 0.56957  0.85903  0.32473  Biso   1.000  H
  C32      1.0000 0.48707  0.78953  0.32933  Biso   1.000  C
  H22      1.0000 0.46787  0.81113  0.32913  Biso   1.000  H
  C33      1.0000 0.65607  0.91653  0.55053  Biso   1.000  C
  N12      1.0000 0.33083  0.21877  0.81077  Biso   1.000  N
  C34      1.0000 0.21523  0.15147  0.66017  Biso   1.000  C
  H23      1.0000 0.23623  0.19237  0.65807  Biso   1.000  H
  C35      1.0000 0.15373  0.12287  0.66267  Biso   1.000  C
  H24      1.0000 0.13453  0.14447  0.66247  Biso   1.000  H
  C36      1.0000 0.32273  0.24987  0.88387  Biso   1.000  C
  N13      1.0000 0.55460  0.00250  0.14410  Biso   1.000  N
  C37      1.0000 0.60290  0.11810  0.99350  Biso   1.000  C
  H25      1.0000 0.62280  0.09710  0.99140  Biso   1.000  H
  C38      1.0000 0.63580  0.17960  0.99600  Biso   1.000  C
  H26      1.0000 0.67660  0.19880  0.99580  Biso   1.000  H
  C39      1.0000 0.59380  0.01060  0.21720  Biso   1.000  C
  N14      1.0000 0.22127  0.33583  0.47743  Biso   1.000  N
  C40      1.0000 0.26957  0.45143  0.32683  Biso   1.000  C
  H27      1.0000 0.28947  0.43043  0.32473  Biso   1.000  H
  C41      1.0000 0.30247  0.51293  0.32933  Biso   1.000  C
  H28      1.0000 0.34327  0.53213  0.32913  Biso   1.000  H
  C42      1.0000 0.26047  0.34393  0.55053  Biso   1.000  C
  N15      1.0000 0.88793  0.66917  0.81077  Biso   1.000  N
  C43      1.0000 0.93623  0.78477  0.66017  Biso   1.000  C
  H29      1.0000 0.95613  0.76377  0.65807  Biso   1.000  H
  C44      1.0000 0.96913  0.84627  0.66267  Biso   1.000  C
  H30      1.0000 0.00993  0.86547  0.66247  Biso   1.000  H
  C45      1.0000 0.92713  0.67727  0.88387  Biso   1.000  C
  N16      1.0000 0.44790  0.44540  0.14410  Biso   1.000  N
  C46      1.0000 0.51520  0.39710  0.99350  Biso   1.000  C
  H31      1.0000 0.47430  0.37720  0.99140  Biso   1.000  H
  C47      1.0000 0.54380  0.36420  0.99600  Biso   1.000  C
  H32      1.0000 0.52220  0.32340  0.99580  Biso   1.000  H
  C48      1.0000 0.41680  0.40620  0.21720  Biso   1.000  C
  N17      1.0000 0.11457  0.77873  0.47743  Biso   1.000  N
  C49      1.0000 0.18187  0.73043  0.32683  Biso   1.000  C
  H33      1.0000 0.14097  0.71053  0.32473  Biso   1.000  H
  C50      1.0000 0.21047  0.69753  0.32933  Biso   1.000  C
  H34      1.0000 0.18887  0.65673  0.32913  Biso   1.000  H
  C51      1.0000 0.08347  0.73953  0.55053  Biso   1.000  C
  N18      1.0000 0.78123  0.11207  0.81077  Biso   1.000  N
  C52      1.0000 0.84853  0.06377  0.66017  Biso   1.000  C
  H35      1.0000 0.80763  0.04387  0.65807  Biso   1.000  H
  C53      1.0000 0.87713  0.03087  0.66267  Biso   1.000  C
  H36      1.0000 0.85553  0.99007  0.66247  Biso   1.000  H
  C54      1.0000 0.75013  0.07287  0.88387  Biso   1.000  C
  N19      1.0000 0.44790  0.00250  0.14410  Biso   1.000  N
  C55      1.0000 0.51520  0.11810  0.99350  Biso   1.000  C
  H37      1.0000 0.47430  0.09710  0.99140  Biso   1.000  H
  C56      1.0000 0.54380  0.17960  0.99600  Biso   1.000  C
  H38      1.0000 0.52220  0.19880  0.99580  Biso   1.000  H
  C57      1.0000 0.41680  0.01060  0.21720  Biso   1.000  C
  N20      1.0000 0.11457  0.33583  0.47743  Biso   1.000  N
  C58      1.0000 0.18187  0.45143  0.32683  Biso   1.000  C
  H39      1.0000 0.14097  0.43043  0.32473  Biso   1.000  H
  C59      1.0000 0.21047  0.51293  0.32933  Biso   1.000  C
  H40      1.0000 0.18887  0.53213  0.32913  Biso   1.000  H
  C60      1.0000 0.08347  0.34393  0.55053  Biso   1.000  C
  N21      1.0000 0.78123  0.66917  0.81077  Biso   1.000  N
  C61      1.0000 0.84853  0.78477  0.66017  Biso   1.000  C
  H41      1.0000 0.80763  0.76377  0.65807  Biso   1.000  H
  C62      1.0000 0.87713  0.84627  0.66267  Biso   1.000  C
  H42      1.0000 0.85553  0.86547  0.66247  Biso   1.000  H
  C63      1.0000 0.75013  0.67727  0.88387  Biso   1.000  C
  N22      1.0000 0.99750  0.44540  0.14410  Biso   1.000  N
  C64      1.0000 0.88190  0.39710  0.99350  Biso   1.000  C
  H43      1.0000 0.90290  0.37720  0.99140  Biso   1.000  H
  C65      1.0000 0.82040  0.36420  0.99600  Biso   1.000  C
  H44      1.0000 0.80120  0.32340  0.99580  Biso   1.000  H
  C66      1.0000 0.98940  0.40620  0.21720  Biso   1.000  C
  N23      1.0000 0.66417  0.77873  0.47743  Biso   1.000  N
  C67      1.0000 0.54857  0.73043  0.32683  Biso   1.000  C
  H45      1.0000 0.56957  0.71053  0.32473  Biso   1.000  H
  C68      1.0000 0.48707  0.69753  0.32933  Biso   1.000  C
  H46      1.0000 0.46787  0.65673  0.32913  Biso   1.000  H
  C69      1.0000 0.65607  0.73953  0.55053  Biso   1.000  C
  N24      1.0000 0.33083  0.11207  0.81077  Biso   1.000  N
  C70      1.0000 0.21523  0.06377  0.66017  Biso   1.000  C
  H47      1.0000 0.23623  0.04387  0.65807  Biso   1.000  H
  C71      1.0000 0.15373  0.03087  0.66267  Biso   1.000  C
  H48      1.0000 0.13453  0.99007  0.66247  Biso   1.000  H
  C72      1.0000 0.32273  0.07287  0.88387  Biso   1.000  C
  N25      1.0000 0.55460  0.55210  0.14410  Biso   1.000  N
  C73      1.0000 0.60290  0.48480  0.99350  Biso   1.000  C
  H49      1.0000 0.62280  0.52570  0.99140  Biso   1.000  H
  C74      1.0000 0.63580  0.45620  0.99600  Biso   1.000  C
  H50      1.0000 0.67660  0.47780  0.99580  Biso   1.000  H
  C75      1.0000 0.59380  0.58320  0.21720  Biso   1.000  C
  N26      1.0000 0.22127  0.88543  0.47743  Biso   1.000  N
  C76      1.0000 0.26957  0.81813  0.32683  Biso   1.000  C
  H51      1.0000 0.28947  0.85903  0.32473  Biso   1.000  H
  C77      1.0000 0.30247  0.78953  0.32933  Biso   1.000  C
  H52      1.0000 0.34327  0.81113  0.32913  Biso   1.000  H
  C78      1.0000 0.26047  0.91653  0.55053  Biso   1.000  C
  N27      1.0000 0.88793  0.21877  0.81077  Biso   1.000  N
  C79      1.0000 0.93623  0.15147  0.66017  Biso   1.000  C
  H53      1.0000 0.95613  0.19237  0.65807  Biso   1.000  H
  C80      1.0000 0.96913  0.12287  0.66267  Biso   1.000  C
  H54      1.0000 0.00993  0.14447  0.66247  Biso   1.000  H
  C81      1.0000 0.92713  0.24987  0.88387  Biso   1.000  C
  N28      1.0000 0.00250  0.44790  0.85590  Biso   1.000  N
  C82      1.0000 0.11810  0.51520  0.00650  Biso   1.000  C
  H55      1.0000 0.09710  0.47430  0.00860  Biso   1.000  H
  C83      1.0000 0.17960  0.54380  0.00400  Biso   1.000  C
  H56      1.0000 0.19880  0.52220  0.00420  Biso   1.000  H
  C84      1.0000 0.01060  0.41680  0.78280  Biso   1.000  C
  N29      1.0000 0.66917  0.78123  0.18923  Biso   1.000  N
  C85      1.0000 0.78477  0.84853  0.33983  Biso   1.000  C
  H57      1.0000 0.76377  0.80763  0.34193  Biso   1.000  H
  C86      1.0000 0.84627  0.87713  0.33733  Biso   1.000  C
  H58      1.0000 0.86547  0.85553  0.33753  Biso   1.000  H
  C87      1.0000 0.67727  0.75013  0.11613  Biso   1.000  C
  N30      1.0000 0.33583  0.11457  0.52257  Biso   1.000  N
  C88      1.0000 0.45143  0.18187  0.67317  Biso   1.000  C
  H59      1.0000 0.43043  0.14097  0.67527  Biso   1.000  H
  C89      1.0000 0.51293  0.21047  0.67067  Biso   1.000  C
  H60      1.0000 0.53213  0.18887  0.67087  Biso   1.000  H
  C90      1.0000 0.34393  0.08347  0.44947  Biso   1.000  C
  N31      1.0000 0.44540  0.99750  0.85590  Biso   1.000  N
  C91      1.0000 0.39710  0.88190  0.00650  Biso   1.000  C
  H61      1.0000 0.37720  0.90290  0.00860  Biso   1.000  H
  C92      1.0000 0.36420  0.82040  0.00400  Biso   1.000  C
  H62      1.0000 0.32340  0.80120  0.00420  Biso   1.000  H
  C93      1.0000 0.40620  0.98940  0.78280  Biso   1.000  C
  N32      1.0000 0.11207  0.33083  0.18923  Biso   1.000  N
  C94      1.0000 0.06377  0.21523  0.33983  Biso   1.000  C
  H63      1.0000 0.04387  0.23623  0.34193  Biso   1.000  H
  C95      1.0000 0.03087  0.15373  0.33733  Biso   1.000  C
  H64      1.0000 0.99007  0.13453  0.33753  Biso   1.000  H
  C96      1.0000 0.07287  0.32273  0.11613  Biso   1.000  C
  N33      1.0000 0.77873  0.66417  0.52257  Biso   1.000  N
  C97      1.0000 0.73043  0.54857  0.67317  Biso   1.000  C
  H65      1.0000 0.71053  0.56957  0.67527  Biso   1.000  H
  C98      1.0000 0.69753  0.48707  0.67067  Biso   1.000  C
  H66      1.0000 0.65673  0.46787  0.67087  Biso   1.000  H
  C99      1.0000 0.73953  0.65607  0.44947  Biso   1.000  C
  N34      1.0000 0.55210  0.55460  0.85590  Biso   1.000  N
  C100     1.0000 0.48480  0.60290  0.00650  Biso   1.000  C
  H67      1.0000 0.52570  0.62280  0.00860  Biso   1.000  H
  C101     1.0000 0.45620  0.63580  0.00400  Biso   1.000  C
  H68      1.0000 0.47780  0.67660  0.00420  Biso   1.000  H
  C102     1.0000 0.58320  0.59380  0.78280  Biso   1.000  C
  N35      1.0000 0.21877  0.88793  0.18923  Biso   1.000  N
  C103     1.0000 0.15147  0.93623  0.33983  Biso   1.000  C
  H69      1.0000 0.19237  0.95613  0.34193  Biso   1.000  H
  C104     1.0000 0.12287  0.96913  0.33733  Biso   1.000  C
  H70      1.0000 0.14447  0.00993  0.33753  Biso   1.000  H
  C105     1.0000 0.24987  0.92713  0.11613  Biso   1.000  C
  N36      1.0000 0.88543  0.22127  0.52257  Biso   1.000  N
  C106     1.0000 0.81813  0.26957  0.67317  Biso   1.000  C
  H71      1.0000 0.85903  0.28947  0.67527  Biso   1.000  H
  C107     1.0000 0.78953  0.30247  0.67067  Biso   1.000  C
  H72      1.0000 0.81113  0.34327  0.67087  Biso   1.000  H
  C108     1.0000 0.91653  0.26047  0.44947  Biso   1.000  C
  Au1      1.0000 0.62625  0.95959  0.66667  Biso   1.000  Au
  Au2      1.0000 0.29292  0.29292  0.00000  Biso   1.000  Au
  Au3      1.0000 0.04041  0.66667  0.66667  Biso   1.000  Au
  Au4      1.0000 0.70708  0.00000  0.00000  Biso   1.000  Au
  Au5      1.0000 0.33333  0.37375  0.66667  Biso   1.000  Au
  Au6      1.0000 1.00000  0.70708  0.00000  Biso   1.000  Au
  Au7      1.0000 0.95959  0.62625  0.33333  Biso   1.000  Au
  Au8      1.0000 0.66667  0.04041  0.33333  Biso   1.000  Au
  Au9      1.0000 0.37375  0.33333  0.33333  Biso   1.000  Au
  Au10     1.0000 0.37375  0.04041  0.33333  Biso   1.000  Au
  Au11     1.0000 0.95959  0.33333  0.33333  Biso   1.000  Au
  Au12     1.0000 0.66667  0.62625  0.33333  Biso   1.000  Au
  Au13     1.0000 0.04041  0.37375  0.66667  Biso   1.000  Au
  Au14     1.0000 0.70708  0.70708  0.00000  Biso   1.000  Au
  Au15     1.0000 0.33333  0.95959  0.66667  Biso   1.000  Au
  Au16     1.0000 0.00000  0.29292  0.00000  Biso   1.000  Au
  Au17     1.0000 0.62625  0.66667  0.66667  Biso   1.000  Au
  Au18     1.0000 0.29292  0.00000  0.00000  Biso   1.000  Au
  Fe1      1.0000 0.50000  0.00000  0.00000  Biso   1.000  Fe
  Fe2      1.0000 0.16667  0.33333  0.33333  Biso   1.000  Fe
  Fe3      1.0000 0.83333  0.66667  0.66667  Biso   1.000  Fe
  Fe4      1.0000 0.00000  0.50000  0.00000  Biso   1.000  Fe
  Fe5      1.0000 0.66667  0.83333  0.33333  Biso   1.000  Fe
  Fe6      1.0000 0.33333  0.16667  0.66667  Biso   1.000  Fe
  Fe7      1.0000 0.50000  0.50000  0.00000  Biso   1.000  Fe
  Fe8      1.0000 0.16667  0.83333  0.33333  Biso   1.000  Fe
  Fe9      1.0000 0.83333  0.16667  0.66667  Biso   1.000  Fe
  N37      1.0000 0.45600  0.91200  0.00590  Biso   1.000  N
  C109     1.0000 0.39390  0.78780  0.00100  Biso   1.000  C
  C110     1.0000 0.36210  0.72420  0.99510  Biso   1.000  C
  N38      1.0000 0.12267  0.24533  0.33923  Biso   1.000  N
  C111     1.0000 0.06057  0.12113  0.33433  Biso   1.000  C
  C112     1.0000 0.02877  0.05753  0.32843  Biso   1.000  C
  N39      1.0000 0.78933  0.57867  0.67257  Biso   1.000  N
  C113     1.0000 0.72723  0.45447  0.66767  Biso   1.000  C
  C114     1.0000 0.69543  0.39087  0.66177  Biso   1.000  C
  N40      1.0000 0.08800  0.54400  0.00590  Biso   1.000  N
  C115     1.0000 0.21220  0.60610  0.00100  Biso   1.000  C
  C116     1.0000 0.27580  0.63790  0.99510  Biso   1.000  C
  N41      1.0000 0.75467  0.87733  0.33923  Biso   1.000  N
  C117     1.0000 0.87887  0.93943  0.33433  Biso   1.000  C
  C118     1.0000 0.94247  0.97123  0.32843  Biso   1.000  C
  N42      1.0000 0.42133  0.21067  0.67257  Biso   1.000  N
  C119     1.0000 0.54553  0.27277  0.66767  Biso   1.000  C
  C120     1.0000 0.60913  0.30457  0.66177  Biso   1.000  C
  N43      1.0000 0.45600  0.54400  0.00590  Biso   1.000  N
  C121     1.0000 0.39390  0.60610  0.00100  Biso   1.000  C
  C122     1.0000 0.36210  0.63790  0.99510  Biso   1.000  C
  N44      1.0000 0.12267  0.87733  0.33923  Biso   1.000  N
  C123     1.0000 0.06057  0.93943  0.33433  Biso   1.000  C
  C124     1.0000 0.02877  0.97123  0.32843  Biso   1.000  C
  N45      1.0000 0.78933  0.21067  0.67257  Biso   1.000  N
  C125     1.0000 0.72723  0.27277  0.66767  Biso   1.000  C
  C126     1.0000 0.69543  0.30457  0.66177  Biso   1.000  C
  N46      1.0000 0.91200  0.45600  0.99410  Biso   1.000  N
  C127     1.0000 0.78780  0.39390  0.99900  Biso   1.000  C
  C128     1.0000 0.72420  0.36210  0.00490  Biso   1.000  C
  N47      1.0000 0.57867  0.78933  0.32743  Biso   1.000  N
  C129     1.0000 0.45447  0.72723  0.33233  Biso   1.000  C
  C130     1.0000 0.39087  0.69543  0.33823  Biso   1.000  C
  N48      1.0000 0.24533  0.12267  0.66077  Biso   1.000  N
  C131     1.0000 0.12113  0.06057  0.66567  Biso   1.000  C
  C132     1.0000 0.05753  0.02877  0.67157  Biso   1.000  C
  N49      1.0000 0.54400  0.08800  0.99410  Biso   1.000  N
  C133     1.0000 0.60610  0.21220  0.99900  Biso   1.000  C
  C134     1.0000 0.63790  0.27580  0.00490  Biso   1.000  C
  N50      1.0000 0.21067  0.42133  0.32743  Biso   1.000  N
  C135     1.0000 0.27277  0.54553  0.33233  Biso   1.000  C
  C136     1.0000 0.30457  0.60913  0.33823  Biso   1.000  C
  N51      1.0000 0.87733  0.75467  0.66077  Biso   1.000  N
  C137     1.0000 0.93943  0.87887  0.66567  Biso   1.000  C
  C138     1.0000 0.97123  0.94247  0.67157  Biso   1.000  C
  N52      1.0000 0.54400  0.45600  0.99410  Biso   1.000  N
  C139     1.0000 0.60610  0.39390  0.99900  Biso   1.000  C
  C140     1.0000 0.63790  0.36210  0.00490  Biso   1.000  C
  N53      1.0000 0.21067  0.78933  0.32743  Biso   1.000  N
  C141     1.0000 0.27277  0.72723  0.33233  Biso   1.000  C
  C142     1.0000 0.30457  0.69543  0.33823  Biso   1.000  C
  N54      1.0000 0.87733  0.12267  0.66077  Biso   1.000  N
  C143     1.0000 0.93943  0.06057  0.66567  Biso   1.000  C
  C144     1.0000 0.97123  0.02877  0.67157  Biso   1.000  C
  N55      1.0000 0.39380  0.69690  0.99640  Biso   1.000  N
  N56      1.0000 0.06047  0.03023  0.32973  Biso   1.000  N
  N57      1.0000 0.72713  0.36357  0.66307  Biso   1.000  N
  N58      1.0000 0.30310  0.69690  0.99640  Biso   1.000  N
  N59      1.0000 0.96977  0.03023  0.32973  Biso   1.000  N
  N60      1.0000 0.63643  0.36357  0.66307  Biso   1.000  N
  N61      1.0000 0.30310  0.60620  0.99640  Biso   1.000  N
  N62      1.0000 0.96977  0.93953  0.32973  Biso   1.000  N
  N63      1.0000 0.63643  0.27287  0.66307  Biso   1.000  N
  N64      1.0000 0.69690  0.39380  0.00360  Biso   1.000  N
  N65      1.0000 0.36357  0.72713  0.33693  Biso   1.000  N
  N66      1.0000 0.03023  0.06047  0.67027  Biso   1.000  N
  N67      1.0000 0.69690  0.30310  0.00360  Biso   1.000  N
  N68      1.0000 0.36357  0.63643  0.33693  Biso   1.000  N
  N69      1.0000 0.03023  0.96977  0.67027  Biso   1.000  N
  N70      1.0000 0.60620  0.30310  0.00360  Biso   1.000  N
  N71      1.0000 0.27287  0.63643  0.33693  Biso   1.000  N
  N72      1.0000 0.93953  0.96977  0.67027  Biso   1.000  N
