data_FERWAC_clean
_audit_creation_date              2014-07-02
_audit_creation_method            'Materials Studio'
_symmetry_space_group_name_H-M    'P1'
_symmetry_Int_Tables_number       1
_symmetry_cell_setting            triclinic
loop_
_symmetry_equiv_pos_as_xyz
  x,y,z
_cell_length_a                    9.9696
_cell_length_b                    15.7389
_cell_length_c                    15.7389
_cell_angle_alpha                 64.3339
_cell_angle_beta                  77.8105
_cell_angle_gamma                 102.1900
loop_
_atom_site_label
_atom_site_type_symbol
_atom_site_fract_x
_atom_site_fract_y
_atom_site_fract_z
_atom_site_U_iso_or_equiv
_atom_site_adp_type
_atom_site_occupancy
Fe1    Fe    0.50000   1.00000   0.50000   0.01267  Uiso   1.00
Fe2    Fe    0.00000   0.50000   0.50000   0.01267  Uiso   1.00
Fe3    Fe    0.50000   0.50000   0.00000   0.01267  Uiso   1.00
Ag1    Ag    0.70338   0.70338   0.59324   0.01267  Uiso   1.00
Ag2    Ag    0.29662   0.59324   0.70338   0.01267  Uiso   1.00
Ag3    Ag    0.00000   0.70338   0.70338   0.01267  Uiso   1.00
Ag4    Ag    0.29662   0.29662   0.40676   0.01267  Uiso   1.00
Ag5    Ag    0.70338   0.40676   0.29662   0.01267  Uiso   1.00
Ag6    Ag    0.00000   0.29662   0.29662   0.01267  Uiso   1.00
H1     H     0.46910   0.85370   0.41960   0.01267  Uiso   1.00
H2     H     0.51680   0.85040   0.27200   0.01267  Uiso   1.00
H3     H     0.88870   0.41960   0.72670   0.01267  Uiso   1.00
H4     H     0.78880   0.27200   0.87760   0.01267  Uiso   1.00
H5     H     0.61540   0.72670   0.85370   0.01267  Uiso   1.00
H6     H     0.66640   0.87760   0.85040   0.01267  Uiso   1.00
H7     H     0.11130   0.72670   0.41960   0.01267  Uiso   1.00
H8     H     0.21120   0.87760   0.27200   0.01267  Uiso   1.00
H9     H     0.38460   0.85370   0.72670   0.01267  Uiso   1.00
H10    H     0.33360   0.85040   0.87760   0.01267  Uiso   1.00
H11    H     0.53090   0.41960   0.85370   0.01267  Uiso   1.00
H12    H     0.48320   0.27200   0.85040   0.01267  Uiso   1.00
H13    H     0.53090   0.14630   0.58040   0.01267  Uiso   1.00
H14    H     0.48320   0.14960   0.72800   0.01267  Uiso   1.00
H15    H     0.11130   0.58040   0.27330   0.01267  Uiso   1.00
H16    H     0.21120   0.72800   0.12240   0.01267  Uiso   1.00
H17    H     0.38460   0.27330   0.14630   0.01267  Uiso   1.00
H18    H     0.33360   0.12240   0.14960   0.01267  Uiso   1.00
H19    H     0.88870   0.27330   0.58040   0.01267  Uiso   1.00
H20    H     0.78880   0.12240   0.72800   0.01267  Uiso   1.00
H21    H     0.61540   0.14630   0.27330   0.01267  Uiso   1.00
H22    H     0.66640   0.14960   0.12240   0.01267  Uiso   1.00
H23    H     0.46910   0.58040   0.14630   0.01267  Uiso   1.00
H24    H     0.51680   0.72800   0.14960   0.01267  Uiso   1.00
C1     C     0.51110   0.91410   0.35880   0.01267  Uiso   1.00
C2     C     0.53960   0.91140   0.27090   0.01267  Uiso   1.00
C3     C     0.62710   0.81770   0.57800   0.01267  Uiso   1.00
C4     C     0.86990   0.35880   0.72710   0.01267  Uiso   1.00
C5     C     0.81050   0.27090   0.81770   0.01267  Uiso   1.00
C6     C     0.20510   0.57800   0.60430   0.01267  Uiso   1.00
C7     C     0.59700   0.72710   0.91410   0.01267  Uiso   1.00
C8     C     0.62820   0.81770   0.91140   0.01267  Uiso   1.00
C9     C     0.80940   0.60430   0.81770   0.01267  Uiso   1.00
C10    C     0.13010   0.72710   0.35880   0.01267  Uiso   1.00
C11    C     0.18950   0.81770   0.27090   0.01267  Uiso   1.00
C12    C     0.79490   0.60430   0.57800   0.01267  Uiso   1.00
C13    C     0.40300   0.91410   0.72710   0.01267  Uiso   1.00
C14    C     0.37180   0.91140   0.81770   0.01267  Uiso   1.00
C15    C     0.19060   0.81770   0.60430   0.01267  Uiso   1.00
C16    C     0.48890   0.35880   0.91410   0.01267  Uiso   1.00
C17    C     0.46040   0.27090   0.91140   0.01267  Uiso   1.00
C18    C     0.37290   0.57800   0.81770   0.01267  Uiso   1.00
C19    C     0.48890   0.08590   0.64120   0.01267  Uiso   1.00
C20    C     0.46040   0.08860   0.72910   0.01267  Uiso   1.00
C21    C     0.37290   0.18230   0.42200   0.01267  Uiso   1.00
C22    C     0.13010   0.64120   0.27290   0.01267  Uiso   1.00
C23    C     0.18950   0.72910   0.18230   0.01267  Uiso   1.00
C24    C     0.79490   0.42200   0.39570   0.01267  Uiso   1.00
C25    C     0.40300   0.27290   0.08590   0.01267  Uiso   1.00
C26    C     0.37180   0.18230   0.08860   0.01267  Uiso   1.00
C27    C     0.19060   0.39570   0.18230   0.01267  Uiso   1.00
C28    C     0.86990   0.27290   0.64120   0.01267  Uiso   1.00
C29    C     0.81050   0.18230   0.72910   0.01267  Uiso   1.00
C30    C     0.20510   0.39570   0.42200   0.01267  Uiso   1.00
C31    C     0.59700   0.08590   0.27290   0.01267  Uiso   1.00
C32    C     0.62820   0.08860   0.18230   0.01267  Uiso   1.00
C33    C     0.80940   0.18230   0.39570   0.01267  Uiso   1.00
C34    C     0.51110   0.64120   0.08590   0.01267  Uiso   1.00
C35    C     0.53960   0.72910   0.08860   0.01267  Uiso   1.00
C36    C     0.62710   0.42200   0.18230   0.01267  Uiso   1.00
C37    C     0.60215   0.00000   0.18145   0.01267  Uiso   1.00
C38    C     0.63450   1.00000   0.08320   0.01267  Uiso   1.00
C39    C     0.78360   0.18145   0.81855   0.01267  Uiso   1.00
C40    C     0.71770   0.08320   0.91680   0.01267  Uiso   1.00
C41    C     0.60215   0.81855   1.00000   0.01267  Uiso   1.00
C42    C     0.63450   0.91680   0.00000   0.01267  Uiso   1.00
C43    C     0.21640   0.81855   0.18145   0.01267  Uiso   1.00
C44    C     0.28230   0.91680   0.08320   0.01267  Uiso   1.00
C45    C     0.39785  -0.00000   0.81855   0.01267  Uiso   1.00
C46    C     0.36550   1.00000   0.91680   0.01267  Uiso   1.00
C47    C     0.39785   0.18145   0.00000   0.01267  Uiso   1.00
C48    C     0.36550   0.08320   0.00000   0.01267  Uiso   1.00
N1     N     0.58790   0.88580   0.55550   0.01267  Uiso   1.00
N2     N     0.14340   0.55550   0.55870   0.01267  Uiso   1.00
N3     N     0.70210   0.55870   0.88580   0.01267  Uiso   1.00
N4     N     0.85660   0.55870   0.55550   0.01267  Uiso   1.00
N5     N     0.29790   0.88580   0.55870   0.01267  Uiso   1.00
N6     N     0.41210   0.55550   0.88580   0.01267  Uiso   1.00
N7     N     0.41210   0.11420   0.44450   0.01267  Uiso   1.00
N8     N     0.85660   0.44450   0.44130   0.01267  Uiso   1.00
N9     N     0.29790   0.44130   0.11420   0.01267  Uiso   1.00
N10    N     0.14340   0.44130   0.44450   0.01267  Uiso   1.00
N11    N     0.70210   0.11420   0.44130   0.01267  Uiso   1.00
N12    N     0.58790   0.44450   0.11420   0.01267  Uiso   1.00
N13    N     0.54150   1.00000   0.36010   0.01267  Uiso   1.00
N14    N     0.90160   0.36010   0.63990   0.01267  Uiso   1.00
N15    N     0.54150   0.63990   0.00000   0.01267  Uiso   1.00
N16    N     0.09840   0.63990   0.36010   0.01267  Uiso   1.00
N17    N     0.45850   0.00000   0.63990   0.01267  Uiso   1.00
N18    N     0.45850   0.36010   0.00000   0.01267  Uiso   1.00
N19    N     0.60542   0.91178   0.08822   0.01267  Uiso   1.00
N20    N     0.69364   0.08822   0.00000   0.01267  Uiso   1.00
N21    N     0.69364   0.00000   0.91178   0.01267  Uiso   1.00
N22    N     0.30636  -0.00000   0.08822   0.01267  Uiso   1.00
N23    N     0.30636   0.91178   1.00000   0.01267  Uiso   1.00
N24    N     0.39458   0.08822   0.91178   0.01267  Uiso   1.00
