data_image0
_cell_length_a       11.36
_cell_length_b       11.799
_cell_length_c       16.35
_cell_angle_alpha    74.017
_cell_angle_beta     82.914
_cell_angle_gamma    63.634

_symmetry_space_group_name_H-M    "P 1"
_symmetry_int_tables_number       1

loop_
  _symmetry_equiv_pos_as_xyz
  'x, y, z'

loop_
  _atom_site_label
  _atom_site_occupancy
  _atom_site_fract_x
  _atom_site_fract_y
  _atom_site_fract_z
  _atom_site_thermal_displace_type
  _atom_site_B_iso_or_equiv
  _atom_site_type_symbol
  C1       1.0000 0.07360  0.71100  0.39680  Biso   1.000  C
  C2       1.0000 0.94560  0.70020  0.39870  Biso   1.000  C
  C3       1.0000 0.94850  0.58210  0.40250  Biso   1.000  C
  H1       1.0000 0.02880  0.50930  0.40490  Biso   1.000  H
  C4       1.0000 0.83100  0.56970  0.40300  Biso   1.000  C
  C5       1.0000 0.71330  0.67900  0.40100  Biso   1.000  C
  H2       1.0000 0.63490  0.67210  0.40080  Biso   1.000  H
  C6       1.0000 0.70950  0.80080  0.39930  Biso   1.000  C
  C7       1.0000 0.82670  0.80900  0.39870  Biso   1.000  C
  H3       1.0000 0.82630  0.88810  0.39830  Biso   1.000  H
  C8       1.0000 0.82820  0.44240  0.40770  Biso   1.000  C
  C9       1.0000 0.57700  0.91220  0.40060  Biso   1.000  C
  C10      1.0000 0.47420  0.88240  0.44110  Biso   1.000  C
  H4       1.0000 0.49120  0.79590  0.46690  Biso   1.000  H
  C11      1.0000 0.34690  0.98020  0.44340  Biso   1.000  C
  C12      1.0000 0.32260  0.10870  0.40500  Biso   1.000  C
  H5       1.0000 0.23740  0.17430  0.40340  Biso   1.000  H
  C13      1.0000 0.42340  0.13990  0.36940  Biso   1.000  C
  C14      1.0000 0.55000  0.04150  0.36600  Biso   1.000  C
  H6       1.0000 0.61700  0.06370  0.34000  Biso   1.000  H
  C15      1.0000 0.40170  0.28080  0.33450  Biso   1.000  C
  C16      1.0000 0.24240  0.93960  0.48410  Biso   1.000  C
  C17      1.0000 0.14990  0.83170  0.71350  Biso   1.000  C
  C18      1.0000 0.16140  0.88220  0.78620  Biso   1.000  C
  C19      1.0000 0.26290  0.80020  0.84310  Biso   1.000  C
  H7       1.0000 0.32150  0.72000  0.83310  Biso   1.000  H
  C20      1.0000 0.28040  0.83130  0.91220  Biso   1.000  C
  C21      1.0000 0.19020  0.95520  0.92810  Biso   1.000  C
  H8       1.0000 0.19690  0.97750  0.97710  Biso   1.000  H
  C22      1.0000 0.09350  0.03980  0.86870  Biso   1.000  C
  C23      1.0000 0.07690  0.00280  0.79880  Biso   1.000  C
  H9       1.0000 0.00870  0.05960  0.76080  Biso   1.000  H
  C24      1.0000 0.99790  0.17050  0.88190  Biso   1.000  C
  C25      1.0000 0.39440  0.74050  0.97090  Biso   1.000  C
  C26      1.0000 0.51190  0.66450  0.93590  Biso   1.000  C
  H10      1.0000 0.51760  0.67560  0.87720  Biso   1.000  H
  C27      1.0000 0.62050  0.57290  0.98530  Biso   1.000  C
  C28      1.0000 0.61010  0.55470  0.07390  Biso   1.000  C
  H11      1.0000 0.68280  0.49700  0.10810  Biso   1.000  H
  C29      1.0000 0.49300  0.62180  0.11000  Biso   1.000  C
  C30      1.0000 0.38220  0.71800  0.05860  Biso   1.000  C
  H12      1.0000 0.30350  0.76460  0.08360  Biso   1.000  H
  C31      1.0000 0.74150  0.48950  0.94190  Biso   1.000  C
  C32      1.0000 0.47610  0.58790  0.20480  Biso   1.000  C
  Zn1      1.0000 0.07262  0.83244  0.54857  Biso   1.000  Zn
  Zn2      1.0000 0.39331  0.61703  0.64010  Biso   1.000  Zn
  Zn3      1.0000 0.20368  0.55884  0.24711  Biso   1.000  Zn
  O1       1.0000 0.16830  0.63210  0.36300  Biso   1.000  O
  O2       1.0000 0.91750  0.24610  0.82340  Biso   1.000  O
  O3       1.0000 0.93660  0.34910  0.39780  Biso   1.000  O
  O4       1.0000 0.72240  0.43590  0.42290  Biso   1.000  O
  O5       1.0000 0.50290  0.30110  0.31860  Biso   1.000  O
  O6       1.0000 0.28570  0.36400  0.32480  Biso   1.000  O
  O7       1.0000 0.12430  0.02010  0.47160  Biso   1.000  O
  O8       1.0000 0.27320  0.82440  0.52830  Biso   1.000  O
  O9       1.0000 0.07950  0.79580  0.42630  Biso   1.000  O
  O10      1.0000 0.00830  0.20170  0.94730  Biso   1.000  O
  O11      1.0000 0.05330  0.90630  0.66120  Biso   1.000  O
  O12      1.0000 0.22950  0.72120  0.70860  Biso   1.000  O
  O13      1.0000 0.57960  0.53970  0.24950  Biso   1.000  O
  H13      1.0000 0.64230  0.57230  0.23420  Biso   1.000  H
  O14      1.0000 0.36820  0.60360  0.23600  Biso   1.000  O
  O15      1.0000 0.83440  0.40200  0.98930  Biso   1.000  O
  O16      1.0000 0.73680  0.51490  0.86370  Biso   1.000  O
  C33      1.0000 0.92640  0.28900  0.60320  Biso   1.000  C
  C34      1.0000 0.05440  0.29980  0.60130  Biso   1.000  C
  C35      1.0000 0.05150  0.41790  0.59750  Biso   1.000  C
  H14      1.0000 0.97120  0.49070  0.59510  Biso   1.000  H
  C36      1.0000 0.16900  0.43030  0.59700  Biso   1.000  C
  C37      1.0000 0.28670  0.32100  0.59900  Biso   1.000  C
  H15      1.0000 0.36510  0.32790  0.59920  Biso   1.000  H
  C38      1.0000 0.29050  0.19920  0.60070  Biso   1.000  C
  C39      1.0000 0.17330  0.19100  0.60130  Biso   1.000  C
  H16      1.0000 0.17370  0.11190  0.60170  Biso   1.000  H
  C40      1.0000 0.17180  0.55760  0.59230  Biso   1.000  C
  C41      1.0000 0.42300  0.08780  0.59940  Biso   1.000  C
  C42      1.0000 0.52580  0.11760  0.55890  Biso   1.000  C
  H17      1.0000 0.50880  0.20410  0.53310  Biso   1.000  H
  C43      1.0000 0.65310  0.01980  0.55660  Biso   1.000  C
  C44      1.0000 0.67740  0.89130  0.59500  Biso   1.000  C
  H18      1.0000 0.76260  0.82570  0.59660  Biso   1.000  H
  C45      1.0000 0.57660  0.86010  0.63060  Biso   1.000  C
  C46      1.0000 0.45000  0.95850  0.63400  Biso   1.000  C
  H19      1.0000 0.38300  0.93630  0.66000  Biso   1.000  H
  C47      1.0000 0.59830  0.71920  0.66550  Biso   1.000  C
  C48      1.0000 0.75760  0.06040  0.51590  Biso   1.000  C
  C49      1.0000 0.85010  0.16830  0.28650  Biso   1.000  C
  C50      1.0000 0.83860  0.11780  0.21380  Biso   1.000  C
  C51      1.0000 0.73710  0.19980  0.15690  Biso   1.000  C
  H20      1.0000 0.67850  0.28000  0.16690  Biso   1.000  H
  C52      1.0000 0.71960  0.16870  0.08780  Biso   1.000  C
  C53      1.0000 0.80980  0.04480  0.07190  Biso   1.000  C
  H21      1.0000 0.80310  0.02250  0.02290  Biso   1.000  H
  C54      1.0000 0.90650  0.96020  0.13130  Biso   1.000  C
  C55      1.0000 0.92310  0.99720  0.20120  Biso   1.000  C
  H22      1.0000 0.99130  0.94040  0.23920  Biso   1.000  H
  C56      1.0000 0.00210  0.82950  0.11810  Biso   1.000  C
  C57      1.0000 0.60560  0.25950  0.02910  Biso   1.000  C
  C58      1.0000 0.48810  0.33550  0.06410  Biso   1.000  C
  H23      1.0000 0.48240  0.32440  0.12280  Biso   1.000  H
  C59      1.0000 0.37950  0.42710  0.01470  Biso   1.000  C
  C60      1.0000 0.38990  0.44530  0.92610  Biso   1.000  C
  H24      1.0000 0.31720  0.50300  0.89190  Biso   1.000  H
  C61      1.0000 0.50700  0.37820  0.89000  Biso   1.000  C
  C62      1.0000 0.61780  0.28200  0.94140  Biso   1.000  C
  H25      1.0000 0.69650  0.23540  0.91640  Biso   1.000  H
  C63      1.0000 0.25850  0.51050  0.05810  Biso   1.000  C
  C64      1.0000 0.52390  0.41210  0.79520  Biso   1.000  C
  Zn4      1.0000 0.92738  0.16756  0.45143  Biso   1.000  Zn
  Zn5      1.0000 0.60669  0.38297  0.35990  Biso   1.000  Zn
  Zn6      1.0000 0.79632  0.44116  0.75289  Biso   1.000  Zn
  O17      1.0000 0.83170  0.36790  0.63700  Biso   1.000  O
  O18      1.0000 0.08250  0.75390  0.17660  Biso   1.000  O
  O19      1.0000 0.06340  0.65090  0.60220  Biso   1.000  O
  O20      1.0000 0.27760  0.56410  0.57710  Biso   1.000  O
  O21      1.0000 0.49710  0.69890  0.68140  Biso   1.000  O
  O22      1.0000 0.71430  0.63600  0.67520  Biso   1.000  O
  O23      1.0000 0.87570  0.97990  0.52840  Biso   1.000  O
  O24      1.0000 0.72680  0.17560  0.47170  Biso   1.000  O
  O25      1.0000 0.92050  0.20420  0.57370  Biso   1.000  O
  O26      1.0000 0.99170  0.79830  0.05270  Biso   1.000  O
  O27      1.0000 0.94670  0.09370  0.33880  Biso   1.000  O
  O28      1.0000 0.77050  0.27880  0.29140  Biso   1.000  O
  O29      1.0000 0.42040  0.46030  0.75050  Biso   1.000  O
  H26      1.0000 0.35770  0.42770  0.76580  Biso   1.000  H
  O30      1.0000 0.63180  0.39640  0.76400  Biso   1.000  O
  O31      1.0000 0.16560  0.59800  0.01070  Biso   1.000  O
  O32      1.0000 0.26320  0.48510  0.13630  Biso   1.000  O
