data_FEVDIV_clean
_audit_creation_date              2014-07-02
_audit_creation_method            'Materials Studio'
_symmetry_space_group_name_H-M    'P1'
_symmetry_Int_Tables_number       1
_symmetry_cell_setting            triclinic
loop_
_symmetry_equiv_pos_as_xyz
  x,y,z
_cell_length_a                    8.3722
_cell_length_b                    11.4888
_cell_length_c                    34.9230
_cell_angle_alpha                 90.0000
_cell_angle_beta                  90.0000
_cell_angle_gamma                 105.5900
loop_
_atom_site_label
_atom_site_type_symbol
_atom_site_fract_x
_atom_site_fract_y
_atom_site_fract_z
_atom_site_U_iso_or_equiv
_atom_site_adp_type
_atom_site_occupancy
Ni1    Ni    0.47694   0.50910   0.85140   0.01267  Uiso   1.00
Ni2    Ni    0.52306   0.99090   0.35140   0.01267  Uiso   1.00
Ni3    Ni    0.52306   0.49090   0.14860   0.01267  Uiso   1.00
Ni4    Ni    0.47694   0.00910   0.64860   0.01267  Uiso   1.00
H1     H     0.86760   0.78440   0.78090   0.01267  Uiso   1.00
H2     H     0.17090   0.87660   0.77360   0.01267  Uiso   1.00
H3     H     0.37910   0.89650   0.72970   0.01267  Uiso   1.00
H4     H     0.18810   0.09860   0.66470   0.01267  Uiso   1.00
H5     H     0.97820   0.08950   0.70750   0.01267  Uiso   1.00
H6     H     0.89330   0.13600   0.77160   0.01267  Uiso   1.00
H7     H     0.53260   0.91870   0.83430   0.01267  Uiso   1.00
H8     H     0.86780   0.27530   0.81770   0.01267  Uiso   1.00
H9     H     0.77350   0.43470   0.83650   0.01267  Uiso   1.00
H10    H     0.31720   0.23450   0.83700   0.01267  Uiso   1.00
H11    H     0.39890   0.06830   0.81930   0.01267  Uiso   1.00
H12    H     0.85270   0.24910   0.90660   0.01267  Uiso   1.00
H13    H     0.85210   0.26330   0.02100   0.01267  Uiso   1.00
H14    H     0.26140   0.43180   0.96240   0.01267  Uiso   1.00
H15    H     0.32580   0.54280   0.01530   0.01267  Uiso   1.00
H16    H     0.47130   0.59050   0.07060   0.01267  Uiso   1.00
H17    H     0.19130   0.31160   0.12180   0.01267  Uiso   1.00
H18    H     0.03650   0.25520   0.06820   0.01267  Uiso   1.00
H19    H     0.63780   0.09420   0.91330   0.01267  Uiso   1.00
H20    H     0.35730   0.00250   0.91300   0.01267  Uiso   1.00
H21    H     0.30460   0.13480   0.01150   0.01267  Uiso   1.00
H22    H     0.58150   0.23270   0.01500   0.01267  Uiso   1.00
H23    H     0.13240   0.71560   0.28090   0.01267  Uiso   1.00
H24    H     0.82910   0.62340   0.27360   0.01267  Uiso   1.00
H25    H     0.62090   0.60350   0.22970   0.01267  Uiso   1.00
H26    H     0.81190   0.40140   0.16470   0.01267  Uiso   1.00
H27    H     0.02180   0.41050   0.20750   0.01267  Uiso   1.00
H28    H     0.10670   0.36400   0.27160   0.01267  Uiso   1.00
H29    H     0.46740   0.58130   0.33430   0.01267  Uiso   1.00
H30    H     0.13220   0.22470   0.31770   0.01267  Uiso   1.00
H31    H     0.22650   0.06530   0.33650   0.01267  Uiso   1.00
H32    H     0.68280   0.26550   0.33700   0.01267  Uiso   1.00
H33    H     0.60110   0.43170   0.31930   0.01267  Uiso   1.00
H34    H     0.14730   0.25090   0.40660   0.01267  Uiso   1.00
H35    H     0.14790   0.23670   0.52100   0.01267  Uiso   1.00
H36    H     0.73860   0.06820   0.46240   0.01267  Uiso   1.00
H37    H     0.67420   0.95720   0.51530   0.01267  Uiso   1.00
H38    H     0.52870   0.90950   0.57060   0.01267  Uiso   1.00
H39    H     0.80870   0.18840   0.62180   0.01267  Uiso   1.00
H40    H     0.96350   0.24480   0.56820   0.01267  Uiso   1.00
H41    H     0.36220   0.40580   0.41330   0.01267  Uiso   1.00
H42    H     0.64270   0.49750   0.41300   0.01267  Uiso   1.00
H43    H     0.69540   0.36520   0.51150   0.01267  Uiso   1.00
H44    H     0.41850   0.26730   0.51500   0.01267  Uiso   1.00
H45    H     0.13240   0.21560   0.21910   0.01267  Uiso   1.00
H46    H     0.82910   0.12340   0.22640   0.01267  Uiso   1.00
H47    H     0.62090   0.10350   0.27030   0.01267  Uiso   1.00
H48    H     0.81190   0.90140   0.33530   0.01267  Uiso   1.00
H49    H     0.02180   0.91050   0.29250   0.01267  Uiso   1.00
H50    H     0.10670   0.86400   0.22840   0.01267  Uiso   1.00
H51    H     0.46740   0.08130   0.16570   0.01267  Uiso   1.00
H52    H     0.13220   0.72470   0.18230   0.01267  Uiso   1.00
H53    H     0.22650   0.56530   0.16350   0.01267  Uiso   1.00
H54    H     0.68280   0.76550   0.16300   0.01267  Uiso   1.00
H55    H     0.60110   0.93170   0.18070   0.01267  Uiso   1.00
H56    H     0.14730   0.75090   0.09340   0.01267  Uiso   1.00
H57    H     0.14790   0.73670   0.97900   0.01267  Uiso   1.00
H58    H     0.73860   0.56820   0.03760   0.01267  Uiso   1.00
H59    H     0.67420   0.45720   0.98470   0.01267  Uiso   1.00
H60    H     0.52870   0.40950   0.92940   0.01267  Uiso   1.00
H61    H     0.80870   0.68840   0.87820   0.01267  Uiso   1.00
H62    H     0.96350   0.74480   0.93180   0.01267  Uiso   1.00
H63    H     0.36220   0.90580   0.08670   0.01267  Uiso   1.00
H64    H     0.64270   0.99750   0.08700   0.01267  Uiso   1.00
H65    H     0.69540   0.86520   0.98850   0.01267  Uiso   1.00
H66    H     0.41850   0.76730   0.98500   0.01267  Uiso   1.00
H67    H     0.86760   0.28440   0.71910   0.01267  Uiso   1.00
H68    H     0.17090   0.37660   0.72640   0.01267  Uiso   1.00
H69    H     0.37910   0.39650   0.77030   0.01267  Uiso   1.00
H70    H     0.18810   0.59860   0.83530   0.01267  Uiso   1.00
H71    H     0.97820   0.58950   0.79250   0.01267  Uiso   1.00
H72    H     0.89330   0.63600   0.72840   0.01267  Uiso   1.00
H73    H     0.53260   0.41870   0.66570   0.01267  Uiso   1.00
H74    H     0.86780   0.77530   0.68230   0.01267  Uiso   1.00
H75    H     0.77350   0.93470   0.66350   0.01267  Uiso   1.00
H76    H     0.31720   0.73450   0.66300   0.01267  Uiso   1.00
H77    H     0.39890   0.56830   0.68070   0.01267  Uiso   1.00
H78    H     0.85270   0.74910   0.59340   0.01267  Uiso   1.00
H79    H     0.85210   0.76330   0.47900   0.01267  Uiso   1.00
H80    H     0.26140   0.93180   0.53760   0.01267  Uiso   1.00
H81    H     0.32580   0.04280   0.48470   0.01267  Uiso   1.00
H82    H     0.47130   0.09050   0.42940   0.01267  Uiso   1.00
H83    H     0.19130   0.81160   0.37820   0.01267  Uiso   1.00
H84    H     0.03650   0.75520   0.43180   0.01267  Uiso   1.00
H85    H     0.63780   0.59420   0.58670   0.01267  Uiso   1.00
H86    H     0.35730   0.50250   0.58700   0.01267  Uiso   1.00
H87    H     0.30460   0.63480   0.48850   0.01267  Uiso   1.00
H88    H     0.58150   0.73270   0.48500   0.01267  Uiso   1.00
C1     C     0.60800   0.71130   0.82607   0.01267  Uiso   1.00
C2     C     0.68780   0.83340   0.80985   0.01267  Uiso   1.00
C3     C     0.82610   0.84970   0.78665   0.01267  Uiso   1.00
C4     C     0.90390   0.96390   0.77174   0.01267  Uiso   1.00
C5     C     0.04610   0.97840   0.74551   0.01267  Uiso   1.00
C6     C     0.17110   0.92220   0.75162   0.01267  Uiso   1.00
C7     C     0.29580   0.93430   0.72488   0.01267  Uiso   1.00
C8     C     0.18440   0.05330   0.68694   0.01267  Uiso   1.00
C9     C     0.05670   0.04750   0.71239   0.01267  Uiso   1.00
C10    C     0.84190   0.05980   0.78135   0.01267  Uiso   1.00
C11    C     0.70480   0.04590   0.80508   0.01267  Uiso   1.00
C12    C     0.62630   0.93030   0.81897   0.01267  Uiso   1.00
C13    C     0.64450   0.15110   0.81620   0.01267  Uiso   1.00
C14    C     0.75490   0.26450   0.82162   0.01267  Uiso   1.00
C15    C     0.69700   0.36030   0.83271   0.01267  Uiso   1.00
C16    C     0.42960   0.24270   0.83316   0.01267  Uiso   1.00
C17    C     0.47770   0.14210   0.82242   0.01267  Uiso   1.00
C18    C     0.16350   0.36680   0.89105   0.01267  Uiso   1.00
C19    C     0.07250   0.34260   0.92868   0.01267  Uiso   1.00
C20    C     0.90740   0.27530   0.92952   0.01267  Uiso   1.00
C21    C     0.82240   0.24630   0.96403   0.01267  Uiso   1.00
C22    C     0.90680   0.28410   0.99780   0.01267  Uiso   1.00
C23    C     0.07230   0.35250   0.99792   0.01267  Uiso   1.00
C24    C     0.15270   0.38340   0.96283   0.01267  Uiso   1.00
C25    C     0.16440   0.39000   0.03408   0.01267  Uiso   1.00
C26    C     0.29610   0.49270   0.03653   0.01267  Uiso   1.00
C27    C     0.38330   0.52100   0.07011   0.01267  Uiso   1.00
C28    C     0.22020   0.35860   0.09993   0.01267  Uiso   1.00
C29    C     0.12610   0.32360   0.06758   0.01267  Uiso   1.00
C30    C     0.64360   0.17920   0.96390   0.01267  Uiso   1.00
C31    C     0.57260   0.10620   0.93372   0.01267  Uiso   1.00
C32    C     0.40250   0.05030   0.93388   0.01267  Uiso   1.00
C33    C     0.37210   0.12740   0.99095   0.01267  Uiso   1.00
C34    C     0.54000   0.18730   0.99338   0.01267  Uiso   1.00
C35    C     0.39200   0.78870   0.32607   0.01267  Uiso   1.00
C36    C     0.31220   0.66660   0.30985   0.01267  Uiso   1.00
C37    C     0.17390   0.65030   0.28665   0.01267  Uiso   1.00
C38    C     0.09610   0.53610   0.27174   0.01267  Uiso   1.00
C39    C     0.95390   0.52160   0.24551   0.01267  Uiso   1.00
C40    C     0.82890   0.57780   0.25162   0.01267  Uiso   1.00
C41    C     0.70420   0.56570   0.22488   0.01267  Uiso   1.00
C42    C     0.81560   0.44670   0.18694   0.01267  Uiso   1.00
C43    C     0.94330   0.45250   0.21239   0.01267  Uiso   1.00
C44    C     0.15810   0.44020   0.28135   0.01267  Uiso   1.00
C45    C     0.29520   0.45410   0.30508   0.01267  Uiso   1.00
C46    C     0.37370   0.56970   0.31897   0.01267  Uiso   1.00
C47    C     0.35550   0.34890   0.31620   0.01267  Uiso   1.00
C48    C     0.24510   0.23550   0.32162   0.01267  Uiso   1.00
C49    C     0.30300   0.13970   0.33271   0.01267  Uiso   1.00
C50    C     0.57040   0.25730   0.33316   0.01267  Uiso   1.00
C51    C     0.52230   0.35790   0.32242   0.01267  Uiso   1.00
C52    C     0.83650   0.13320   0.39105   0.01267  Uiso   1.00
C53    C     0.92750   0.15740   0.42868   0.01267  Uiso   1.00
C54    C     0.09260   0.22470   0.42952   0.01267  Uiso   1.00
C55    C     0.17760   0.25370   0.46403   0.01267  Uiso   1.00
C56    C     0.09320   0.21590   0.49780   0.01267  Uiso   1.00
C57    C     0.92770   0.14750   0.49792   0.01267  Uiso   1.00
C58    C     0.84730   0.11660   0.46283   0.01267  Uiso   1.00
C59    C     0.83560   0.11000   0.53408   0.01267  Uiso   1.00
C60    C     0.70390   0.00730   0.53653   0.01267  Uiso   1.00
C61    C     0.61670   0.97900   0.57011   0.01267  Uiso   1.00
C62    C     0.77980   0.14140   0.59993   0.01267  Uiso   1.00
C63    C     0.87390   0.17640   0.56758   0.01267  Uiso   1.00
C64    C     0.35640   0.32080   0.46390   0.01267  Uiso   1.00
C65    C     0.42740   0.39380   0.43372   0.01267  Uiso   1.00
C66    C     0.59750   0.44970   0.43388   0.01267  Uiso   1.00
C67    C     0.62790   0.37260   0.49095   0.01267  Uiso   1.00
C68    C     0.46000   0.31270   0.49338   0.01267  Uiso   1.00
C69    C     0.39200   0.28870   0.17393   0.01267  Uiso   1.00
C70    C     0.31220   0.16660   0.19015   0.01267  Uiso   1.00
C71    C     0.17390   0.15030   0.21335   0.01267  Uiso   1.00
C72    C     0.09610   0.03610   0.22826   0.01267  Uiso   1.00
C73    C     0.95390   0.02160   0.25449   0.01267  Uiso   1.00
C74    C     0.82890   0.07780   0.24838   0.01267  Uiso   1.00
C75    C     0.70420   0.06570   0.27512   0.01267  Uiso   1.00
C76    C     0.81560   0.94670   0.31306   0.01267  Uiso   1.00
C77    C     0.94330   0.95250   0.28761   0.01267  Uiso   1.00
C78    C     0.15810   0.94020   0.21865   0.01267  Uiso   1.00
C79    C     0.29520   0.95410   0.19492   0.01267  Uiso   1.00
C80    C     0.37370   0.06970   0.18103   0.01267  Uiso   1.00
C81    C     0.35550   0.84890   0.18380   0.01267  Uiso   1.00
C82    C     0.24510   0.73550   0.17838   0.01267  Uiso   1.00
C83    C     0.30300   0.63970   0.16729   0.01267  Uiso   1.00
C84    C     0.57040   0.75730   0.16684   0.01267  Uiso   1.00
C85    C     0.52230   0.85790   0.17758   0.01267  Uiso   1.00
C86    C     0.83650   0.63320   0.10895   0.01267  Uiso   1.00
C87    C     0.92750   0.65740   0.07132   0.01267  Uiso   1.00
C88    C     0.09260   0.72470   0.07048   0.01267  Uiso   1.00
C89    C     0.17760   0.75370   0.03597   0.01267  Uiso   1.00
C90    C     0.09320   0.71590   0.00220   0.01267  Uiso   1.00
C91    C     0.92770   0.64750   0.00208   0.01267  Uiso   1.00
C92    C     0.84730   0.61660   0.03717   0.01267  Uiso   1.00
C93    C     0.83560   0.61000   0.96592   0.01267  Uiso   1.00
C94    C     0.70390   0.50730   0.96347   0.01267  Uiso   1.00
C95    C     0.61670   0.47900   0.92989   0.01267  Uiso   1.00
C96    C     0.77980   0.64140   0.90007   0.01267  Uiso   1.00
C97    C     0.87390   0.67640   0.93242   0.01267  Uiso   1.00
C98    C     0.35640   0.82080   0.03610   0.01267  Uiso   1.00
C99    C     0.42740   0.89380   0.06628   0.01267  Uiso   1.00
C100   C     0.59750   0.94970   0.06612   0.01267  Uiso   1.00
C101   C     0.62790   0.87260   0.00905   0.01267  Uiso   1.00
C102   C     0.46000   0.81270   0.00662   0.01267  Uiso   1.00
C103   C     0.60800   0.21130   0.67393   0.01267  Uiso   1.00
C104   C     0.68780   0.33340   0.69015   0.01267  Uiso   1.00
C105   C     0.82610   0.34970   0.71335   0.01267  Uiso   1.00
C106   C     0.90390   0.46390   0.72826   0.01267  Uiso   1.00
C107   C     0.04610   0.47840   0.75449   0.01267  Uiso   1.00
C108   C     0.17110   0.42220   0.74838   0.01267  Uiso   1.00
C109   C     0.29580   0.43430   0.77512   0.01267  Uiso   1.00
C110   C     0.18440   0.55330   0.81306   0.01267  Uiso   1.00
C111   C     0.05670   0.54750   0.78761   0.01267  Uiso   1.00
C112   C     0.84190   0.55980   0.71865   0.01267  Uiso   1.00
C113   C     0.70480   0.54590   0.69492   0.01267  Uiso   1.00
C114   C     0.62630   0.43030   0.68103   0.01267  Uiso   1.00
C115   C     0.64450   0.65110   0.68380   0.01267  Uiso   1.00
C116   C     0.75490   0.76450   0.67838   0.01267  Uiso   1.00
C117   C     0.69700   0.86030   0.66729   0.01267  Uiso   1.00
C118   C     0.42960   0.74270   0.66684   0.01267  Uiso   1.00
C119   C     0.47770   0.64210   0.67758   0.01267  Uiso   1.00
C120   C     0.16350   0.86680   0.60895   0.01267  Uiso   1.00
C121   C     0.07250   0.84260   0.57132   0.01267  Uiso   1.00
C122   C     0.90740   0.77530   0.57048   0.01267  Uiso   1.00
C123   C     0.82240   0.74630   0.53597   0.01267  Uiso   1.00
C124   C     0.90680   0.78410   0.50220   0.01267  Uiso   1.00
C125   C     0.07230   0.85250   0.50208   0.01267  Uiso   1.00
C126   C     0.15270   0.88340   0.53717   0.01267  Uiso   1.00
C127   C     0.16440   0.89000   0.46592   0.01267  Uiso   1.00
C128   C     0.29610   0.99270   0.46347   0.01267  Uiso   1.00
C129   C     0.38330   0.02100   0.42989   0.01267  Uiso   1.00
C130   C     0.22020   0.85860   0.40007   0.01267  Uiso   1.00
C131   C     0.12610   0.82360   0.43242   0.01267  Uiso   1.00
C132   C     0.64360   0.67920   0.53610   0.01267  Uiso   1.00
C133   C     0.57260   0.60620   0.56628   0.01267  Uiso   1.00
C134   C     0.40250   0.55030   0.56612   0.01267  Uiso   1.00
C135   C     0.37210   0.62740   0.50905   0.01267  Uiso   1.00
C136   C     0.54000   0.68730   0.50662   0.01267  Uiso   1.00
N1     N     0.30360   0.99700   0.69250   0.01267  Uiso   1.00
N2     N     0.53570   0.35230   0.83840   0.01267  Uiso   1.00
N3     N     0.35040   0.45570   0.10201   0.01267  Uiso   1.00
N4     N     0.30250   0.06140   0.96187   0.01267  Uiso   1.00
N5     N     0.69640   0.50300   0.19250   0.01267  Uiso   1.00
N6     N     0.46430   0.14770   0.33840   0.01267  Uiso   1.00
N7     N     0.64960   0.04430   0.60201   0.01267  Uiso   1.00
N8     N     0.69750   0.43860   0.46187   0.01267  Uiso   1.00
N9     N     0.69640   0.00300   0.30750   0.01267  Uiso   1.00
N10    N     0.46430   0.64770   0.16160   0.01267  Uiso   1.00
N11    N     0.64960   0.54430   0.89799   0.01267  Uiso   1.00
N12    N     0.69750   0.93860   0.03813   0.01267  Uiso   1.00
N13    N     0.30360   0.49700   0.80750   0.01267  Uiso   1.00
N14    N     0.53570   0.85230   0.66160   0.01267  Uiso   1.00
N15    N     0.35040   0.95570   0.39799   0.01267  Uiso   1.00
N16    N     0.30250   0.56140   0.53813   0.01267  Uiso   1.00
O1     O     0.65720   0.62155   0.81514   0.01267  Uiso   1.00
O2     O     0.49450   0.69910   0.85064   0.01267  Uiso   1.00
O3     O     0.10750   0.29950   0.86364   0.01267  Uiso   1.00
O4     O     0.29520   0.45410   0.89113   0.01267  Uiso   1.00
O5     O     0.34280   0.87845   0.31514   0.01267  Uiso   1.00
O6     O     0.50550   0.80090   0.35064   0.01267  Uiso   1.00
O7     O     0.89250   0.20050   0.36364   0.01267  Uiso   1.00
O8     O     0.70480   0.04590   0.39113   0.01267  Uiso   1.00
O9     O     0.34280   0.37845   0.18486   0.01267  Uiso   1.00
O10    O     0.50550   0.30090   0.14936   0.01267  Uiso   1.00
O11    O     0.89250   0.70050   0.13636   0.01267  Uiso   1.00
O12    O     0.70480   0.54590   0.10887   0.01267  Uiso   1.00
O13    O     0.65720   0.12155   0.68486   0.01267  Uiso   1.00
O14    O     0.49450   0.19910   0.64936   0.01267  Uiso   1.00
O15    O     0.10750   0.79950   0.63636   0.01267  Uiso   1.00
O16    O     0.29520   0.95410   0.60887   0.01267  Uiso   1.00
