data_FEVTEF_charged
_audit_creation_date              2014-07-02
_audit_creation_method            'Materials Studio'
_symmetry_space_group_name_H-M    'P1'
_symmetry_Int_Tables_number       1
_symmetry_cell_setting            triclinic
loop_
_symmetry_equiv_pos_as_xyz
  x,y,z
_cell_length_a                    11.3010
_cell_length_b                    13.1942
_cell_length_c                    20.3262
_cell_angle_alpha                 102.1300
_cell_angle_beta                  90.0000
_cell_angle_gamma                 115.3570
loop_
_atom_site_label
_atom_site_type_symbol
_atom_site_fract_x
_atom_site_fract_y
_atom_site_fract_z
_atom_site_U_iso_or_equiv
_atom_site_adp_type
_atom_site_occupancy
Co1    Co    0.80672   0.00000   0.25000   0.01267  Uiso   1.00
Cl1    Cl    0.65641   0.92394   0.15825   0.01267  Uiso   1.00
Cl2    Cl    0.99371   0.14164   0.22514   0.01267  Uiso   1.00
Cl3    Cl    0.73247   0.07606   0.34175   0.01267  Uiso   1.00
Cl4    Cl    0.85207   0.85836   0.27486   0.01267  Uiso   1.00
Co2    Co    0.19328   0.00000   0.75000   0.01267  Uiso   1.00
Cl5    Cl    0.34359   0.07606   0.84175   0.01267  Uiso   1.00
Cl6    Cl    0.00629   0.85836   0.77486   0.01267  Uiso   1.00
Cl7    Cl    0.26753   0.92394   0.65825   0.01267  Uiso   1.00
Cl8    Cl    0.14793   0.14164   0.72514   0.01267  Uiso   1.00
Co3    Co    0.00000   0.50000   0.00000   0.01267  Uiso   1.00
Co4    Co    0.50000   0.50000   0.50000   0.01267  Uiso   1.00
H1     H     0.89010   0.66800   0.85220   0.01267  Uiso   1.00
H2     H     0.86750   0.54240   0.85320   0.01267  Uiso   1.00
H3     H     0.85150   0.62220   0.91810   0.01267  Uiso   1.00
H4     H     0.09720   0.78440   0.85540   0.01267  Uiso   1.00
H5     H     0.29360   0.74020   0.89780   0.01267  Uiso   1.00
H6     H     0.31210   0.83400   0.85720   0.01267  Uiso   1.00
H7     H     0.29180   0.95360   0.95760   0.01267  Uiso   1.00
H8     H     0.28450   0.86140   0.99740   0.01267  Uiso   1.00
H9     H     0.49830   0.89040   0.97540   0.01267  Uiso   1.00
H10    H     0.50560   0.97360   0.92900   0.01267  Uiso   1.00
H11    H     0.44990   0.69140   0.03620   0.01267  Uiso   1.00
H12    H     0.35280   0.56120   0.02920   0.01267  Uiso   1.00
H13    H     0.32930   0.63040   0.98070   0.01267  Uiso   1.00
H14    H     0.41930   0.81400   0.11740   0.01267  Uiso   1.00
H15    H     0.30130   0.78860   0.21970   0.01267  Uiso   1.00
H16    H     0.17490   0.74760   0.16910   0.01267  Uiso   1.00
H17    H     0.39210   0.96040   0.18980   0.01267  Uiso   1.00
H18    H     0.26780   0.91940   0.13740   0.01267  Uiso   1.00
H19    H     0.13061   0.90842   0.22040   0.01267  Uiso   1.00
H20    H     0.22592   0.89704   0.27190   0.01267  Uiso   1.00
H21    H     0.88200   0.64060   0.20050   0.01267  Uiso   1.00
H22    H     0.83470   0.51620   0.15440   0.01267  Uiso   1.00
H23    H     0.98510   0.60120   0.16720   0.01267  Uiso   1.00
H24    H     0.84650   0.75540   0.15220   0.01267  Uiso   1.00
H25    H     0.81150   0.72460   0.01620   0.01267  Uiso   1.00
H26    H     0.76700   0.80300   0.06930   0.01267  Uiso   1.00
H27    H     0.98840   0.94000   0.09790   0.01267  Uiso   1.00
H28    H     0.03150   0.86220   0.04370   0.01267  Uiso   1.00
H29    H     0.86560   0.95640   0.00760   0.01267  Uiso   1.00
H30    H     0.92830   0.89200   0.95650   0.01267  Uiso   1.00
H31    H     0.22210   0.33200   0.64780   0.01267  Uiso   1.00
H32    H     0.32510   0.45760   0.64680   0.01267  Uiso   1.00
H33    H     0.22930   0.37780   0.58190   0.01267  Uiso   1.00
H34    H     0.31280   0.21560   0.64460   0.01267  Uiso   1.00
H35    H     0.55340   0.25980   0.60220   0.01267  Uiso   1.00
H36    H     0.47810   0.16600   0.64280   0.01267  Uiso   1.00
H37    H     0.33820   0.04640   0.54240   0.01267  Uiso   1.00
H38    H     0.42310   0.13860   0.50260   0.01267  Uiso   1.00
H39    H     0.60790   0.10960   0.52460   0.01267  Uiso   1.00
H40    H     0.53200   0.02640   0.57100   0.01267  Uiso   1.00
H41    H     0.75850   0.30860   0.46380   0.01267  Uiso   1.00
H42    H     0.79160   0.43880   0.47080   0.01267  Uiso   1.00
H43    H     0.69890   0.36960   0.51930   0.01267  Uiso   1.00
H44    H     0.60530   0.18600   0.38260   0.01267  Uiso   1.00
H45    H     0.51270   0.21140   0.28030   0.01267  Uiso   1.00
H46    H     0.42730   0.25240   0.33090   0.01267  Uiso   1.00
H47    H     0.43170   0.03960   0.31020   0.01267  Uiso   1.00
H48    H     0.34840   0.08060   0.36260   0.01267  Uiso   1.00
H49    H     0.22219   0.09158   0.27960   0.01267  Uiso   1.00
H50    H     0.32888   0.10296   0.22810   0.01267  Uiso   1.00
H51    H     0.24140   0.35940   0.29950   0.01267  Uiso   1.00
H52    H     0.31850   0.48380   0.34560   0.01267  Uiso   1.00
H53    H     0.38390   0.39880   0.33280   0.01267  Uiso   1.00
H54    H     0.09110   0.24460   0.34780   0.01267  Uiso   1.00
H55    H     0.08690   0.27540   0.48380   0.01267  Uiso   1.00
H56    H     0.96400   0.19700   0.43070   0.01267  Uiso   1.00
H57    H     0.04840   0.06000   0.40210   0.01267  Uiso   1.00
H58    H     0.16930   0.13780   0.45630   0.01267  Uiso   1.00
H59    H     0.90920   0.04360   0.49240   0.01267  Uiso   1.00
H60    H     0.03630   0.10800   0.54350   0.01267  Uiso   1.00
H61    H     0.10990   0.33200   0.14780   0.01267  Uiso   1.00
H62    H     0.13250   0.45760   0.14680   0.01267  Uiso   1.00
H63    H     0.14850   0.37780   0.08190   0.01267  Uiso   1.00
H64    H     0.90280   0.21560   0.14460   0.01267  Uiso   1.00
H65    H     0.70640   0.25980   0.10220   0.01267  Uiso   1.00
H66    H     0.68790   0.16600   0.14280   0.01267  Uiso   1.00
H67    H     0.70820   0.04640   0.04240   0.01267  Uiso   1.00
H68    H     0.71550   0.13860   0.00260   0.01267  Uiso   1.00
H69    H     0.50170   0.10960   0.02460   0.01267  Uiso   1.00
H70    H     0.49440   0.02640   0.07100   0.01267  Uiso   1.00
H71    H     0.55010   0.30860   0.96380   0.01267  Uiso   1.00
H72    H     0.64720   0.43880   0.97080   0.01267  Uiso   1.00
H73    H     0.67070   0.36960   0.01930   0.01267  Uiso   1.00
H74    H     0.58070   0.18600   0.88260   0.01267  Uiso   1.00
H75    H     0.69870   0.21140   0.78030   0.01267  Uiso   1.00
H76    H     0.82510   0.25240   0.83090   0.01267  Uiso   1.00
H77    H     0.60790   0.03960   0.81020   0.01267  Uiso   1.00
H78    H     0.73220   0.08060   0.86260   0.01267  Uiso   1.00
H79    H     0.86939   0.09158   0.77960   0.01267  Uiso   1.00
H80    H     0.77408   0.10296   0.72810   0.01267  Uiso   1.00
H81    H     0.11800   0.35940   0.79950   0.01267  Uiso   1.00
H82    H     0.16530   0.48380   0.84560   0.01267  Uiso   1.00
H83    H     0.01490   0.39880   0.83280   0.01267  Uiso   1.00
H84    H     0.15350   0.24460   0.84780   0.01267  Uiso   1.00
H85    H     0.18850   0.27540   0.98380   0.01267  Uiso   1.00
H86    H     0.23300   0.19700   0.93070   0.01267  Uiso   1.00
H87    H     0.01160   0.06000   0.90210   0.01267  Uiso   1.00
H88    H     0.96850   0.13780   0.95630   0.01267  Uiso   1.00
H89    H     0.13440   0.04360   0.99240   0.01267  Uiso   1.00
H90    H     0.07170   0.10800   0.04350   0.01267  Uiso   1.00
H91    H     0.77790   0.66800   0.35220   0.01267  Uiso   1.00
H92    H     0.67490   0.54240   0.35320   0.01267  Uiso   1.00
H93    H     0.77070   0.62220   0.41810   0.01267  Uiso   1.00
H94    H     0.68720   0.78440   0.35540   0.01267  Uiso   1.00
H95    H     0.44660   0.74020   0.39780   0.01267  Uiso   1.00
H96    H     0.52190   0.83400   0.35720   0.01267  Uiso   1.00
H97    H     0.66180   0.95360   0.45760   0.01267  Uiso   1.00
H98    H     0.57690   0.86140   0.49740   0.01267  Uiso   1.00
H99    H     0.39210   0.89040   0.47540   0.01267  Uiso   1.00
H100   H     0.46800   0.97360   0.42900   0.01267  Uiso   1.00
H101   H     0.24150   0.69140   0.53620   0.01267  Uiso   1.00
H102   H     0.20840   0.56120   0.52920   0.01267  Uiso   1.00
H103   H     0.30110   0.63040   0.48070   0.01267  Uiso   1.00
H104   H     0.39470   0.81400   0.61740   0.01267  Uiso   1.00
H105   H     0.48730   0.78860   0.71970   0.01267  Uiso   1.00
H106   H     0.57270   0.74760   0.66910   0.01267  Uiso   1.00
H107   H     0.56830   0.96040   0.68980   0.01267  Uiso   1.00
H108   H     0.65160   0.91940   0.63740   0.01267  Uiso   1.00
H109   H     0.77781   0.90842   0.72040   0.01267  Uiso   1.00
H110   H     0.67112   0.89704   0.77190   0.01267  Uiso   1.00
H111   H     0.75860   0.64060   0.70050   0.01267  Uiso   1.00
H112   H     0.68150   0.51620   0.65440   0.01267  Uiso   1.00
H113   H     0.61610   0.60120   0.66720   0.01267  Uiso   1.00
H114   H     0.90890   0.75540   0.65220   0.01267  Uiso   1.00
H115   H     0.91310   0.72460   0.51620   0.01267  Uiso   1.00
H116   H     0.03600   0.80300   0.56930   0.01267  Uiso   1.00
H117   H     0.95160   0.94000   0.59790   0.01267  Uiso   1.00
H118   H     0.83070   0.86220   0.54370   0.01267  Uiso   1.00
H119   H     0.09080   0.95640   0.50760   0.01267  Uiso   1.00
H120   H     0.96370   0.89200   0.45650   0.01267  Uiso   1.00
C1     C     0.90020   0.62040   0.87950   0.01267  Uiso   1.00
C2     C     0.04430   0.66520   0.90300   0.01267  Uiso   1.00
C3     C     0.26990   0.80160   0.89430   0.01267  Uiso   1.00
C4     C     0.32040   0.89460   0.95940   0.01267  Uiso   1.00
C5     C     0.47080   0.94840   0.96940   0.01267  Uiso   1.00
C6     C     0.35970   0.63500   0.02590   0.01267  Uiso   1.00
C7     C     0.27780   0.66940   0.07460   0.01267  Uiso   1.00
C8     C     0.26900   0.79640   0.17770   0.01267  Uiso   1.00
C9     C     0.29850   0.91100   0.17960   0.01267  Uiso   1.00
C10    C     0.22205   0.93530   0.23670   0.01267  Uiso   1.00
C11    C     0.89800   0.59540   0.16110   0.01267  Uiso   1.00
C12    C     0.88600   0.63940   0.10070   0.01267  Uiso   1.00
C13    C     0.83740   0.78040   0.05940   0.01267  Uiso   1.00
C14    C     0.96170   0.88520   0.05440   0.01267  Uiso   1.00
C15    C     0.94370   0.94400   0.00050   0.01267  Uiso   1.00
C16    C     0.27980   0.37960   0.62050   0.01267  Uiso   1.00
C17    C     0.37910   0.33480   0.59700   0.01267  Uiso   1.00
C18    C     0.46830   0.19840   0.60570   0.01267  Uiso   1.00
C19    C     0.42580   0.10540   0.54060   0.01267  Uiso   1.00
C20    C     0.52240   0.05160   0.53060   0.01267  Uiso   1.00
C21    C     0.72470   0.36500   0.47410   0.01267  Uiso   1.00
C22    C     0.60840   0.33060   0.42540   0.01267  Uiso   1.00
C23    C     0.47260   0.20360   0.32230   0.01267  Uiso   1.00
C24    C     0.38750   0.08900   0.32040   0.01267  Uiso   1.00
C25    C     0.28675   0.06470   0.26330   0.01267  Uiso   1.00
C26    C     0.30260   0.40460   0.33890   0.01267  Uiso   1.00
C27    C     0.24660   0.36060   0.39930   0.01267  Uiso   1.00
C28    C     0.05700   0.21960   0.44060   0.01267  Uiso   1.00
C29    C     0.07650   0.11480   0.44560   0.01267  Uiso   1.00
C30    C     0.99970   0.05600   0.49950   0.01267  Uiso   1.00
C31    C     0.09980   0.37960   0.12050   0.01267  Uiso   1.00
C32    C     0.95570   0.33480   0.09700   0.01267  Uiso   1.00
C33    C     0.73010   0.19840   0.10570   0.01267  Uiso   1.00
C34    C     0.67960   0.10540   0.04060   0.01267  Uiso   1.00
C35    C     0.52920   0.05160   0.03060   0.01267  Uiso   1.00
C36    C     0.64030   0.36500   0.97410   0.01267  Uiso   1.00
C37    C     0.72220   0.33060   0.92540   0.01267  Uiso   1.00
C38    C     0.73100   0.20360   0.82230   0.01267  Uiso   1.00
C39    C     0.70150   0.08900   0.82040   0.01267  Uiso   1.00
C40    C     0.77795   0.06470   0.76330   0.01267  Uiso   1.00
C41    C     0.10200   0.40460   0.83890   0.01267  Uiso   1.00
C42    C     0.11400   0.36060   0.89930   0.01267  Uiso   1.00
C43    C     0.16260   0.21960   0.94060   0.01267  Uiso   1.00
C44    C     0.03830   0.11480   0.94560   0.01267  Uiso   1.00
C45    C     0.05630   0.05600   0.99950   0.01267  Uiso   1.00
C46    C     0.72020   0.62040   0.37950   0.01267  Uiso   1.00
C47    C     0.62090   0.66520   0.40300   0.01267  Uiso   1.00
C48    C     0.53170   0.80160   0.39430   0.01267  Uiso   1.00
C49    C     0.57420   0.89460   0.45940   0.01267  Uiso   1.00
C50    C     0.47760   0.94840   0.46940   0.01267  Uiso   1.00
C51    C     0.27530   0.63500   0.52590   0.01267  Uiso   1.00
C52    C     0.39160   0.66940   0.57460   0.01267  Uiso   1.00
C53    C     0.52740   0.79640   0.67770   0.01267  Uiso   1.00
C54    C     0.61250   0.91100   0.67960   0.01267  Uiso   1.00
C55    C     0.71325   0.93530   0.73670   0.01267  Uiso   1.00
C56    C     0.69740   0.59540   0.66110   0.01267  Uiso   1.00
C57    C     0.75340   0.63940   0.60070   0.01267  Uiso   1.00
C58    C     0.94300   0.78040   0.55940   0.01267  Uiso   1.00
C59    C     0.92350   0.88520   0.55440   0.01267  Uiso   1.00
C60    C     0.00030   0.94400   0.50050   0.01267  Uiso   1.00
N1     N     0.12830   0.75400   0.88000   0.01267  Uiso   1.00
N2     N     0.33940   0.76760   0.12070   0.01267  Uiso   1.00
N3     N     0.85580   0.72760   0.11130   0.01267  Uiso   1.00
N4     N     0.37430   0.24600   0.62000   0.01267  Uiso   1.00
N5     N     0.57180   0.23240   0.37930   0.01267  Uiso   1.00
N6     N     0.12820   0.27240   0.38870   0.01267  Uiso   1.00
N7     N     0.87170   0.24600   0.12000   0.01267  Uiso   1.00
N8     N     0.66060   0.23240   0.87930   0.01267  Uiso   1.00
N9     N     0.14420   0.27240   0.88870   0.01267  Uiso   1.00
N10    N     0.62570   0.75400   0.38000   0.01267  Uiso   1.00
N11    N     0.42820   0.76760   0.62070   0.01267  Uiso   1.00
N12    N     0.87180   0.72760   0.61130   0.01267  Uiso   1.00
O1     O     0.08425   0.61910   0.93905   0.01267  Uiso   1.00
O2     O     0.15734   0.61168   0.07280   0.01267  Uiso   1.00
O3     O     0.90160   0.59740   0.04310   0.01267  Uiso   1.00
O4     O     0.46515   0.38090   0.56095   0.01267  Uiso   1.00
O5     O     0.54566   0.38832   0.42720   0.01267  Uiso   1.00
O6     O     0.30420   0.40260   0.45690   0.01267  Uiso   1.00
O7     O     0.91575   0.38090   0.06095   0.01267  Uiso   1.00
O8     O     0.84266   0.38832   0.92720   0.01267  Uiso   1.00
O9     O     0.09840   0.40260   0.95690   0.01267  Uiso   1.00
O10    O     0.53485   0.61910   0.43905   0.01267  Uiso   1.00
O11    O     0.45434   0.61168   0.57280   0.01267  Uiso   1.00
O12    O     0.69580   0.59740   0.54310   0.01267  Uiso   1.00
