data_FEVVIM_charged
_audit_creation_date              2014-07-02
_audit_creation_method            'Materials Studio'
_symmetry_space_group_name_H-M    'P1'
_symmetry_Int_Tables_number       1
_symmetry_cell_setting            triclinic
loop_
_symmetry_equiv_pos_as_xyz
  x,y,z
_cell_length_a                    11.2620
_cell_length_b                    13.4386
_cell_length_c                    21.1600
_cell_angle_alpha                 101.1840
_cell_angle_beta                  90.0000
_cell_angle_gamma                 114.7720
loop_
_atom_site_label
_atom_site_type_symbol
_atom_site_fract_x
_atom_site_fract_y
_atom_site_fract_z
_atom_site_U_iso_or_equiv
_atom_site_adp_type
_atom_site_occupancy
Mn1    Mn    0.82140  -0.00000   0.25000   0.01267  Uiso   1.00
Br1    Br    0.65801   0.91918   0.15401   0.01267  Uiso   1.00
Br2    Br    0.02361   0.15154   0.22303   0.01267  Uiso   1.00
Br3    Br    0.73883   0.08082   0.34599   0.01267  Uiso   1.00
Br4    Br    0.87207   0.84846   0.27697   0.01267  Uiso   1.00
Mn2    Mn    0.17860  -0.00000   0.75000   0.01267  Uiso   1.00
Br5    Br    0.34199   0.08082   0.84599   0.01267  Uiso   1.00
Br6    Br    0.97639   0.84846   0.77697   0.01267  Uiso   1.00
Br7    Br    0.26117   0.91918   0.65401   0.01267  Uiso   1.00
Br8    Br    0.12793   0.15154   0.72303   0.01267  Uiso   1.00
Mn3    Mn    1.00000   0.50000  -0.00000   0.01267  Uiso   1.00
Mn4    Mn    0.50000   0.50000   0.50000   0.01267  Uiso   1.00
H1     H     0.90110   0.67440   0.85730   0.01267  Uiso   1.00
H2     H     0.88050   0.55200   0.85890   0.01267  Uiso   1.00
H3     H     0.86230   0.62840   0.92060   0.01267  Uiso   1.00
H4     H     0.10280   0.78940   0.86200   0.01267  Uiso   1.00
H5     H     0.29790   0.74580   0.90400   0.01267  Uiso   1.00
H6     H     0.31560   0.83640   0.86350   0.01267  Uiso   1.00
H7     H     0.29250   0.95380   0.95850   0.01267  Uiso   1.00
H8     H     0.28680   0.86460   0.99810   0.01267  Uiso   1.00
H9     H     0.50940   0.97780   0.93340   0.01267  Uiso   1.00
H10    H     0.50320   0.89620   0.97840   0.01267  Uiso   1.00
H11    H     0.54810   0.29200   0.95000   0.01267  Uiso   1.00
H12    H     0.63470   0.42100   0.95750   0.01267  Uiso   1.00
H13    H     0.65920   0.35720   0.00700   0.01267  Uiso   1.00
H14    H     0.60080   0.18580   0.87150   0.01267  Uiso   1.00
H15    H     0.85490   0.22140   0.85590   0.01267  Uiso   1.00
H16    H     0.78600   0.23940   0.79640   0.01267  Uiso   1.00
H17    H     0.69620   0.03840   0.84540   0.01267  Uiso   1.00
H18    H     0.59720   0.05920   0.80180   0.01267  Uiso   1.00
H19    H     0.75990   0.90420   0.73460   0.01267  Uiso   1.00
H20    H     0.64980   0.90980   0.78050   0.01267  Uiso   1.00
H21    H     0.13490   0.36560   0.81050   0.01267  Uiso   1.00
H22    H     0.18850   0.48600   0.85510   0.01267  Uiso   1.00
H23    H     0.03680   0.41160   0.84190   0.01267  Uiso   1.00
H24    H     0.16010   0.24560   0.85950   0.01267  Uiso   1.00
H25    H     0.17380   0.27000   0.99070   0.01267  Uiso   1.00
H26    H     0.23350   0.20060   0.94420   0.01267  Uiso   1.00
H27    H     0.02110   0.06400   0.90720   0.01267  Uiso   1.00
H28    H     0.96450   0.13240   0.95670   0.01267  Uiso   1.00
H29    H     0.86460   0.95380   0.00260   0.01267  Uiso   1.00
H30    H     0.93840   0.89780   0.95620   0.01267  Uiso   1.00
H31    H     0.22670   0.32560   0.64270   0.01267  Uiso   1.00
H32    H     0.32850   0.44800   0.64110   0.01267  Uiso   1.00
H33    H     0.23390   0.37160   0.57940   0.01267  Uiso   1.00
H34    H     0.31340   0.21060   0.63800   0.01267  Uiso   1.00
H35    H     0.55210   0.25420   0.59600   0.01267  Uiso   1.00
H36    H     0.47920   0.16360   0.63650   0.01267  Uiso   1.00
H37    H     0.33870   0.04620   0.54150   0.01267  Uiso   1.00
H38    H     0.42220   0.13540   0.50190   0.01267  Uiso   1.00
H39    H     0.53160   0.02220   0.56660   0.01267  Uiso   1.00
H40    H     0.60700   0.10380   0.52160   0.01267  Uiso   1.00
H41    H     0.25610   0.70800   0.55000   0.01267  Uiso   1.00
H42    H     0.21370   0.57900   0.54250   0.01267  Uiso   1.00
H43    H     0.30200   0.64280   0.49300   0.01267  Uiso   1.00
H44    H     0.41500   0.81420   0.62850   0.01267  Uiso   1.00
H45    H     0.63350   0.77860   0.64410   0.01267  Uiso   1.00
H46    H     0.54660   0.76060   0.70360   0.01267  Uiso   1.00
H47    H     0.65780   0.96160   0.65460   0.01267  Uiso   1.00
H48    H     0.53800   0.94080   0.69820   0.01267  Uiso   1.00
H49    H     0.85570   0.09580   0.76540   0.01267  Uiso   1.00
H50    H     0.74000   0.09020   0.71950   0.01267  Uiso   1.00
H51    H     0.76930   0.63440   0.68950   0.01267  Uiso   1.00
H52    H     0.70250   0.51400   0.64490   0.01267  Uiso   1.00
H53    H     0.62520   0.58840   0.65810   0.01267  Uiso   1.00
H54    H     0.91450   0.75440   0.64050   0.01267  Uiso   1.00
H55    H     0.90380   0.73000   0.50930   0.01267  Uiso   1.00
H56    H     0.03290   0.79940   0.55580   0.01267  Uiso   1.00
H57    H     0.95710   0.93600   0.59280   0.01267  Uiso   1.00
H58    H     0.83210   0.86760   0.54330   0.01267  Uiso   1.00
H59    H     0.91080   0.04620   0.49740   0.01267  Uiso   1.00
H60    H     0.04060   0.10220   0.54380   0.01267  Uiso   1.00
H61    H     0.09890   0.32560   0.14270   0.01267  Uiso   1.00
H62    H     0.11950   0.44800   0.14110   0.01267  Uiso   1.00
H63    H     0.13770   0.37160   0.07940   0.01267  Uiso   1.00
H64    H     0.89720   0.21060   0.13800   0.01267  Uiso   1.00
H65    H     0.70210   0.25420   0.09600   0.01267  Uiso   1.00
H66    H     0.68440   0.16360   0.13650   0.01267  Uiso   1.00
H67    H     0.70750   0.04620   0.04150   0.01267  Uiso   1.00
H68    H     0.71320   0.13540   0.00190   0.01267  Uiso   1.00
H69    H     0.49060   0.02220   0.06660   0.01267  Uiso   1.00
H70    H     0.49680   0.10380   0.02160   0.01267  Uiso   1.00
H71    H     0.45190   0.70800   0.05000   0.01267  Uiso   1.00
H72    H     0.36530   0.57900   0.04250   0.01267  Uiso   1.00
H73    H     0.34080   0.64280   0.99300   0.01267  Uiso   1.00
H74    H     0.39920   0.81420   0.12850   0.01267  Uiso   1.00
H75    H     0.14510   0.77860   0.14410   0.01267  Uiso   1.00
H76    H     0.21400   0.76060   0.20360   0.01267  Uiso   1.00
H77    H     0.30380   0.96160   0.15460   0.01267  Uiso   1.00
H78    H     0.40280   0.94080   0.19820   0.01267  Uiso   1.00
H79    H     0.24010   0.09580   0.26540   0.01267  Uiso   1.00
H80    H     0.35020   0.09020   0.21950   0.01267  Uiso   1.00
H81    H     0.86510   0.63440   0.18950   0.01267  Uiso   1.00
H82    H     0.81150   0.51400   0.14490   0.01267  Uiso   1.00
H83    H     0.96320   0.58840   0.15810   0.01267  Uiso   1.00
H84    H     0.83990   0.75440   0.14050   0.01267  Uiso   1.00
H85    H     0.82620   0.73000   0.00930   0.01267  Uiso   1.00
H86    H     0.76650   0.79940   0.05580   0.01267  Uiso   1.00
H87    H     0.97890   0.93600   0.09280   0.01267  Uiso   1.00
H88    H     0.03550   0.86760   0.04330   0.01267  Uiso   1.00
H89    H     0.13540   0.04620   0.99740   0.01267  Uiso   1.00
H90    H     0.06160   0.10220   0.04380   0.01267  Uiso   1.00
H91    H     0.77330   0.67440   0.35730   0.01267  Uiso   1.00
H92    H     0.67150   0.55200   0.35890   0.01267  Uiso   1.00
H93    H     0.76610   0.62840   0.42060   0.01267  Uiso   1.00
H94    H     0.68660   0.78940   0.36200   0.01267  Uiso   1.00
H95    H     0.44790   0.74580   0.40400   0.01267  Uiso   1.00
H96    H     0.52080   0.83640   0.36350   0.01267  Uiso   1.00
H97    H     0.66130   0.95380   0.45850   0.01267  Uiso   1.00
H98    H     0.57780   0.86460   0.49810   0.01267  Uiso   1.00
H99    H     0.46840   0.97780   0.43340   0.01267  Uiso   1.00
H100   H     0.39300   0.89620   0.47840   0.01267  Uiso   1.00
H101   H     0.74390   0.29200   0.45000   0.01267  Uiso   1.00
H102   H     0.78630   0.42100   0.45750   0.01267  Uiso   1.00
H103   H     0.69800   0.35720   0.50700   0.01267  Uiso   1.00
H104   H     0.58500   0.18580   0.37150   0.01267  Uiso   1.00
H105   H     0.36650   0.22140   0.35590   0.01267  Uiso   1.00
H106   H     0.45340   0.23940   0.29640   0.01267  Uiso   1.00
H107   H     0.34220   0.03840   0.34540   0.01267  Uiso   1.00
H108   H     0.46200   0.05920   0.30180   0.01267  Uiso   1.00
H109   H     0.14430   0.90420   0.23460   0.01267  Uiso   1.00
H110   H     0.26000   0.90980   0.28050   0.01267  Uiso   1.00
H111   H     0.23070   0.36560   0.31050   0.01267  Uiso   1.00
H112   H     0.29750   0.48600   0.35510   0.01267  Uiso   1.00
H113   H     0.37480   0.41160   0.34190   0.01267  Uiso   1.00
H114   H     0.08550   0.24560   0.35950   0.01267  Uiso   1.00
H115   H     0.09620   0.27000   0.49070   0.01267  Uiso   1.00
H116   H     0.96710   0.20060   0.44420   0.01267  Uiso   1.00
H117   H     0.04290   0.06400   0.40720   0.01267  Uiso   1.00
H118   H     0.16790   0.13240   0.45670   0.01267  Uiso   1.00
H119   H     0.08920   0.95380   0.50260   0.01267  Uiso   1.00
H120   H     0.95940   0.89780   0.45620   0.01267  Uiso   1.00
C1     C     0.91170   0.62740   0.88370   0.01267  Uiso   1.00
C2     C     0.04900   0.66900   0.90510   0.01267  Uiso   1.00
C3     C     0.27310   0.80520   0.89950   0.01267  Uiso   1.00
C4     C     0.32290   0.89700   0.96130   0.01267  Uiso   1.00
C5     C     0.47370   0.95200   0.97200   0.01267  Uiso   1.00
C6     C     0.63440   0.35140   0.96260   0.01267  Uiso   1.00
C7     C     0.72870   0.32740   0.92150   0.01267  Uiso   1.00
C8     C     0.77140   0.20340   0.83300   0.01267  Uiso   1.00
C9     C     0.68870   0.07840   0.81320   0.01267  Uiso   1.00
C10    C     0.76130   0.06320   0.75530   0.01267  Uiso   1.00
C11    C     0.12080   0.41080   0.84810   0.01267  Uiso   1.00
C12    C     0.12380   0.36220   0.90610   0.01267  Uiso   1.00
C13    C     0.15870   0.21860   0.94930   0.01267  Uiso   1.00
C14    C     0.03880   0.11420   0.94930   0.01267  Uiso   1.00
C15    C     0.05430   0.05500   0.00160   0.01267  Uiso   1.00
C16    C     0.28430   0.37260   0.61630   0.01267  Uiso   1.00
C17    C     0.38000   0.33100   0.59490   0.01267  Uiso   1.00
C18    C     0.46790   0.19480   0.60050   0.01267  Uiso   1.00
C19    C     0.42590   0.10300   0.53870   0.01267  Uiso   1.00
C20    C     0.52170   0.04800   0.52800   0.01267  Uiso   1.00
C21    C     0.28300   0.64860   0.53740   0.01267  Uiso   1.00
C22    C     0.40130   0.67260   0.57850   0.01267  Uiso   1.00
C23    C     0.56800   0.79660   0.66700   0.01267  Uiso   1.00
C24    C     0.61030   0.92160   0.68680   0.01267  Uiso   1.00
C25    C     0.69810   0.93680   0.74470   0.01267  Uiso   1.00
C26    C     0.71000   0.58920   0.65190   0.01267  Uiso   1.00
C27    C     0.76160   0.63780   0.59390   0.01267  Uiso   1.00
C28    C     0.94010   0.78140   0.55070   0.01267  Uiso   1.00
C29    C     0.92460   0.88580   0.55070   0.01267  Uiso   1.00
C30    C     0.99930   0.94500   0.49840   0.01267  Uiso   1.00
C31    C     0.08830   0.37260   0.11630   0.01267  Uiso   1.00
C32    C     0.95100   0.33100   0.09490   0.01267  Uiso   1.00
C33    C     0.72690   0.19480   0.10050   0.01267  Uiso   1.00
C34    C     0.67710   0.10300   0.03870   0.01267  Uiso   1.00
C35    C     0.52630   0.04800   0.02800   0.01267  Uiso   1.00
C36    C     0.36560   0.64860   0.03740   0.01267  Uiso   1.00
C37    C     0.27130   0.67260   0.07850   0.01267  Uiso   1.00
C38    C     0.22860   0.79660   0.16700   0.01267  Uiso   1.00
C39    C     0.31130   0.92160   0.18680   0.01267  Uiso   1.00
C40    C     0.23870   0.93680   0.24470   0.01267  Uiso   1.00
C41    C     0.87920   0.58920   0.15190   0.01267  Uiso   1.00
C42    C     0.87620   0.63780   0.09390   0.01267  Uiso   1.00
C43    C     0.84130   0.78140   0.05070   0.01267  Uiso   1.00
C44    C     0.96120   0.88580   0.05070   0.01267  Uiso   1.00
C45    C     0.94570   0.94500   0.99840   0.01267  Uiso   1.00
C46    C     0.71570   0.62740   0.38370   0.01267  Uiso   1.00
C47    C     0.62000   0.66900   0.40510   0.01267  Uiso   1.00
C48    C     0.53210   0.80520   0.39950   0.01267  Uiso   1.00
C49    C     0.57410   0.89700   0.46130   0.01267  Uiso   1.00
C50    C     0.47830   0.95200   0.47200   0.01267  Uiso   1.00
C51    C     0.71700   0.35140   0.46260   0.01267  Uiso   1.00
C52    C     0.59870   0.32740   0.42150   0.01267  Uiso   1.00
C53    C     0.43200   0.20340   0.33300   0.01267  Uiso   1.00
C54    C     0.38970   0.07840   0.31320   0.01267  Uiso   1.00
C55    C     0.30190   0.06320   0.25530   0.01267  Uiso   1.00
C56    C     0.29000   0.41080   0.34810   0.01267  Uiso   1.00
C57    C     0.23840   0.36220   0.40610   0.01267  Uiso   1.00
C58    C     0.05990   0.21860   0.44930   0.01267  Uiso   1.00
C59    C     0.07540   0.11420   0.44930   0.01267  Uiso   1.00
C60    C     0.00070   0.05500   0.50160   0.01267  Uiso   1.00
N1     N     0.13360   0.75800   0.88510   0.01267  Uiso   1.00
N2     N     0.68280   0.23100   0.87560   0.01267  Uiso   1.00
N3     N     0.14880   0.27320   0.89800   0.01267  Uiso   1.00
N4     N     0.37560   0.24200   0.61490   0.01267  Uiso   1.00
N5     N     0.45180   0.76900   0.62440   0.01267  Uiso   1.00
N6     N     0.87560   0.72680   0.60200   0.01267  Uiso   1.00
N7     N     0.86640   0.24200   0.11490   0.01267  Uiso   1.00
N8     N     0.31720   0.76900   0.12440   0.01267  Uiso   1.00
N9     N     0.85120   0.72680   0.10200   0.01267  Uiso   1.00
N10    N     0.62440   0.75800   0.38510   0.01267  Uiso   1.00
N11    N     0.54820   0.23100   0.37560   0.01267  Uiso   1.00
N12    N     0.12440   0.27320   0.39800   0.01267  Uiso   1.00
O1     O     0.09020   0.62320   0.94030   0.01267  Uiso   1.00
O2     O     0.84730   0.38760   0.92550   0.01267  Uiso   1.00
O3     O     0.10750   0.40680   0.96050   0.01267  Uiso   1.00
O4     O     0.46700   0.37680   0.55970   0.01267  Uiso   1.00
O5     O     0.45970   0.61240   0.57450   0.01267  Uiso   1.00
O6     O     0.70070   0.59320   0.53950   0.01267  Uiso   1.00
O7     O     0.90980   0.37680   0.05970   0.01267  Uiso   1.00
O8     O     0.15270   0.61240   0.07450   0.01267  Uiso   1.00
O9     O     0.89250   0.59320   0.03950   0.01267  Uiso   1.00
O10    O     0.53300   0.62320   0.44030   0.01267  Uiso   1.00
O11    O     0.54030   0.38760   0.42550   0.01267  Uiso   1.00
O12    O     0.29930   0.40680   0.46050   0.01267  Uiso   1.00
