data_FEWGUL_clean
_audit_creation_date              2014-07-02
_audit_creation_method            'Materials Studio'
_symmetry_space_group_name_H-M    'P1'
_symmetry_Int_Tables_number       1
_symmetry_cell_setting            triclinic
loop_
_symmetry_equiv_pos_as_xyz
  x,y,z
_cell_length_a                    5.1474
_cell_length_b                    18.2320
_cell_length_c                    26.7830
_cell_angle_alpha                 90.0000
_cell_angle_beta                  90.0800
_cell_angle_gamma                 90.0000
loop_
_atom_site_label
_atom_site_type_symbol
_atom_site_fract_x
_atom_site_fract_y
_atom_site_fract_z
_atom_site_U_iso_or_equiv
_atom_site_adp_type
_atom_site_occupancy
La1    La    0.85220   0.89441   0.52222   0.01267  Uiso   1.00
La2    La    0.14780   0.39441   0.97778   0.01267  Uiso   1.00
La3    La    0.14780   0.10559   0.47778   0.01267  Uiso   1.00
La4    La    0.85220   0.60559   0.02222   0.01267  Uiso   1.00
H1     H     0.69390   0.67630   0.50520   0.01267  Uiso   1.00
H2     H     0.47960   0.51440   0.41320   0.01267  Uiso   1.00
H3     H     0.11910   0.58370   0.38470   0.01267  Uiso   1.00
H4     H     0.07940   0.70530   0.41530   0.01267  Uiso   1.00
H5     H     0.03370   0.84050   0.66410   0.01267  Uiso   1.00
H6     H     0.28490   0.88250   0.80440   0.01267  Uiso   1.00
H7     H     0.61740   0.95640   0.77060   0.01267  Uiso   1.00
H8     H     0.64730   0.96620   0.68430   0.01267  Uiso   1.00
H9     H     0.57620   0.66400   0.88660   0.01267  Uiso   1.00
H10    H     0.17360   0.65770   0.75800   0.01267  Uiso   1.00
H11    H     0.87740   0.57070   0.79260   0.01267  Uiso   1.00
H12    H     0.94440   0.53580   0.87770   0.01267  Uiso   1.00
H13    H     0.30610   0.17630   0.99480   0.01267  Uiso   1.00
H14    H     0.52040   0.01440   0.08680   0.01267  Uiso   1.00
H15    H     0.88090   0.08370   0.11530   0.01267  Uiso   1.00
H16    H     0.92060   0.20530   0.08470   0.01267  Uiso   1.00
H17    H     0.96630   0.34050   0.83590   0.01267  Uiso   1.00
H18    H     0.71510   0.38250   0.69560   0.01267  Uiso   1.00
H19    H     0.38260   0.45640   0.72940   0.01267  Uiso   1.00
H20    H     0.35270   0.46620   0.81570   0.01267  Uiso   1.00
H21    H     0.42380   0.16400   0.61340   0.01267  Uiso   1.00
H22    H     0.82640   0.15770   0.74200   0.01267  Uiso   1.00
H23    H     0.12260   0.07070   0.70740   0.01267  Uiso   1.00
H24    H     0.05560   0.03580   0.62230   0.01267  Uiso   1.00
H25    H     0.30610   0.32370   0.49480   0.01267  Uiso   1.00
H26    H     0.52040   0.48560   0.58680   0.01267  Uiso   1.00
H27    H     0.88090   0.41630   0.61530   0.01267  Uiso   1.00
H28    H     0.92060   0.29470   0.58470   0.01267  Uiso   1.00
H29    H     0.96630   0.15950   0.33590   0.01267  Uiso   1.00
H30    H     0.71510   0.11750   0.19560   0.01267  Uiso   1.00
H31    H     0.38260   0.04360   0.22940   0.01267  Uiso   1.00
H32    H     0.35270   0.03380   0.31570   0.01267  Uiso   1.00
H33    H     0.42380   0.33600   0.11340   0.01267  Uiso   1.00
H34    H     0.82640   0.34230   0.24200   0.01267  Uiso   1.00
H35    H     0.12260   0.42930   0.20740   0.01267  Uiso   1.00
H36    H     0.05560   0.46420   0.12230   0.01267  Uiso   1.00
H37    H     0.69390   0.82370   0.00520   0.01267  Uiso   1.00
H38    H     0.47960   0.98560   0.91320   0.01267  Uiso   1.00
H39    H     0.11910   0.91630   0.88470   0.01267  Uiso   1.00
H40    H     0.07940   0.79470   0.91530   0.01267  Uiso   1.00
H41    H     0.03370   0.65950   0.16410   0.01267  Uiso   1.00
H42    H     0.28490   0.61750   0.30440   0.01267  Uiso   1.00
H43    H     0.61740   0.54360   0.27060   0.01267  Uiso   1.00
H44    H     0.64730   0.53380   0.18430   0.01267  Uiso   1.00
H45    H     0.57620   0.83600   0.38660   0.01267  Uiso   1.00
H46    H     0.17360   0.84230   0.25800   0.01267  Uiso   1.00
H47    H     0.87740   0.92930   0.29260   0.01267  Uiso   1.00
H48    H     0.94440   0.96420   0.37770   0.01267  Uiso   1.00
C1     C     0.32200   0.77560   0.48620   0.01267  Uiso   1.00
C2     C     0.37800   0.70330   0.46200   0.01267  Uiso   1.00
C3     C     0.57800   0.65850   0.48050   0.01267  Uiso   1.00
C4     C     0.60300   0.58790   0.46210   0.01267  Uiso   1.00
C5     C     0.44800   0.56180   0.42650   0.01267  Uiso   1.00
C6     C     0.23900   0.60290   0.40840   0.01267  Uiso   1.00
C7     C     0.21600   0.67520   0.42750   0.01267  Uiso   1.00
C8     C     0.82300   0.54200   0.48240   0.01267  Uiso   1.00
C9     C     0.39400   0.90840   0.61020   0.01267  Uiso   1.00
C10    C     0.33700   0.90010   0.66670   0.01267  Uiso   1.00
C11    C     0.15200   0.86400   0.68600   0.01267  Uiso   1.00
C12    C     0.11000   0.85650   0.73730   0.01267  Uiso   1.00
C13    C     0.29700   0.88940   0.76930   0.01267  Uiso   1.00
C14    C     0.49700   0.93190   0.74950   0.01267  Uiso   1.00
C15    C     0.51400   0.93710   0.69860   0.01267  Uiso   1.00
C16    C     0.91700   0.80850   0.75850   0.01267  Uiso   1.00
C17    C     0.58100   0.72080   0.79570   0.01267  Uiso   1.00
C18    C     0.33800   0.56280   0.94160   0.01267  Uiso   1.00
C19    C     0.27900   0.59300   0.88820   0.01267  Uiso   1.00
C20    C     0.43800   0.64380   0.86740   0.01267  Uiso   1.00
C21    C     0.40100   0.66700   0.81770   0.01267  Uiso   1.00
C22    C     0.19800   0.64110   0.79130   0.01267  Uiso   1.00
C23    C     0.01900   0.58950   0.81150   0.01267  Uiso   1.00
C24    C     0.06400   0.56790   0.86180   0.01267  Uiso   1.00
C25    C     0.67800   0.27560   0.01380   0.01267  Uiso   1.00
C26    C     0.62200   0.20330   0.03800   0.01267  Uiso   1.00
C27    C     0.42200   0.15850   0.01950   0.01267  Uiso   1.00
C28    C     0.39700   0.08790   0.03790   0.01267  Uiso   1.00
C29    C     0.55200   0.06180   0.07350   0.01267  Uiso   1.00
C30    C     0.76100   0.10290   0.09160   0.01267  Uiso   1.00
C31    C     0.78400   0.17520   0.07250   0.01267  Uiso   1.00
C32    C     0.17700   0.04200   0.01760   0.01267  Uiso   1.00
C33    C     0.60600   0.40840   0.88980   0.01267  Uiso   1.00
C34    C     0.66300   0.40010   0.83330   0.01267  Uiso   1.00
C35    C     0.84800   0.36400   0.81400   0.01267  Uiso   1.00
C36    C     0.89000   0.35650   0.76270   0.01267  Uiso   1.00
C37    C     0.70300   0.38940   0.73070   0.01267  Uiso   1.00
C38    C     0.50300   0.43190   0.75050   0.01267  Uiso   1.00
C39    C     0.48600   0.43710   0.80140   0.01267  Uiso   1.00
C40    C     0.08300   0.30850   0.74150   0.01267  Uiso   1.00
C41    C     0.41900   0.22080   0.70430   0.01267  Uiso   1.00
C42    C     0.66200   0.06280   0.55840   0.01267  Uiso   1.00
C43    C     0.72100   0.09300   0.61180   0.01267  Uiso   1.00
C44    C     0.56200   0.14380   0.63260   0.01267  Uiso   1.00
C45    C     0.59900   0.16700   0.68230   0.01267  Uiso   1.00
C46    C     0.80200   0.14110   0.70870   0.01267  Uiso   1.00
C47    C     0.98100   0.08950   0.68850   0.01267  Uiso   1.00
C48    C     0.93600   0.06790   0.63820   0.01267  Uiso   1.00
C49    C     0.67800   0.22440   0.51380   0.01267  Uiso   1.00
C50    C     0.62200   0.29670   0.53800   0.01267  Uiso   1.00
C51    C     0.42200   0.34150   0.51950   0.01267  Uiso   1.00
C52    C     0.39700   0.41210   0.53790   0.01267  Uiso   1.00
C53    C     0.55200   0.43820   0.57350   0.01267  Uiso   1.00
C54    C     0.76100   0.39710   0.59160   0.01267  Uiso   1.00
C55    C     0.78400   0.32480   0.57250   0.01267  Uiso   1.00
C56    C     0.17700   0.45800   0.51760   0.01267  Uiso   1.00
C57    C     0.60600   0.09160   0.38980   0.01267  Uiso   1.00
C58    C     0.66300   0.09990   0.33330   0.01267  Uiso   1.00
C59    C     0.84800   0.13600   0.31400   0.01267  Uiso   1.00
C60    C     0.89000   0.14350   0.26270   0.01267  Uiso   1.00
C61    C     0.70300   0.11060   0.23070   0.01267  Uiso   1.00
C62    C     0.50300   0.06810   0.25050   0.01267  Uiso   1.00
C63    C     0.48600   0.06290   0.30140   0.01267  Uiso   1.00
C64    C     0.08300   0.19150   0.24150   0.01267  Uiso   1.00
C65    C     0.41900   0.27920   0.20430   0.01267  Uiso   1.00
C66    C     0.66200   0.43720   0.05840   0.01267  Uiso   1.00
C67    C     0.72100   0.40700   0.11180   0.01267  Uiso   1.00
C68    C     0.56200   0.35620   0.13260   0.01267  Uiso   1.00
C69    C     0.59900   0.33300   0.18230   0.01267  Uiso   1.00
C70    C     0.80200   0.35890   0.20870   0.01267  Uiso   1.00
C71    C     0.98100   0.41050   0.18850   0.01267  Uiso   1.00
C72    C     0.93600   0.43210   0.13820   0.01267  Uiso   1.00
C73    C     0.32200   0.72440   0.98620   0.01267  Uiso   1.00
C74    C     0.37800   0.79670   0.96200   0.01267  Uiso   1.00
C75    C     0.57800   0.84150   0.98050   0.01267  Uiso   1.00
C76    C     0.60300   0.91210   0.96210   0.01267  Uiso   1.00
C77    C     0.44800   0.93820   0.92650   0.01267  Uiso   1.00
C78    C     0.23900   0.89710   0.90840   0.01267  Uiso   1.00
C79    C     0.21600   0.82480   0.92750   0.01267  Uiso   1.00
C80    C     0.82300   0.95800   0.98240   0.01267  Uiso   1.00
C81    C     0.39400   0.59160   0.11020   0.01267  Uiso   1.00
C82    C     0.33700   0.59990   0.16670   0.01267  Uiso   1.00
C83    C     0.15200   0.63600   0.18600   0.01267  Uiso   1.00
C84    C     0.11000   0.64350   0.23730   0.01267  Uiso   1.00
C85    C     0.29700   0.61060   0.26930   0.01267  Uiso   1.00
C86    C     0.49700   0.56810   0.24950   0.01267  Uiso   1.00
C87    C     0.51400   0.56290   0.19860   0.01267  Uiso   1.00
C88    C     0.91700   0.69150   0.25850   0.01267  Uiso   1.00
C89    C     0.58100   0.77920   0.29570   0.01267  Uiso   1.00
C90    C     0.33800   0.93720   0.44160   0.01267  Uiso   1.00
C91    C     0.27900   0.90700   0.38820   0.01267  Uiso   1.00
C92    C     0.43800   0.85620   0.36740   0.01267  Uiso   1.00
C93    C     0.40100   0.83300   0.31770   0.01267  Uiso   1.00
C94    C     0.19800   0.85890   0.29130   0.01267  Uiso   1.00
C95    C     0.01900   0.91050   0.31150   0.01267  Uiso   1.00
C96    C     0.06400   0.93210   0.36180   0.01267  Uiso   1.00
N1     N     0.85300   0.47680   0.46030   0.01267  Uiso   1.00
N2     N     0.95900   0.56490   0.52090   0.01267  Uiso   1.00
N3     N     0.76600   0.76890   0.72880   0.01267  Uiso   1.00
N4     N     0.58700   0.72190   0.74640   0.01267  Uiso   1.00
N5     N     0.72400   0.76350   0.82700   0.01267  Uiso   1.00
N6     N     0.88600   0.80790   0.80750   0.01267  Uiso   1.00
N7     N     0.14700   0.97680   0.03970   0.01267  Uiso   1.00
N8     N     0.04100   0.06490   0.97910   0.01267  Uiso   1.00
N9     N     0.23400   0.26890   0.77120   0.01267  Uiso   1.00
N10    N     0.41300   0.22190   0.75360   0.01267  Uiso   1.00
N11    N     0.27600   0.26350   0.67300   0.01267  Uiso   1.00
N12    N     0.11400   0.30790   0.69250   0.01267  Uiso   1.00
N13    N     0.14700   0.52320   0.53970   0.01267  Uiso   1.00
N14    N     0.04100   0.43510   0.47910   0.01267  Uiso   1.00
N15    N     0.23400   0.23110   0.27120   0.01267  Uiso   1.00
N16    N     0.41300   0.27810   0.25360   0.01267  Uiso   1.00
N17    N     0.27600   0.23650   0.17300   0.01267  Uiso   1.00
N18    N     0.11400   0.19210   0.19250   0.01267  Uiso   1.00
N19    N     0.85300   0.02320   0.96030   0.01267  Uiso   1.00
N20    N     0.95900   0.93510   0.02090   0.01267  Uiso   1.00
N21    N     0.76600   0.73110   0.22880   0.01267  Uiso   1.00
N22    N     0.58700   0.77810   0.24640   0.01267  Uiso   1.00
N23    N     0.72400   0.73650   0.32700   0.01267  Uiso   1.00
N24    N     0.88600   0.69210   0.30750   0.01267  Uiso   1.00
O1     O     0.51300   0.80110   0.51100   0.01267  Uiso   1.00
O2     O     0.12000   0.80660   0.47780   0.01267  Uiso   1.00
O3     O     0.61200   0.91490   0.59840   0.01267  Uiso   1.00
O4     O     0.18900   0.90400   0.58360   0.01267  Uiso   1.00
O5     O     0.55900   0.56660   0.95520   0.01267  Uiso   1.00
O6     O     0.14600   0.53340   0.96300   0.01267  Uiso   1.00
O7     O     0.48700   0.30110   0.98900   0.01267  Uiso   1.00
O8     O     0.88000   0.30660   0.02220   0.01267  Uiso   1.00
O9     O     0.38800   0.41490   0.90160   0.01267  Uiso   1.00
O10    O     0.81100   0.40400   0.91640   0.01267  Uiso   1.00
O11    O     0.44100   0.06660   0.54480   0.01267  Uiso   1.00
O12    O     0.85400   0.03340   0.53700   0.01267  Uiso   1.00
O13    O     0.48700   0.19890   0.48900   0.01267  Uiso   1.00
O14    O     0.88000   0.19340   0.52220   0.01267  Uiso   1.00
O15    O     0.38800   0.08510   0.40160   0.01267  Uiso   1.00
O16    O     0.81100   0.09600   0.41640   0.01267  Uiso   1.00
O17    O     0.44100   0.43340   0.04480   0.01267  Uiso   1.00
O18    O     0.85400   0.46660   0.03700   0.01267  Uiso   1.00
O19    O     0.51300   0.69890   0.01100   0.01267  Uiso   1.00
O20    O     0.12000   0.69340   0.97780   0.01267  Uiso   1.00
O21    O     0.61200   0.58510   0.09840   0.01267  Uiso   1.00
O22    O     0.18900   0.59600   0.08360   0.01267  Uiso   1.00
O23    O     0.55900   0.93340   0.45520   0.01267  Uiso   1.00
O24    O     0.14600   0.96660   0.46300   0.01267  Uiso   1.00
