data_FEWQOP_clean
_audit_creation_date              2014-07-02
_audit_creation_method            'Materials Studio'
_symmetry_space_group_name_H-M    'P1'
_symmetry_Int_Tables_number       1
_symmetry_cell_setting            triclinic
loop_
_symmetry_equiv_pos_as_xyz
  x,y,z
_cell_length_a                    6.9997
_cell_length_b                    16.0597
_cell_length_c                    16.0597
_cell_angle_alpha                 62.0735
_cell_angle_beta                  81.6462
_cell_angle_gamma                 98.3538
loop_
_atom_site_label
_atom_site_type_symbol
_atom_site_fract_x
_atom_site_fract_y
_atom_site_fract_z
_atom_site_U_iso_or_equiv
_atom_site_adp_type
_atom_site_occupancy
Gd1    Gd    0.27787   0.91304   0.93372   0.01267  Uiso   1.00
Gd2    Gd    0.21159   0.93372   0.15324   0.01267  Uiso   1.00
Gd3    Gd    0.36483   0.15324   0.91304   0.01267  Uiso   1.00
Gd4    Gd    0.72213   0.08696   0.06628   0.01267  Uiso   1.00
Gd5    Gd    0.78841   0.06628   0.84676   0.01267  Uiso   1.00
Gd6    Gd    0.63517   0.84676   0.08696   0.01267  Uiso   1.00
Cu1    Cu    0.00000   0.50000   0.00000   0.01267  Uiso   1.00
Cu2    Cu    0.00000   0.00000   0.50000   0.01267  Uiso   1.00
Cu3    Cu    0.50000   0.50000   0.50000   0.01267  Uiso   1.00
H1     H     0.56580   0.48830   0.08900   0.01267  Uiso   1.00
H2     H     0.41740   0.59340   0.11970   0.01267  Uiso   1.00
H3     H     0.65480   0.08900   0.42270   0.01267  Uiso   1.00
H4     H     0.53710   0.11970   0.28690   0.01267  Uiso   1.00
H5     H     0.07750   0.42270   0.48830   0.01267  Uiso   1.00
H6     H     0.82400   0.28690   0.59340   0.01267  Uiso   1.00
H7     H     0.43420   0.51170   0.91100   0.01267  Uiso   1.00
H8     H     0.58260   0.40660   0.88030   0.01267  Uiso   1.00
H9     H     0.34520   0.91100   0.57730   0.01267  Uiso   1.00
H10    H     0.46290   0.88030   0.71310   0.01267  Uiso   1.00
H11    H     0.92250   0.57730   0.51170   0.01267  Uiso   1.00
H12    H     0.17600   0.71310   0.40660   0.01267  Uiso   1.00
C1     C     0.94610   0.66160   0.01090   0.01267  Uiso   1.00
C2     C     0.64130   0.54850   0.07360   0.01267  Uiso   1.00
C3     C     0.16260   0.67990   0.96620   0.01267  Uiso   1.00
C4     C     0.55330   0.61180   0.09160   0.01267  Uiso   1.00
C5     C     0.85430   0.72780   0.02700   0.01267  Uiso   1.00
C6     C     0.95700   0.01090   0.32750   0.01267  Uiso   1.00
C7     C     0.71490   0.07360   0.37790   0.01267  Uiso   1.00
C8     C     0.12880   0.96620   0.35390   0.01267  Uiso   1.00
C9     C     0.64490   0.09160   0.29660   0.01267  Uiso   1.00
C10    C     0.88130   0.02700   0.24520   0.01267  Uiso   1.00
C11    C     0.28450   0.32750   0.66160   0.01267  Uiso   1.00
C12    C     0.09280   0.37790   0.54850   0.01267  Uiso   1.00
C13    C     0.48270   0.35390   0.67990   0.01267  Uiso   1.00
C14    C     0.94150   0.29660   0.61180   0.01267  Uiso   1.00
C15    C     0.12650   0.24520   0.72780   0.01267  Uiso   1.00
C16    C     0.05390   0.33840   0.98910   0.01267  Uiso   1.00
C17    C     0.35870   0.45150   0.92640   0.01267  Uiso   1.00
C18    C     0.83740   0.32010   0.03380   0.01267  Uiso   1.00
C19    C     0.44670   0.38820   0.90840   0.01267  Uiso   1.00
C20    C     0.14570   0.27220   0.97300   0.01267  Uiso   1.00
C21    C     0.04300   0.98910   0.67250   0.01267  Uiso   1.00
C22    C     0.28510   0.92640   0.62210   0.01267  Uiso   1.00
C23    C     0.87120   0.03380   0.64610   0.01267  Uiso   1.00
C24    C     0.35510   0.90840   0.70340   0.01267  Uiso   1.00
C25    C     0.11870   0.97300   0.75480   0.01267  Uiso   1.00
C26    C     0.71550   0.67250   0.33840   0.01267  Uiso   1.00
C27    C     0.90720   0.62210   0.45150   0.01267  Uiso   1.00
C28    C     0.51730   0.64610   0.32010   0.01267  Uiso   1.00
C29    C     0.05850   0.70340   0.38820   0.01267  Uiso   1.00
C30    C     0.87350   0.75480   0.27220   0.01267  Uiso   1.00
N1     N     0.83670   0.57470   0.03380   0.01267  Uiso   1.00
N2     N     0.65680   0.69730   0.07000   0.01267  Uiso   1.00
N3     N     0.87050   0.03380   0.39150   0.01267  Uiso   1.00
N4     N     0.72680   0.07000   0.23270   0.01267  Uiso   1.00
N5     N     0.26200   0.39150   0.57470   0.01267  Uiso   1.00
N6     N     0.95950   0.23270   0.69730   0.01267  Uiso   1.00
N7     N     0.16330   0.42530   0.96620   0.01267  Uiso   1.00
N8     N     0.34320   0.30270   0.93000   0.01267  Uiso   1.00
N9     N     0.12950   0.96620   0.60850   0.01267  Uiso   1.00
N10    N     0.27320   0.93000   0.76730   0.01267  Uiso   1.00
N11    N     0.73800   0.60850   0.42530   0.01267  Uiso   1.00
N12    N     0.04050   0.76730   0.30270   0.01267  Uiso   1.00
O1     O     0.94290   0.81260   0.00620   0.01267  Uiso   1.00
O2     O     0.27920   0.75660   0.94450   0.01267  Uiso   1.00
O3     O     0.21530   0.61330   0.95480   0.01267  Uiso   1.00
O4     O     0.29190   0.82200   0.09840   0.01267  Uiso   1.00
O5     O     0.94910   0.00620   0.18120   0.01267  Uiso   1.00
O6     O     0.22370   0.94450   0.29890   0.01267  Uiso   1.00
O7     O     0.17010   0.95480   0.43190   0.01267  Uiso   1.00
O8     O     0.39030   0.09840   0.07960   0.01267  Uiso   1.00
O9     O     0.13030   0.18120   0.81260   0.01267  Uiso   1.00
O10    O     0.52260   0.29890   0.75660   0.01267  Uiso   1.00
O11    O     0.60200   0.43190   0.61330   0.01267  Uiso   1.00
O12    O     0.46990   0.07960   0.82200   0.01267  Uiso   1.00
O13    O     0.05710   0.18740   0.99380   0.01267  Uiso   1.00
O14    O     0.72080   0.24340   0.05550   0.01267  Uiso   1.00
O15    O     0.78470   0.38670   0.04520   0.01267  Uiso   1.00
O16    O     0.70810   0.17800   0.90160   0.01267  Uiso   1.00
O17    O     0.05090   0.99380   0.81880   0.01267  Uiso   1.00
O18    O     0.77630   0.05550   0.70110   0.01267  Uiso   1.00
O19    O     0.82990   0.04520   0.56810   0.01267  Uiso   1.00
O20    O     0.60970   0.90160   0.92040   0.01267  Uiso   1.00
O21    O     0.86970   0.81880   0.18740   0.01267  Uiso   1.00
O22    O     0.47740   0.70110   0.24340   0.01267  Uiso   1.00
O23    O     0.39800   0.56810   0.38670   0.01267  Uiso   1.00
O24    O     0.53010   0.92040   0.17800   0.01267  Uiso   1.00
O25    O     0.50000   0.00000  -0.00000   0.01267  Uiso   1.00
O26    O     0.17533   0.00000  -0.00000   0.01267  Uiso   1.00
O27    O     0.82467   0.00000  -0.00000   0.01267  Uiso   1.00
