data_image0
_cell_length_a       7.3181
_cell_length_b       17.02
_cell_length_c       10.5789
_cell_angle_alpha    90
_cell_angle_beta     102.651
_cell_angle_gamma    90

_symmetry_space_group_name_H-M    "P 1"
_symmetry_int_tables_number       1

loop_
  _symmetry_equiv_pos_as_xyz
  'x, y, z'

loop_
  _atom_site_label
  _atom_site_occupancy
  _atom_site_fract_x
  _atom_site_fract_y
  _atom_site_fract_z
  _atom_site_thermal_displace_type
  _atom_site_B_iso_or_equiv
  _atom_site_type_symbol
  In1      1.0000 0.69333  0.39814  0.18043  Biso   1.000  In
  In2      1.0000 0.20093  0.45343  0.26209  Biso   1.000  In
  O1       1.0000 0.66910  0.53670  0.08180  Biso   1.000  O
  O2       1.0000 0.58600  0.42520  0.98040  Biso   1.000  O
  O3       1.0000 0.46200  0.78750  0.87350  Biso   1.000  O
  O4       1.0000 0.28250  0.78920  0.67900  Biso   1.000  O
  O5       1.0000 0.29720  0.43330  0.50110  Biso   1.000  O
  O6       1.0000 0.25410  0.54960  0.40960  Biso   1.000  O
  O7       1.0000 0.85550  0.06730  0.85730  Biso   1.000  O
  O8       1.0000 0.88890  0.95720  0.96520  Biso   1.000  O
  O9       1.0000 0.91600  0.32040  0.11270  Biso   1.000  O
  O10      1.0000 0.19320  0.32850  0.25910  Biso   1.000  O
  O11      1.0000 0.30000  0.06940  0.53210  Biso   1.000  O
  O12      1.0000 0.11670  0.97130  0.45020  Biso   1.000  O
  O13      1.0000 0.91970  0.45020  0.29060  Biso   1.000  O
  O14      1.0000 0.49560  0.45100  0.26720  Biso   1.000  O
  C1       1.0000 0.51220  0.54460  0.86500  Biso   1.000  C
  C2       1.0000 0.49600  0.62410  0.86920  Biso   1.000  C
  H1       1.0000 0.53840  0.65030  0.94720  Biso   1.000  H
  C3       1.0000 0.41700  0.66660  0.75900  Biso   1.000  C
  C4       1.0000 0.34300  0.62690  0.64290  Biso   1.000  C
  H2       1.0000 0.28130  0.65500  0.57060  Biso   1.000  H
  C5       1.0000 0.36100  0.54650  0.63530  Biso   1.000  C
  C6       1.0000 0.44620  0.50570  0.74740  Biso   1.000  C
  H3       1.0000 0.45940  0.45150  0.74370  Biso   1.000  H
  C7       1.0000 0.59800  0.50120  0.98420  Biso   1.000  C
  C8       1.0000 0.39000  0.75190  0.77220  Biso   1.000  C
  C9       1.0000 0.29900  0.50620  0.50610  Biso   1.000  C
  C10      1.0000 0.97570  0.07720  0.08530  Biso   1.000  C
  C11      1.0000 0.98100  0.15800  0.08390  Biso   1.000  C
  H4       1.0000 0.93010  0.18440  0.00730  Biso   1.000  H
  C12      1.0000 0.05900  0.20080  0.19250  Biso   1.000  C
  C13      1.0000 0.13330  0.16070  0.30710  Biso   1.000  C
  H5       1.0000 0.19330  0.18830  0.38040  Biso   1.000  H
  C14      1.0000 0.11750  0.07920  0.31150  Biso   1.000  C
  C15      1.0000 0.04700  0.03730  0.20340  Biso   1.000  C
  H6       1.0000 0.04590  0.98270  0.20630  Biso   1.000  H
  C16      1.0000 0.90200  0.02950  0.96490  Biso   1.000  C
  C17      1.0000 0.05600  0.28930  0.18900  Biso   1.000  C
  C18      1.0000 0.18400  0.03780  0.43880  Biso   1.000  C
  In3      1.0000 0.30667  0.89814  0.81957  Biso   1.000  In
  In4      1.0000 0.79907  0.95343  0.73791  Biso   1.000  In
  O15      1.0000 0.33090  0.03670  0.91820  Biso   1.000  O
  O16      1.0000 0.41400  0.92520  0.01960  Biso   1.000  O
  O17      1.0000 0.53800  0.28750  0.12650  Biso   1.000  O
  O18      1.0000 0.71750  0.28920  0.32100  Biso   1.000  O
  O19      1.0000 0.70280  0.93330  0.49890  Biso   1.000  O
  O20      1.0000 0.74590  0.04960  0.59040  Biso   1.000  O
  O21      1.0000 0.14450  0.56730  0.14270  Biso   1.000  O
  O22      1.0000 0.11110  0.45720  0.03480  Biso   1.000  O
  O23      1.0000 0.08400  0.82040  0.88730  Biso   1.000  O
  O24      1.0000 0.80680  0.82850  0.74090  Biso   1.000  O
  O25      1.0000 0.70000  0.56940  0.46790  Biso   1.000  O
  O26      1.0000 0.88330  0.47130  0.54980  Biso   1.000  O
  O27      1.0000 0.08030  0.95020  0.70940  Biso   1.000  O
  O28      1.0000 0.50440  0.95100  0.73280  Biso   1.000  O
  C19      1.0000 0.48780  0.04460  0.13500  Biso   1.000  C
  C20      1.0000 0.50400  0.12410  0.13080  Biso   1.000  C
  H7       1.0000 0.46160  0.15030  0.05280  Biso   1.000  H
  C21      1.0000 0.58300  0.16660  0.24100  Biso   1.000  C
  C22      1.0000 0.65700  0.12690  0.35710  Biso   1.000  C
  H8       1.0000 0.71870  0.15500  0.42940  Biso   1.000  H
  C23      1.0000 0.63900  0.04650  0.36470  Biso   1.000  C
  C24      1.0000 0.55380  0.00570  0.25260  Biso   1.000  C
  H9       1.0000 0.54060  0.95150  0.25630  Biso   1.000  H
  C25      1.0000 0.40200  0.00120  0.01580  Biso   1.000  C
  C26      1.0000 0.61000  0.25190  0.22780  Biso   1.000  C
  C27      1.0000 0.70100  0.00620  0.49390  Biso   1.000  C
  C28      1.0000 0.02430  0.57720  0.91470  Biso   1.000  C
  C29      1.0000 0.01900  0.65800  0.91610  Biso   1.000  C
  H10      1.0000 0.06990  0.68440  0.99270  Biso   1.000  H
  C30      1.0000 0.94100  0.70080  0.80750  Biso   1.000  C
  C31      1.0000 0.86670  0.66070  0.69290  Biso   1.000  C
  H11      1.0000 0.80670  0.68830  0.61960  Biso   1.000  H
  C32      1.0000 0.88250  0.57920  0.68850  Biso   1.000  C
  C33      1.0000 0.95300  0.53730  0.79660  Biso   1.000  C
  H12      1.0000 0.95410  0.48270  0.79370  Biso   1.000  H
  C34      1.0000 0.09800  0.52950  0.03510  Biso   1.000  C
  C35      1.0000 0.94400  0.78930  0.81100  Biso   1.000  C
  C36      1.0000 0.81600  0.53780  0.56120  Biso   1.000  C
