data_FEYQIK_clean
_audit_creation_date              2014-07-02
_audit_creation_method            'Materials Studio'
_symmetry_space_group_name_H-M    'P1'
_symmetry_Int_Tables_number       1
_symmetry_cell_setting            triclinic
loop_
_symmetry_equiv_pos_as_xyz
  x,y,z
_cell_length_a                    8.6550
_cell_length_b                    9.9366
_cell_length_c                    11.7170
_cell_angle_alpha                 74.7100
_cell_angle_beta                  69.7950
_cell_angle_gamma                 85.9590
loop_
_atom_site_label
_atom_site_type_symbol
_atom_site_fract_x
_atom_site_fract_y
_atom_site_fract_z
_atom_site_U_iso_or_equiv
_atom_site_adp_type
_atom_site_occupancy
Pr1    Pr    0.74555   0.97761   0.01192   0.01267  Uiso   1.00
Pr2    Pr    0.25445   0.02239   0.98808   0.01267  Uiso   1.00
H1     H     0.26560   0.97540   0.67210   0.01267  Uiso   1.00
H2     H     0.24580   0.81350   0.72540   0.01267  Uiso   1.00
H3     H     0.09510   0.79840   0.60280   0.01267  Uiso   1.00
H4     H     0.08570   0.96140   0.56040   0.01267  Uiso   1.00
H5     H     0.37420   0.97290   0.45710   0.01267  Uiso   1.00
H6     H     0.37620   0.80960   0.49340   0.01267  Uiso   1.00
H7     H     0.20450   0.95950   0.33650   0.01267  Uiso   1.00
H8     H     0.23380   0.79870   0.36240   0.01267  Uiso   1.00
H9     H     0.75490   0.48330   0.21830   0.01267  Uiso   1.00
H10    H     0.72090   0.46960   0.09880   0.01267  Uiso   1.00
H11    H     0.03490   0.52250   0.10270   0.01267  Uiso   1.00
H12    H     0.97670   0.37820   0.09940   0.01267  Uiso   1.00
H13    H     0.73440   0.02460   0.32790   0.01267  Uiso   1.00
H14    H     0.75420   0.18650   0.27460   0.01267  Uiso   1.00
H15    H     0.90490   0.20160   0.39720   0.01267  Uiso   1.00
H16    H     0.91430   0.03860   0.43960   0.01267  Uiso   1.00
H17    H     0.62580   0.02710   0.54290   0.01267  Uiso   1.00
H18    H     0.62380   0.19040   0.50660   0.01267  Uiso   1.00
H19    H     0.79550   0.04050   0.66350   0.01267  Uiso   1.00
H20    H     0.76620   0.20130   0.63760   0.01267  Uiso   1.00
H21    H     0.24510   0.51670   0.78170   0.01267  Uiso   1.00
H22    H     0.27910   0.53040   0.90120   0.01267  Uiso   1.00
H23    H     0.96510   0.47750   0.89730   0.01267  Uiso   1.00
H24    H     0.02330   0.62180   0.90060   0.01267  Uiso   1.00
C1     C     0.04460   0.91560   0.80680   0.01267  Uiso   1.00
C2     C     0.18990   0.89700   0.69720   0.01267  Uiso   1.00
C3     C     0.15500   0.88530   0.58290   0.01267  Uiso   1.00
C4     C     0.31090   0.88940   0.47200   0.01267  Uiso   1.00
C5     C     0.28290   0.88820   0.35120   0.01267  Uiso   1.00
C6     C     0.56440   0.08730   0.76330   0.01267  Uiso   1.00
C7     C     0.76220   0.67150   0.09280   0.01267  Uiso   1.00
C8     C     0.78940   0.51660   0.12740   0.01267  Uiso   1.00
C9     C     0.96720   0.47840   0.07130   0.01267  Uiso   1.00
C10    C     0.95540   0.08440   0.19320   0.01267  Uiso   1.00
C11    C     0.81010   0.10300   0.30280   0.01267  Uiso   1.00
C12    C     0.84500   0.11470   0.41710   0.01267  Uiso   1.00
C13    C     0.68910   0.11060   0.52800   0.01267  Uiso   1.00
C14    C     0.71710   0.11180   0.64880   0.01267  Uiso   1.00
C15    C     0.43560   0.91270   0.23670   0.01267  Uiso   1.00
C16    C     0.23780   0.32850   0.90720   0.01267  Uiso   1.00
C17    C     0.21060   0.48340   0.87260   0.01267  Uiso   1.00
C18    C     0.03280   0.52160   0.92870   0.01267  Uiso   1.00
O1     O     0.57770   0.04480   0.87212   0.01267  Uiso   1.00
O2     O     0.57510   0.89270   0.24680   0.01267  Uiso   1.00
O3     O     0.86250   0.75300   0.09830   0.01267  Uiso   1.00
O4     O     0.64160   0.71860   0.05910   0.01267  Uiso   1.00
O5     O     0.90060   0.88360   0.81880   0.01267  Uiso   1.00
O6     O     0.06810   0.96470   0.88908   0.01267  Uiso   1.00
O7     O     0.42230   0.95520   0.12788   0.01267  Uiso   1.00
O8     O     0.42490   0.10730   0.75320   0.01267  Uiso   1.00
O9     O     0.13750   0.24700   0.90170   0.01267  Uiso   1.00
O10    O     0.35840   0.28140   0.94090   0.01267  Uiso   1.00
O11    O     0.09940   0.11640   0.18120   0.01267  Uiso   1.00
O12    O     0.93190   0.03530   0.11092   0.01267  Uiso   1.00
