data_FEZCOD_charged
_audit_creation_date              2014-07-02
_audit_creation_method            'Materials Studio'
_symmetry_space_group_name_H-M    'P1'
_symmetry_Int_Tables_number       1
_symmetry_cell_setting            triclinic
loop_
_symmetry_equiv_pos_as_xyz
  x,y,z
_cell_length_a                    15.1328
_cell_length_b                    15.7292
_cell_length_c                    27.2884
_cell_angle_alpha                 90.0000
_cell_angle_beta                  101.3980
_cell_angle_gamma                 90.0000
loop_
_atom_site_label
_atom_site_type_symbol
_atom_site_fract_x
_atom_site_fract_y
_atom_site_fract_z
_atom_site_U_iso_or_equiv
_atom_site_adp_type
_atom_site_occupancy
Eu1    Eu    0.21900   0.61652   0.62810   0.01267  Uiso   1.00
H1     H     0.27310   0.61320   0.76680   0.01267  Uiso   1.00
H2     H     0.45970   0.79280   0.79210   0.01267  Uiso   1.00
H3     H     0.46010   0.73310   0.74470   0.01267  Uiso   1.00
H4     H     0.38390   0.80420   0.74260   0.01267  Uiso   1.00
H5     H     0.41910   0.73790   0.85340   0.01267  Uiso   1.00
H6     H     0.31700   0.70610   0.84710   0.01267  Uiso   1.00
H7     H     0.39640   0.63850   0.84840   0.01267  Uiso   1.00
H8     H     0.13430   0.80620   0.66860   0.01267  Uiso   1.00
H9     H     0.21410   0.01220   0.69190   0.01267  Uiso   1.00
H10    H     0.11620   0.96990   0.67770   0.01267  Uiso   1.00
H11    H     0.18660   0.93720   0.72560   0.01267  Uiso   1.00
H12    H     0.30760   0.98030   0.64730   0.01267  Uiso   1.00
H13    H     0.34100   0.88360   0.64900   0.01267  Uiso   1.00
H14    H     0.27160   0.91830   0.60120   0.01267  Uiso   1.00
H15    H     0.45240   0.62790   0.67500   0.01267  Uiso   1.00
H16    H     0.64140   0.73630   0.65220   0.01267  Uiso   1.00
H17    H     0.59320   0.72710   0.69910   0.01267  Uiso   1.00
H18    H     0.62350   0.64400   0.67300   0.01267  Uiso   1.00
H19    H     0.56090   0.77330   0.58580   0.01267  Uiso   1.00
H20    H     0.48440   0.70890   0.55930   0.01267  Uiso   1.00
H21    H     0.45750   0.79140   0.58730   0.01267  Uiso   1.00
H22    H     0.18830   0.77420   0.53440   0.01267  Uiso   1.00
H23    H     0.28760   0.81830   0.43220   0.01267  Uiso   1.00
H24    H     0.19030   0.83580   0.44470   0.01267  Uiso   1.00
H25    H     0.27910   0.86580   0.48290   0.01267  Uiso   1.00
H26    H     0.33070   0.69160   0.43770   0.01267  Uiso   1.00
H27    H     0.35340   0.65030   0.49240   0.01267  Uiso   1.00
H28    H     0.26310   0.62410   0.45430   0.01267  Uiso   1.00
H29    H     0.32260   0.50750   0.54240   0.01267  Uiso   1.00
H30    H     0.50790   0.37200   0.55370   0.01267  Uiso   1.00
H31    H     0.42110   0.39130   0.51120   0.01267  Uiso   1.00
H32    H     0.48650   0.46730   0.53440   0.01267  Uiso   1.00
H33    H     0.48370   0.34140   0.62410   0.01267  Uiso   1.00
H34    H     0.44260   0.41380   0.65420   0.01267  Uiso   1.00
H35    H     0.37970   0.33810   0.62810   0.01267  Uiso   1.00
H36    H     0.28980   0.42880   0.69860   0.01267  Uiso   1.00
H37    H     0.07460   0.33180   0.73770   0.01267  Uiso   1.00
H38    H     0.08380   0.43320   0.73970   0.01267  Uiso   1.00
H39    H     0.05790   0.38570   0.68700   0.01267  Uiso   1.00
H40    H     0.19630   0.26330   0.75610   0.01267  Uiso   1.00
H41    H     0.26530   0.27050   0.71880   0.01267  Uiso   1.00
H42    H     0.28500   0.32040   0.77090   0.01267  Uiso   1.00
H43    H     0.13310   0.43220   0.57010   0.01267  Uiso   1.00
H44    H     0.86880   0.43600   0.54710   0.01267  Uiso   1.00
H45    H     0.91940   0.49660   0.59090   0.01267  Uiso   1.00
H46    H     0.91530   0.52200   0.53370   0.01267  Uiso   1.00
H47    H     0.92960   0.32480   0.53700   0.01267  Uiso   1.00
H48    H     0.01980   0.33060   0.51490   0.01267  Uiso   1.00
H49    H     0.02520   0.30590   0.57230   0.01267  Uiso   1.00
H50    H     0.08170   0.58110   0.71560   0.01267  Uiso   1.00
H51    H     0.85330   0.69340   0.66790   0.01267  Uiso   1.00
H52    H     0.94200   0.74740   0.66580   0.01267  Uiso   1.00
H53    H     0.91230   0.67170   0.62690   0.01267  Uiso   1.00
H54    H     0.85650   0.60500   0.72210   0.01267  Uiso   1.00
H55    H     0.91910   0.52480   0.71690   0.01267  Uiso   1.00
H56    H     0.94930   0.59190   0.76120   0.01267  Uiso   1.00
C1     C     0.30920   0.65220   0.75290   0.01267  Uiso   1.00
C2     C     0.42180   0.76300   0.76410   0.01267  Uiso   1.00
C3     C     0.37510   0.69550   0.83750   0.01267  Uiso   1.00
C4     C     0.18260   0.82150   0.65280   0.01267  Uiso   1.00
C5     C     0.18000   0.95910   0.69150   0.01267  Uiso   1.00
C6     C     0.28990   0.92180   0.63760   0.01267  Uiso   1.00
C7     C     0.44340   0.65780   0.64420   0.01267  Uiso   1.00
C8     C     0.59970   0.70180   0.66720   0.01267  Uiso   1.00
C9     C     0.50310   0.74700   0.58780   0.01267  Uiso   1.00
C10    C     0.21650   0.72670   0.52235   0.01267  Uiso   1.00
C11    C     0.25320   0.82170   0.45900   0.01267  Uiso   1.00
C12    C     0.30500   0.67080   0.46570   0.01267  Uiso   1.00
C13    C     0.33720   0.47780   0.57320   0.01267  Uiso   1.00
C14    C     0.45980   0.41310   0.54170   0.01267  Uiso   1.00
C15    C     0.43010   0.37570   0.62530   0.01267  Uiso   1.00
C16    C     0.22770   0.43560   0.69930   0.01267  Uiso   1.00
C17    C     0.09350   0.38190   0.72100   0.01267  Uiso   1.00
C18    C     0.23780   0.30120   0.74320   0.01267  Uiso   1.00
C19    C     0.08110   0.46610   0.57006   0.01267  Uiso   1.00
C20    C     0.92000   0.47460   0.55740   0.01267  Uiso   1.00
C21    C     0.99350   0.34050   0.54440   0.01267  Uiso   1.00
C22    C     0.04990   0.62180   0.69300   0.01267  Uiso   1.00
C23    C     0.91460   0.69090   0.66130   0.01267  Uiso   1.00
C24    C     0.91880   0.58500   0.72620   0.01267  Uiso   1.00
N1     N     0.36450   0.70170   0.78334   0.01267  Uiso   1.00
N2     N     0.21450   0.89670   0.66061   0.01267  Uiso   1.00
N3     N     0.51250   0.69910   0.63369   0.01267  Uiso   1.00
N4     N     0.25700   0.73940   0.48467   0.01267  Uiso   1.00
N5     N     0.40680   0.42590   0.57960   0.01267  Uiso   1.00
N6     N     0.18820   0.37460   0.71919   0.01267  Uiso   1.00
N7     N     0.00220   0.42950   0.55798   0.01267  Uiso   1.00
N8     N     0.96570   0.63420   0.69433   0.01267  Uiso   1.00
O1     O     0.30170   0.65370   0.70727   0.01267  Uiso   1.00
O2     O     0.20910   0.76690   0.62646   0.01267  Uiso   1.00
O3     O     0.36800   0.65470   0.61743   0.01267  Uiso   1.00
O4     O     0.21230   0.65700   0.54349   0.01267  Uiso   1.00
O5     O     0.28940   0.49100   0.60433   0.01267  Uiso   1.00
O6     O     0.19030   0.50190   0.68122   0.01267  Uiso   1.00
O7     O     0.09240   0.54240   0.58152   0.01267  Uiso   1.00
O8     O     0.09320   0.65940   0.66431   0.01267  Uiso   1.00
Eu2    Eu    0.78100   0.11652   0.87190   0.01267  Uiso   1.00
H57    H     0.72690   0.11320   0.73320   0.01267  Uiso   1.00
H58    H     0.54030   0.29280   0.70790   0.01267  Uiso   1.00
H59    H     0.53990   0.23310   0.75530   0.01267  Uiso   1.00
H60    H     0.61610   0.30420   0.75740   0.01267  Uiso   1.00
H61    H     0.58090   0.23790   0.64660   0.01267  Uiso   1.00
H62    H     0.68300   0.20610   0.65290   0.01267  Uiso   1.00
H63    H     0.60360   0.13850   0.65160   0.01267  Uiso   1.00
H64    H     0.86570   0.30620   0.83140   0.01267  Uiso   1.00
H65    H     0.78590   0.51220   0.80810   0.01267  Uiso   1.00
H66    H     0.88380   0.46990   0.82230   0.01267  Uiso   1.00
H67    H     0.81340   0.43720   0.77440   0.01267  Uiso   1.00
H68    H     0.69240   0.48030   0.85270   0.01267  Uiso   1.00
H69    H     0.65900   0.38360   0.85100   0.01267  Uiso   1.00
H70    H     0.72840   0.41830   0.89880   0.01267  Uiso   1.00
H71    H     0.54760   0.12790   0.82500   0.01267  Uiso   1.00
H72    H     0.35860   0.23630   0.84780   0.01267  Uiso   1.00
H73    H     0.40680   0.22710   0.80090   0.01267  Uiso   1.00
H74    H     0.37650   0.14400   0.82700   0.01267  Uiso   1.00
H75    H     0.43910   0.27330   0.91420   0.01267  Uiso   1.00
H76    H     0.51560   0.20890   0.94070   0.01267  Uiso   1.00
H77    H     0.54250   0.29140   0.91270   0.01267  Uiso   1.00
H78    H     0.81170   0.27420   0.96560   0.01267  Uiso   1.00
H79    H     0.71240   0.31830   0.06780   0.01267  Uiso   1.00
H80    H     0.80970   0.33580   0.05530   0.01267  Uiso   1.00
H81    H     0.72090   0.36580   0.01710   0.01267  Uiso   1.00
H82    H     0.66930   0.19160   0.06230   0.01267  Uiso   1.00
H83    H     0.64660   0.15030   0.00760   0.01267  Uiso   1.00
H84    H     0.73690   0.12410   0.04570   0.01267  Uiso   1.00
H85    H     0.67740   0.00750   0.95760   0.01267  Uiso   1.00
H86    H     0.49210   0.87200   0.94630   0.01267  Uiso   1.00
H87    H     0.57890   0.89130   0.98880   0.01267  Uiso   1.00
H88    H     0.51350   0.96730   0.96560   0.01267  Uiso   1.00
H89    H     0.51630   0.84140   0.87590   0.01267  Uiso   1.00
H90    H     0.55740   0.91380   0.84580   0.01267  Uiso   1.00
H91    H     0.62030   0.83810   0.87190   0.01267  Uiso   1.00
H92    H     0.71020   0.92880   0.80140   0.01267  Uiso   1.00
H93    H     0.92540   0.83180   0.76230   0.01267  Uiso   1.00
H94    H     0.91620   0.93320   0.76030   0.01267  Uiso   1.00
H95    H     0.94210   0.88570   0.81300   0.01267  Uiso   1.00
H96    H     0.80370   0.76330   0.74390   0.01267  Uiso   1.00
H97    H     0.73470   0.77050   0.78120   0.01267  Uiso   1.00
H98    H     0.71500   0.82040   0.72910   0.01267  Uiso   1.00
H99    H     0.86690   0.93220   0.92990   0.01267  Uiso   1.00
H100   H     0.13120   0.93600   0.95290   0.01267  Uiso   1.00
H101   H     0.08060   0.99660   0.90910   0.01267  Uiso   1.00
H102   H     0.08470   0.02200   0.96630   0.01267  Uiso   1.00
H103   H     0.07040   0.82480   0.96300   0.01267  Uiso   1.00
H104   H     0.98020   0.83060   0.98510   0.01267  Uiso   1.00
H105   H     0.97480   0.80590   0.92770   0.01267  Uiso   1.00
H106   H     0.91830   0.08110   0.78440   0.01267  Uiso   1.00
H107   H     0.14670   0.19340   0.83210   0.01267  Uiso   1.00
H108   H     0.05800   0.24740   0.83420   0.01267  Uiso   1.00
H109   H     0.08770   0.17170   0.87310   0.01267  Uiso   1.00
H110   H     0.14350   0.10500   0.77790   0.01267  Uiso   1.00
H111   H     0.08090   0.02480   0.78310   0.01267  Uiso   1.00
H112   H     0.05070   0.09190   0.73880   0.01267  Uiso   1.00
C25    C     0.69080   0.15220   0.74710   0.01267  Uiso   1.00
C26    C     0.57820   0.26300   0.73590   0.01267  Uiso   1.00
C27    C     0.62490   0.19550   0.66250   0.01267  Uiso   1.00
C28    C     0.81740   0.32150   0.84720   0.01267  Uiso   1.00
C29    C     0.82000   0.45910   0.80850   0.01267  Uiso   1.00
C30    C     0.71010   0.42180   0.86240   0.01267  Uiso   1.00
C31    C     0.55660   0.15780   0.85580   0.01267  Uiso   1.00
C32    C     0.40030   0.20180   0.83280   0.01267  Uiso   1.00
C33    C     0.49690   0.24700   0.91220   0.01267  Uiso   1.00
C34    C     0.78350   0.22670   0.97765   0.01267  Uiso   1.00
C35    C     0.74680   0.32170   0.04100   0.01267  Uiso   1.00
C36    C     0.69500   0.17080   0.03430   0.01267  Uiso   1.00
C37    C     0.66280   0.97780   0.92680   0.01267  Uiso   1.00
C38    C     0.54020   0.91310   0.95830   0.01267  Uiso   1.00
C39    C     0.56990   0.87570   0.87470   0.01267  Uiso   1.00
C40    C     0.77230   0.93560   0.80070   0.01267  Uiso   1.00
C41    C     0.90650   0.88190   0.77900   0.01267  Uiso   1.00
C42    C     0.76220   0.80120   0.75680   0.01267  Uiso   1.00
C43    C     0.91890   0.96610   0.92994   0.01267  Uiso   1.00
C44    C     0.08000   0.97460   0.94260   0.01267  Uiso   1.00
C45    C     0.00650   0.84050   0.95560   0.01267  Uiso   1.00
C46    C     0.95010   0.12180   0.80700   0.01267  Uiso   1.00
C47    C     0.08540   0.19090   0.83870   0.01267  Uiso   1.00
C48    C     0.08120   0.08500   0.77380   0.01267  Uiso   1.00
N9     N     0.63550   0.20170   0.71666   0.01267  Uiso   1.00
N10    N     0.78550   0.39670   0.83939   0.01267  Uiso   1.00
N11    N     0.48750   0.19910   0.86631   0.01267  Uiso   1.00
N12    N     0.74300   0.23940   0.01533   0.01267  Uiso   1.00
N13    N     0.59320   0.92590   0.92040   0.01267  Uiso   1.00
N14    N     0.81180   0.87460   0.78081   0.01267  Uiso   1.00
N15    N     0.99780   0.92950   0.94202   0.01267  Uiso   1.00
N16    N     0.03430   0.13420   0.80567   0.01267  Uiso   1.00
O9     O     0.69830   0.15370   0.79273   0.01267  Uiso   1.00
O10    O     0.79090   0.26690   0.87354   0.01267  Uiso   1.00
O11    O     0.63200   0.15470   0.88257   0.01267  Uiso   1.00
O12    O     0.78770   0.15700   0.95651   0.01267  Uiso   1.00
O13    O     0.71060   0.99100   0.89567   0.01267  Uiso   1.00
O14    O     0.80970   0.00190   0.81878   0.01267  Uiso   1.00
O15    O     0.90760   0.04240   0.91848   0.01267  Uiso   1.00
O16    O     0.90680   0.15940   0.83569   0.01267  Uiso   1.00
Eu3    Eu    0.78100   0.38348   0.37190   0.01267  Uiso   1.00
H113   H     0.72690   0.38680   0.23320   0.01267  Uiso   1.00
H114   H     0.54030   0.20720   0.20790   0.01267  Uiso   1.00
H115   H     0.53990   0.26690   0.25530   0.01267  Uiso   1.00
H116   H     0.61610   0.19580   0.25740   0.01267  Uiso   1.00
H117   H     0.58090   0.26210   0.14660   0.01267  Uiso   1.00
H118   H     0.68300   0.29390   0.15290   0.01267  Uiso   1.00
H119   H     0.60360   0.36150   0.15160   0.01267  Uiso   1.00
H120   H     0.86570   0.19380   0.33140   0.01267  Uiso   1.00
H121   H     0.78590   0.98780   0.30810   0.01267  Uiso   1.00
H122   H     0.88380   0.03010   0.32230   0.01267  Uiso   1.00
H123   H     0.81340   0.06280   0.27440   0.01267  Uiso   1.00
H124   H     0.69240   0.01970   0.35270   0.01267  Uiso   1.00
H125   H     0.65900   0.11640   0.35100   0.01267  Uiso   1.00
H126   H     0.72840   0.08170   0.39880   0.01267  Uiso   1.00
H127   H     0.54760   0.37210   0.32500   0.01267  Uiso   1.00
H128   H     0.35860   0.26370   0.34780   0.01267  Uiso   1.00
H129   H     0.40680   0.27290   0.30090   0.01267  Uiso   1.00
H130   H     0.37650   0.35600   0.32700   0.01267  Uiso   1.00
H131   H     0.43910   0.22670   0.41420   0.01267  Uiso   1.00
H132   H     0.51560   0.29110   0.44070   0.01267  Uiso   1.00
H133   H     0.54250   0.20860   0.41270   0.01267  Uiso   1.00
H134   H     0.81170   0.22580   0.46560   0.01267  Uiso   1.00
H135   H     0.71240   0.18170   0.56780   0.01267  Uiso   1.00
H136   H     0.80970   0.16420   0.55530   0.01267  Uiso   1.00
H137   H     0.72090   0.13420   0.51710   0.01267  Uiso   1.00
H138   H     0.66930   0.30840   0.56230   0.01267  Uiso   1.00
H139   H     0.64660   0.34970   0.50760   0.01267  Uiso   1.00
H140   H     0.73690   0.37590   0.54570   0.01267  Uiso   1.00
H141   H     0.67740   0.49250   0.45760   0.01267  Uiso   1.00
H142   H     0.49210   0.62800   0.44630   0.01267  Uiso   1.00
H143   H     0.57890   0.60870   0.48880   0.01267  Uiso   1.00
H144   H     0.51350   0.53270   0.46560   0.01267  Uiso   1.00
H145   H     0.51630   0.65860   0.37590   0.01267  Uiso   1.00
H146   H     0.55740   0.58620   0.34580   0.01267  Uiso   1.00
H147   H     0.62030   0.66190   0.37190   0.01267  Uiso   1.00
H148   H     0.71020   0.57120   0.30140   0.01267  Uiso   1.00
H149   H     0.92540   0.66820   0.26230   0.01267  Uiso   1.00
H150   H     0.91620   0.56680   0.26030   0.01267  Uiso   1.00
H151   H     0.94210   0.61430   0.31300   0.01267  Uiso   1.00
H152   H     0.80370   0.73670   0.24390   0.01267  Uiso   1.00
H153   H     0.73470   0.72950   0.28120   0.01267  Uiso   1.00
H154   H     0.71500   0.67960   0.22910   0.01267  Uiso   1.00
H155   H     0.86690   0.56780   0.42990   0.01267  Uiso   1.00
H156   H     0.13120   0.56400   0.45290   0.01267  Uiso   1.00
H157   H     0.08060   0.50340   0.40910   0.01267  Uiso   1.00
H158   H     0.08470   0.47800   0.46630   0.01267  Uiso   1.00
H159   H     0.07040   0.67520   0.46300   0.01267  Uiso   1.00
H160   H     0.98020   0.66940   0.48510   0.01267  Uiso   1.00
H161   H     0.97480   0.69410   0.42770   0.01267  Uiso   1.00
H162   H     0.91830   0.41890   0.28440   0.01267  Uiso   1.00
H163   H     0.14670   0.30660   0.33210   0.01267  Uiso   1.00
H164   H     0.05800   0.25260   0.33420   0.01267  Uiso   1.00
H165   H     0.08770   0.32830   0.37310   0.01267  Uiso   1.00
H166   H     0.14350   0.39500   0.27790   0.01267  Uiso   1.00
H167   H     0.08090   0.47520   0.28310   0.01267  Uiso   1.00
H168   H     0.05070   0.40810   0.23880   0.01267  Uiso   1.00
C49    C     0.69080   0.34780   0.24710   0.01267  Uiso   1.00
C50    C     0.57820   0.23700   0.23590   0.01267  Uiso   1.00
C51    C     0.62490   0.30450   0.16250   0.01267  Uiso   1.00
C52    C     0.81740   0.17850   0.34720   0.01267  Uiso   1.00
C53    C     0.82000   0.04090   0.30850   0.01267  Uiso   1.00
C54    C     0.71010   0.07820   0.36240   0.01267  Uiso   1.00
C55    C     0.55660   0.34220   0.35580   0.01267  Uiso   1.00
C56    C     0.40030   0.29820   0.33280   0.01267  Uiso   1.00
C57    C     0.49690   0.25300   0.41220   0.01267  Uiso   1.00
C58    C     0.78350   0.27330   0.47765   0.01267  Uiso   1.00
C59    C     0.74680   0.17830   0.54100   0.01267  Uiso   1.00
C60    C     0.69500   0.32920   0.53430   0.01267  Uiso   1.00
C61    C     0.66280   0.52220   0.42680   0.01267  Uiso   1.00
C62    C     0.54020   0.58690   0.45830   0.01267  Uiso   1.00
C63    C     0.56990   0.62430   0.37470   0.01267  Uiso   1.00
C64    C     0.77230   0.56440   0.30070   0.01267  Uiso   1.00
C65    C     0.90650   0.61810   0.27900   0.01267  Uiso   1.00
C66    C     0.76220   0.69880   0.25680   0.01267  Uiso   1.00
C67    C     0.91890   0.53390   0.42994   0.01267  Uiso   1.00
C68    C     0.08000   0.52540   0.44260   0.01267  Uiso   1.00
C69    C     0.00650   0.65950   0.45560   0.01267  Uiso   1.00
C70    C     0.95010   0.37820   0.30700   0.01267  Uiso   1.00
C71    C     0.08540   0.30910   0.33870   0.01267  Uiso   1.00
C72    C     0.08120   0.41500   0.27380   0.01267  Uiso   1.00
N17    N     0.63550   0.29830   0.21666   0.01267  Uiso   1.00
N18    N     0.78550   0.10330   0.33939   0.01267  Uiso   1.00
N19    N     0.48750   0.30090   0.36631   0.01267  Uiso   1.00
N20    N     0.74300   0.26060   0.51533   0.01267  Uiso   1.00
N21    N     0.59320   0.57410   0.42040   0.01267  Uiso   1.00
N22    N     0.81180   0.62540   0.28081   0.01267  Uiso   1.00
N23    N     0.99780   0.57050   0.44202   0.01267  Uiso   1.00
N24    N     0.03430   0.36580   0.30567   0.01267  Uiso   1.00
O17    O     0.69830   0.34630   0.29273   0.01267  Uiso   1.00
O18    O     0.79090   0.23310   0.37354   0.01267  Uiso   1.00
O19    O     0.63200   0.34530   0.38257   0.01267  Uiso   1.00
O20    O     0.78770   0.34300   0.45651   0.01267  Uiso   1.00
O21    O     0.71060   0.50900   0.39567   0.01267  Uiso   1.00
O22    O     0.80970   0.49810   0.31878   0.01267  Uiso   1.00
O23    O     0.90760   0.45760   0.41848   0.01267  Uiso   1.00
O24    O     0.90680   0.34060   0.33569   0.01267  Uiso   1.00
Eu4    Eu    0.21900   0.88348   0.12810   0.01267  Uiso   1.00
H169   H     0.27310   0.88680   0.26680   0.01267  Uiso   1.00
H170   H     0.45970   0.70720   0.29210   0.01267  Uiso   1.00
H171   H     0.46010   0.76690   0.24470   0.01267  Uiso   1.00
H172   H     0.38390   0.69580   0.24260   0.01267  Uiso   1.00
H173   H     0.41910   0.76210   0.35340   0.01267  Uiso   1.00
H174   H     0.31700   0.79390   0.34710   0.01267  Uiso   1.00
H175   H     0.39640   0.86150   0.34840   0.01267  Uiso   1.00
H176   H     0.13430   0.69380   0.16860   0.01267  Uiso   1.00
H177   H     0.21410   0.48780   0.19190   0.01267  Uiso   1.00
H178   H     0.11620   0.53010   0.17770   0.01267  Uiso   1.00
H179   H     0.18660   0.56280   0.22560   0.01267  Uiso   1.00
H180   H     0.30760   0.51970   0.14730   0.01267  Uiso   1.00
H181   H     0.34100   0.61640   0.14900   0.01267  Uiso   1.00
H182   H     0.27160   0.58170   0.10120   0.01267  Uiso   1.00
H183   H     0.45240   0.87210   0.17500   0.01267  Uiso   1.00
H184   H     0.64140   0.76370   0.15220   0.01267  Uiso   1.00
H185   H     0.59320   0.77290   0.19910   0.01267  Uiso   1.00
H186   H     0.62350   0.85600   0.17300   0.01267  Uiso   1.00
H187   H     0.56090   0.72670   0.08580   0.01267  Uiso   1.00
H188   H     0.48440   0.79110   0.05930   0.01267  Uiso   1.00
H189   H     0.45750   0.70860   0.08730   0.01267  Uiso   1.00
H190   H     0.18830   0.72580   0.03440   0.01267  Uiso   1.00
H191   H     0.28760   0.68170   0.93220   0.01267  Uiso   1.00
H192   H     0.19030   0.66420   0.94470   0.01267  Uiso   1.00
H193   H     0.27910   0.63420   0.98290   0.01267  Uiso   1.00
H194   H     0.33070   0.80840   0.93770   0.01267  Uiso   1.00
H195   H     0.35340   0.84970   0.99240   0.01267  Uiso   1.00
H196   H     0.26310   0.87590   0.95430   0.01267  Uiso   1.00
H197   H     0.32260   0.99250   0.04240   0.01267  Uiso   1.00
H198   H     0.50790   0.12800   0.05370   0.01267  Uiso   1.00
H199   H     0.42110   0.10870   0.01120   0.01267  Uiso   1.00
H200   H     0.48650   0.03270   0.03440   0.01267  Uiso   1.00
H201   H     0.48370   0.15860   0.12410   0.01267  Uiso   1.00
H202   H     0.44260   0.08620   0.15420   0.01267  Uiso   1.00
H203   H     0.37970   0.16190   0.12810   0.01267  Uiso   1.00
H204   H     0.28980   0.07120   0.19860   0.01267  Uiso   1.00
H205   H     0.07460   0.16820   0.23770   0.01267  Uiso   1.00
H206   H     0.08380   0.06680   0.23970   0.01267  Uiso   1.00
H207   H     0.05790   0.11430   0.18700   0.01267  Uiso   1.00
H208   H     0.19630   0.23670   0.25610   0.01267  Uiso   1.00
H209   H     0.26530   0.22950   0.21880   0.01267  Uiso   1.00
H210   H     0.28500   0.17960   0.27090   0.01267  Uiso   1.00
H211   H     0.13310   0.06780   0.07010   0.01267  Uiso   1.00
H212   H     0.86880   0.06400   0.04710   0.01267  Uiso   1.00
H213   H     0.91940   0.00340   0.09090   0.01267  Uiso   1.00
H214   H     0.91530   0.97800   0.03370   0.01267  Uiso   1.00
H215   H     0.92960   0.17520   0.03700   0.01267  Uiso   1.00
H216   H     0.01980   0.16940   0.01490   0.01267  Uiso   1.00
H217   H     0.02520   0.19410   0.07230   0.01267  Uiso   1.00
H218   H     0.08170   0.91890   0.21560   0.01267  Uiso   1.00
H219   H     0.85330   0.80660   0.16790   0.01267  Uiso   1.00
H220   H     0.94200   0.75260   0.16580   0.01267  Uiso   1.00
H221   H     0.91230   0.82830   0.12690   0.01267  Uiso   1.00
H222   H     0.85650   0.89500   0.22210   0.01267  Uiso   1.00
H223   H     0.91910   0.97520   0.21690   0.01267  Uiso   1.00
H224   H     0.94930   0.90810   0.26120   0.01267  Uiso   1.00
C73    C     0.30920   0.84780   0.25290   0.01267  Uiso   1.00
C74    C     0.42180   0.73700   0.26410   0.01267  Uiso   1.00
C75    C     0.37510   0.80450   0.33750   0.01267  Uiso   1.00
C76    C     0.18260   0.67850   0.15280   0.01267  Uiso   1.00
C77    C     0.18000   0.54090   0.19150   0.01267  Uiso   1.00
C78    C     0.28990   0.57820   0.13760   0.01267  Uiso   1.00
C79    C     0.44340   0.84220   0.14420   0.01267  Uiso   1.00
C80    C     0.59970   0.79820   0.16720   0.01267  Uiso   1.00
C81    C     0.50310   0.75300   0.08780   0.01267  Uiso   1.00
C82    C     0.21650   0.77330   0.02235   0.01267  Uiso   1.00
C83    C     0.25320   0.67830   0.95900   0.01267  Uiso   1.00
C84    C     0.30500   0.82920   0.96570   0.01267  Uiso   1.00
C85    C     0.33720   0.02220   0.07320   0.01267  Uiso   1.00
C86    C     0.45980   0.08690   0.04170   0.01267  Uiso   1.00
C87    C     0.43010   0.12430   0.12530   0.01267  Uiso   1.00
C88    C     0.22770   0.06440   0.19930   0.01267  Uiso   1.00
C89    C     0.09350   0.11810   0.22100   0.01267  Uiso   1.00
C90    C     0.23780   0.19880   0.24320   0.01267  Uiso   1.00
C91    C     0.08110   0.03390   0.07006   0.01267  Uiso   1.00
C92    C     0.92000   0.02540   0.05740   0.01267  Uiso   1.00
C93    C     0.99350   0.15950   0.04440   0.01267  Uiso   1.00
C94    C     0.04990   0.87820   0.19300   0.01267  Uiso   1.00
C95    C     0.91460   0.80910   0.16130   0.01267  Uiso   1.00
C96    C     0.91880   0.91500   0.22620   0.01267  Uiso   1.00
N25    N     0.36450   0.79830   0.28334   0.01267  Uiso   1.00
N26    N     0.21450   0.60330   0.16061   0.01267  Uiso   1.00
N27    N     0.51250   0.80090   0.13369   0.01267  Uiso   1.00
N28    N     0.25700   0.76060   0.98467   0.01267  Uiso   1.00
N29    N     0.40680   0.07410   0.07960   0.01267  Uiso   1.00
N30    N     0.18820   0.12540   0.21919   0.01267  Uiso   1.00
N31    N     0.00220   0.07050   0.05798   0.01267  Uiso   1.00
N32    N     0.96570   0.86580   0.19433   0.01267  Uiso   1.00
O25    O     0.30170   0.84630   0.20727   0.01267  Uiso   1.00
O26    O     0.20910   0.73310   0.12646   0.01267  Uiso   1.00
O27    O     0.36800   0.84530   0.11743   0.01267  Uiso   1.00
O28    O     0.21230   0.84300   0.04349   0.01267  Uiso   1.00
O29    O     0.28940   0.00900   0.10433   0.01267  Uiso   1.00
O30    O     0.19030   0.99810   0.18122   0.01267  Uiso   1.00
O31    O     0.09240   0.95760   0.08152   0.01267  Uiso   1.00
O32    O     0.09320   0.84060   0.16431   0.01267  Uiso   1.00
Cu1    Cu    0.76800   0.70050   0.87749   0.01267  Uiso   1.00
Cu2    Cu    0.07434   0.69210   0.83526   0.01267  Uiso   1.00
Cu3    Cu    0.26937   0.43675   0.84692   0.01267  Uiso   1.00
Cu4    Cu    0.74509   0.81622   0.04263   0.01267  Uiso   1.00
Cu5    Cu    0.72672   0.05575   0.15637   0.01267  Uiso   1.00
Cu6    Cu    0.53133   0.52384   0.77483   0.01267  Uiso   1.00
Cu7    Cu    0.23200   0.20050   0.62251   0.01267  Uiso   1.00
Cu8    Cu    0.92566   0.19210   0.66474   0.01267  Uiso   1.00
Cu9    Cu    0.73063   0.93675   0.65308   0.01267  Uiso   1.00
Cu10   Cu    0.25491   0.31622   0.45737   0.01267  Uiso   1.00
Cu11   Cu    0.27328   0.55575   0.34363   0.01267  Uiso   1.00
Cu12   Cu    0.46867   0.02384   0.72517   0.01267  Uiso   1.00
Cu13   Cu    0.23200   0.29950   0.12251   0.01267  Uiso   1.00
Cu14   Cu    0.92566   0.30790   0.16474   0.01267  Uiso   1.00
Cu15   Cu    0.73063   0.56325   0.15308   0.01267  Uiso   1.00
Cu16   Cu    0.25491   0.18378   0.95737   0.01267  Uiso   1.00
Cu17   Cu    0.27328   0.94425   0.84363   0.01267  Uiso   1.00
Cu18   Cu    0.46867   0.47616   0.22517   0.01267  Uiso   1.00
Cu19   Cu    0.76800   0.79950   0.37749   0.01267  Uiso   1.00
Cu20   Cu    0.07434   0.80790   0.33526   0.01267  Uiso   1.00
Cu21   Cu    0.26937   0.06325   0.34692   0.01267  Uiso   1.00
Cu22   Cu    0.74509   0.68378   0.54263   0.01267  Uiso   1.00
Cu23   Cu    0.72672   0.44425   0.65637   0.01267  Uiso   1.00
Cu24   Cu    0.53133   0.97616   0.27483   0.01267  Uiso   1.00
C97    C     0.95800   0.68850   0.85150   0.01267  Uiso   1.00
C98    C     0.13750   0.59010   0.82870   0.01267  Uiso   1.00
C99    C     0.18720   0.85680   0.83240   0.01267  Uiso   1.00
C100   C     0.74000   0.65660   0.11120   0.01267  Uiso   1.00
C101   C     0.43240   0.47880   0.79838   0.01267  Uiso   1.00
C102   C     0.76480   0.76090   0.93660   0.01267  Uiso   1.00
C103   C     0.72720   0.91930   0.07530   0.01267  Uiso   1.00
C104   C     0.66420   0.65230   0.83720   0.01267  Uiso   1.00
C105   C     0.64030   0.47190   0.69550   0.01267  Uiso   1.00
C106   C     0.04200   0.18850   0.64850   0.01267  Uiso   1.00
C107   C     0.86250   0.09010   0.67130   0.01267  Uiso   1.00
C108   C     0.81280   0.35680   0.66760   0.01267  Uiso   1.00
C109   C     0.26000   0.15660   0.38880   0.01267  Uiso   1.00
C110   C     0.56760   0.97880   0.70162   0.01267  Uiso   1.00
C111   C     0.23520   0.26090   0.56340   0.01267  Uiso   1.00
C112   C     0.27280   0.41930   0.42470   0.01267  Uiso   1.00
C113   C     0.33580   0.15230   0.66280   0.01267  Uiso   1.00
C114   C     0.35970   0.97190   0.80450   0.01267  Uiso   1.00
C115   C     0.04200   0.31150   0.14850   0.01267  Uiso   1.00
C116   C     0.86250   0.40990   0.17130   0.01267  Uiso   1.00
C117   C     0.81280   0.14320   0.16760   0.01267  Uiso   1.00
C118   C     0.26000   0.34340   0.88880   0.01267  Uiso   1.00
C119   C     0.56760   0.52120   0.20162   0.01267  Uiso   1.00
C120   C     0.23520   0.23910   0.06340   0.01267  Uiso   1.00
C121   C     0.27280   0.08070   0.92470   0.01267  Uiso   1.00
C122   C     0.33580   0.34770   0.16280   0.01267  Uiso   1.00
C123   C     0.35970   0.52810   0.30450   0.01267  Uiso   1.00
C124   C     0.95800   0.81150   0.35150   0.01267  Uiso   1.00
C125   C     0.13750   0.90990   0.32870   0.01267  Uiso   1.00
C126   C     0.18720   0.64320   0.33240   0.01267  Uiso   1.00
C127   C     0.74000   0.84340   0.61120   0.01267  Uiso   1.00
C128   C     0.43240   0.02120   0.29838   0.01267  Uiso   1.00
C129   C     0.76480   0.73910   0.43660   0.01267  Uiso   1.00
C130   C     0.72720   0.58070   0.57530   0.01267  Uiso   1.00
C131   C     0.66420   0.84770   0.33720   0.01267  Uiso   1.00
C132   C     0.64030   0.02810   0.19550   0.01267  Uiso   1.00
N33    N     0.88830   0.68850   0.86213   0.01267  Uiso   1.00
N34    N     0.18230   0.53010   0.83204   0.01267  Uiso   1.00
N35    N     0.13980   0.79740   0.82990   0.01267  Uiso   1.00
N36    N     0.74450   0.71510   0.08545   0.01267  Uiso   1.00
N37    N     0.37240   0.45510   0.81475   0.01267  Uiso   1.00
N38    N     0.76030   0.78690   0.97610   0.01267  Uiso   1.00
N39    N     0.72250   0.97810   0.10030   0.01267  Uiso   1.00
N40    N     0.60470   0.61690   0.81225   0.01267  Uiso   1.00
N41    N     0.59260   0.49290   0.72180   0.01267  Uiso   1.00
N42    N     0.11170   0.18850   0.63787   0.01267  Uiso   1.00
N43    N     0.81770   0.03010   0.66796   0.01267  Uiso   1.00
N44    N     0.86020   0.29740   0.67010   0.01267  Uiso   1.00
N45    N     0.25550   0.21510   0.41455   0.01267  Uiso   1.00
N46    N     0.62760   0.95510   0.68525   0.01267  Uiso   1.00
N47    N     0.23970   0.28690   0.52390   0.01267  Uiso   1.00
N48    N     0.27750   0.47810   0.39970   0.01267  Uiso   1.00
N49    N     0.39530   0.11690   0.68775   0.01267  Uiso   1.00
N50    N     0.40740   0.99290   0.77820   0.01267  Uiso   1.00
N51    N     0.11170   0.31150   0.13787   0.01267  Uiso   1.00
N52    N     0.81770   0.46990   0.16796   0.01267  Uiso   1.00
N53    N     0.86020   0.20260   0.17010   0.01267  Uiso   1.00
N54    N     0.25550   0.28490   0.91455   0.01267  Uiso   1.00
N55    N     0.62760   0.54490   0.18525   0.01267  Uiso   1.00
N56    N     0.23970   0.21310   0.02390   0.01267  Uiso   1.00
N57    N     0.27750   0.02190   0.89970   0.01267  Uiso   1.00
N58    N     0.39530   0.38310   0.18775   0.01267  Uiso   1.00
N59    N     0.40740   0.50710   0.27820   0.01267  Uiso   1.00
N60    N     0.88830   0.81150   0.36213   0.01267  Uiso   1.00
N61    N     0.18230   0.96990   0.33204   0.01267  Uiso   1.00
N62    N     0.13980   0.70260   0.32990   0.01267  Uiso   1.00
N63    N     0.74450   0.78490   0.58545   0.01267  Uiso   1.00
N64    N     0.37240   0.04490   0.31475   0.01267  Uiso   1.00
N65    N     0.76030   0.71310   0.47610   0.01267  Uiso   1.00
N66    N     0.72250   0.52190   0.60030   0.01267  Uiso   1.00
N67    N     0.60470   0.88310   0.31225   0.01267  Uiso   1.00
N68    N     0.59260   0.00710   0.22180   0.01267  Uiso   1.00
