data_image0
_cell_length_a       15.9742
_cell_length_b       15.9742
_cell_length_c       19.4383
_cell_angle_alpha    90
_cell_angle_beta     90
_cell_angle_gamma    120

_symmetry_space_group_name_H-M    "P 1"
_symmetry_int_tables_number       1

loop_
  _symmetry_equiv_pos_as_xyz
  'x, y, z'

loop_
  _atom_site_label
  _atom_site_occupancy
  _atom_site_fract_x
  _atom_site_fract_y
  _atom_site_fract_z
  _atom_site_thermal_displace_type
  _atom_site_B_iso_or_equiv
  _atom_site_type_symbol
  C1       1.0000 0.17260  0.42740  0.32140  Biso   1.000  C
  C2       1.0000 0.12380  0.35740  0.27050  Biso   1.000  C
  C3       1.0000 0.16330  0.30630  0.24220  Biso   1.000  C
  H1       1.0000 0.13120  0.26210  0.20710  Biso   1.000  H
  C4       1.0000 0.25230  0.32140  0.26660  Biso   1.000  C
  H2       1.0000 0.27870  0.28650  0.24720  Biso   1.000  H
  C5       1.0000 0.29990  0.38360  0.31640  Biso   1.000  C
  H3       1.0000 0.35810  0.39080  0.33210  Biso   1.000  H
  C6       1.0000 0.26250  0.43980  0.34630  Biso   1.000  C
  C7       1.0000 0.31720  0.51120  0.39680  Biso   1.000  C
  H4       1.0000 0.37510  0.51620  0.41130  Biso   1.000  H
  C8       1.0000 0.35390  0.65090  0.46740  Biso   1.000  C
  H5       1.0000 0.40970  0.64550  0.48200  Biso   1.000  H
  C9       1.0000 0.38980  0.74360  0.42700  Biso   1.000  C
  H6       1.0000 0.43020  0.74380  0.38970  Biso   1.000  H
  H7       1.0000 0.33460  0.74420  0.40680  Biso   1.000  H
  C10      1.0000 0.44650  0.83430  0.46850  Biso   1.000  C
  H8       1.0000 0.46230  0.89010  0.43990  Biso   1.000  H
  H9       1.0000 0.50650  0.83900  0.48370  Biso   1.000  H
  C11      1.0000 0.97840  0.27520  0.20380  Biso   1.000  C
  H10      1.0000 0.01940  0.26870  0.17070  Biso   1.000  H
  H11      1.0000 0.93640  0.29300  0.18070  Biso   1.000  H
  H12      1.0000 0.94020  0.21480  0.22720  Biso   1.000  H
  N1       1.0000 0.29270  0.56850  0.42360  Biso   1.000  N
  O1       1.0000 0.14100  0.48230  0.34262  Biso   1.000  O
  O2       1.0000 0.03700  0.34890  0.25310  Biso   1.000  O
  O3       1.0000 0.92350  0.47000  0.46000  Biso   1.000  O
  H13      1.0000 0.24500  0.55600  0.41500  Biso   1.000  H
  C12      1.0000 0.57260  0.74520  0.65473  Biso   1.000  C
  C13      1.0000 0.64260  0.76640  0.60383  Biso   1.000  C
  C14      1.0000 0.69370  0.85700  0.57553  Biso   1.000  C
  H14      1.0000 0.73790  0.86910  0.54043  Biso   1.000  H
  C15      1.0000 0.67860  0.93090  0.59993  Biso   1.000  C
  H15      1.0000 0.71350  0.99220  0.58053  Biso   1.000  H
  C16      1.0000 0.61640  0.91630  0.64973  Biso   1.000  C
  H16      1.0000 0.60920  0.96730  0.66543  Biso   1.000  H
  C17      1.0000 0.56020  0.82270  0.67963  Biso   1.000  C
  C18      1.0000 0.48880  0.80600  0.73013  Biso   1.000  C
  H17      1.0000 0.48380  0.85890  0.74463  Biso   1.000  H
  C19      1.0000 0.34910  0.70300  0.80073  Biso   1.000  C
  H18      1.0000 0.35450  0.76420  0.81533  Biso   1.000  H
  C20      1.0000 0.25640  0.64620  0.76033  Biso   1.000  C
  H19      1.0000 0.25620  0.68640  0.72303  Biso   1.000  H
  H20      1.0000 0.25580  0.59040  0.74013  Biso   1.000  H
  C21      1.0000 0.16570  0.61220  0.80183  Biso   1.000  C
  H21      1.0000 0.10990  0.57220  0.77323  Biso   1.000  H
  H22      1.0000 0.16100  0.66750  0.81703  Biso   1.000  H
  C22      1.0000 0.72480  0.70320  0.53713  Biso   1.000  C
  H23      1.0000 0.73130  0.75070  0.50403  Biso   1.000  H
  H24      1.0000 0.70700  0.64340  0.51403  Biso   1.000  H
  H25      1.0000 0.78520  0.72540  0.56053  Biso   1.000  H
  N2       1.0000 0.43150  0.72420  0.75693  Biso   1.000  N
  O4       1.0000 0.51770  0.65870  0.67595  Biso   1.000  O
  O5       1.0000 0.65110  0.68810  0.58643  Biso   1.000  O
  O6       1.0000 0.53000  0.45350  0.79333  Biso   1.000  O
  H26      1.0000 0.44400  0.68900  0.74833  Biso   1.000  H
  C23      1.0000 0.25480  0.82740  0.98807  Biso   1.000  C
  C24      1.0000 0.23360  0.87620  0.93717  Biso   1.000  C
  C25      1.0000 0.14300  0.83670  0.90887  Biso   1.000  C
  H27      1.0000 0.13090  0.86880  0.87377  Biso   1.000  H
  C26      1.0000 0.06910  0.74770  0.93327  Biso   1.000  C
  H28      1.0000 0.00780  0.72130  0.91387  Biso   1.000  H
  C27      1.0000 0.08370  0.70010  0.98307  Biso   1.000  C
  H29      1.0000 0.03270  0.64190  0.99877  Biso   1.000  H
  C28      1.0000 0.17730  0.73750  0.01297  Biso   1.000  C
  C29      1.0000 0.19400  0.68280  0.06347  Biso   1.000  C
  H30      1.0000 0.14110  0.62490  0.07797  Biso   1.000  H
  C30      1.0000 0.29700  0.64610  0.13407  Biso   1.000  C
  H31      1.0000 0.23580  0.59030  0.14867  Biso   1.000  H
  C31      1.0000 0.35380  0.61020  0.09367  Biso   1.000  C
  H32      1.0000 0.31360  0.56980  0.05637  Biso   1.000  H
  H33      1.0000 0.40960  0.66540  0.07347  Biso   1.000  H
  C32      1.0000 0.38780  0.55350  0.13517  Biso   1.000  C
  H34      1.0000 0.42780  0.53770  0.10657  Biso   1.000  H
  H35      1.0000 0.33250  0.49350  0.15037  Biso   1.000  H
  C33      1.0000 0.29680  0.02160  0.87047  Biso   1.000  C
  H36      1.0000 0.24930  0.98060  0.83737  Biso   1.000  H
  H37      1.0000 0.35660  0.06360  0.84737  Biso   1.000  H
  H38      1.0000 0.27460  0.05980  0.89387  Biso   1.000  H
  N3       1.0000 0.27580  0.70730  0.09027  Biso   1.000  N
  O7       1.0000 0.34130  0.85900  0.00929  Biso   1.000  O
  O8       1.0000 0.31190  0.96300  0.91977  Biso   1.000  O
  O9       1.0000 0.54650  0.07650  0.12667  Biso   1.000  O
  H39      1.0000 0.31100  0.75500  0.08167  Biso   1.000  H
  C34      1.0000 0.82740  0.57260  0.32140  Biso   1.000  C
  C35      1.0000 0.87620  0.64260  0.27050  Biso   1.000  C
  C36      1.0000 0.83670  0.69370  0.24220  Biso   1.000  C
  H40      1.0000 0.86880  0.73790  0.20710  Biso   1.000  H
  C37      1.0000 0.74770  0.67860  0.26660  Biso   1.000  C
  H41      1.0000 0.72130  0.71350  0.24720  Biso   1.000  H
  C38      1.0000 0.70010  0.61640  0.31640  Biso   1.000  C
  H42      1.0000 0.64190  0.60920  0.33210  Biso   1.000  H
  C39      1.0000 0.73750  0.56020  0.34630  Biso   1.000  C
  C40      1.0000 0.68280  0.48880  0.39680  Biso   1.000  C
  H43      1.0000 0.62490  0.48380  0.41130  Biso   1.000  H
  C41      1.0000 0.64610  0.34910  0.46740  Biso   1.000  C
  H44      1.0000 0.59030  0.35450  0.48200  Biso   1.000  H
  C42      1.0000 0.61020  0.25640  0.42700  Biso   1.000  C
  H45      1.0000 0.56980  0.25620  0.38970  Biso   1.000  H
  H46      1.0000 0.66540  0.25580  0.40680  Biso   1.000  H
  C43      1.0000 0.55350  0.16570  0.46850  Biso   1.000  C
  H47      1.0000 0.53770  0.10990  0.43990  Biso   1.000  H
  H48      1.0000 0.49350  0.16100  0.48370  Biso   1.000  H
  C44      1.0000 0.02160  0.72480  0.20380  Biso   1.000  C
  H49      1.0000 0.98060  0.73130  0.17070  Biso   1.000  H
  H50      1.0000 0.06360  0.70700  0.18070  Biso   1.000  H
  H51      1.0000 0.05980  0.78520  0.22720  Biso   1.000  H
  N4       1.0000 0.70730  0.43150  0.42360  Biso   1.000  N
  O10      1.0000 0.85900  0.51770  0.34262  Biso   1.000  O
  O11      1.0000 0.96300  0.65110  0.25310  Biso   1.000  O
  O12      1.0000 0.07650  0.53000  0.46000  Biso   1.000  O
  H52      1.0000 0.75500  0.44400  0.41500  Biso   1.000  H
  C45      1.0000 0.42740  0.25480  0.65473  Biso   1.000  C
  C46      1.0000 0.35740  0.23360  0.60383  Biso   1.000  C
  C47      1.0000 0.30630  0.14300  0.57553  Biso   1.000  C
  H53      1.0000 0.26210  0.13090  0.54043  Biso   1.000  H
  C48      1.0000 0.32140  0.06910  0.59993  Biso   1.000  C
  H54      1.0000 0.28650  0.00780  0.58053  Biso   1.000  H
  C49      1.0000 0.38360  0.08370  0.64973  Biso   1.000  C
  H55      1.0000 0.39080  0.03270  0.66543  Biso   1.000  H
  C50      1.0000 0.43980  0.17730  0.67963  Biso   1.000  C
  C51      1.0000 0.51120  0.19400  0.73013  Biso   1.000  C
  H56      1.0000 0.51620  0.14110  0.74463  Biso   1.000  H
  C52      1.0000 0.65090  0.29700  0.80073  Biso   1.000  C
  H57      1.0000 0.64550  0.23580  0.81533  Biso   1.000  H
  C53      1.0000 0.74360  0.35380  0.76033  Biso   1.000  C
  H58      1.0000 0.74380  0.31360  0.72303  Biso   1.000  H
  H59      1.0000 0.74420  0.40960  0.74013  Biso   1.000  H
  C54      1.0000 0.83430  0.38780  0.80183  Biso   1.000  C
  H60      1.0000 0.89010  0.42780  0.77323  Biso   1.000  H
  H61      1.0000 0.83900  0.33250  0.81703  Biso   1.000  H
  C55      1.0000 0.27520  0.29680  0.53713  Biso   1.000  C
  H62      1.0000 0.26870  0.24930  0.50403  Biso   1.000  H
  H63      1.0000 0.29300  0.35660  0.51403  Biso   1.000  H
  H64      1.0000 0.21480  0.27460  0.56053  Biso   1.000  H
  N5       1.0000 0.56850  0.27580  0.75693  Biso   1.000  N
  O13      1.0000 0.48230  0.34130  0.67595  Biso   1.000  O
  O14      1.0000 0.34890  0.31190  0.58643  Biso   1.000  O
  O15      1.0000 0.47000  0.54650  0.79333  Biso   1.000  O
  H65      1.0000 0.55600  0.31100  0.74833  Biso   1.000  H
  C56      1.0000 0.74520  0.17260  0.98807  Biso   1.000  C
  C57      1.0000 0.76640  0.12380  0.93717  Biso   1.000  C
  C58      1.0000 0.85700  0.16330  0.90887  Biso   1.000  C
  H66      1.0000 0.86910  0.13120  0.87377  Biso   1.000  H
  C59      1.0000 0.93090  0.25230  0.93327  Biso   1.000  C
  H67      1.0000 0.99220  0.27870  0.91387  Biso   1.000  H
  C60      1.0000 0.91630  0.29990  0.98307  Biso   1.000  C
  H68      1.0000 0.96730  0.35810  0.99877  Biso   1.000  H
  C61      1.0000 0.82270  0.26250  0.01297  Biso   1.000  C
  C62      1.0000 0.80600  0.31720  0.06347  Biso   1.000  C
  H69      1.0000 0.85890  0.37510  0.07797  Biso   1.000  H
  C63      1.0000 0.70300  0.35390  0.13407  Biso   1.000  C
  H70      1.0000 0.76420  0.40970  0.14867  Biso   1.000  H
  C64      1.0000 0.64620  0.38980  0.09367  Biso   1.000  C
  H71      1.0000 0.68640  0.43020  0.05637  Biso   1.000  H
  H72      1.0000 0.59040  0.33460  0.07347  Biso   1.000  H
  C65      1.0000 0.61220  0.44650  0.13517  Biso   1.000  C
  H73      1.0000 0.57220  0.46230  0.10657  Biso   1.000  H
  H74      1.0000 0.66750  0.50650  0.15037  Biso   1.000  H
  C66      1.0000 0.70320  0.97840  0.87047  Biso   1.000  C
  H75      1.0000 0.75070  0.01940  0.83737  Biso   1.000  H
  H76      1.0000 0.64340  0.93640  0.84737  Biso   1.000  H
  H77      1.0000 0.72540  0.94020  0.89387  Biso   1.000  H
  N6       1.0000 0.72420  0.29270  0.09027  Biso   1.000  N
  O16      1.0000 0.65870  0.14100  0.00929  Biso   1.000  O
  O17      1.0000 0.68810  0.03700  0.91977  Biso   1.000  O
  O18      1.0000 0.45350  0.92350  0.12667  Biso   1.000  O
  H78      1.0000 0.68900  0.24500  0.08167  Biso   1.000  H
  C67      1.0000 0.42740  0.17260  0.01193  Biso   1.000  C
  C68      1.0000 0.35740  0.12380  0.06283  Biso   1.000  C
  C69      1.0000 0.30630  0.16330  0.09113  Biso   1.000  C
  H79      1.0000 0.26210  0.13120  0.12623  Biso   1.000  H
  C70      1.0000 0.32140  0.25230  0.06673  Biso   1.000  C
  H80      1.0000 0.28650  0.27870  0.08613  Biso   1.000  H
  C71      1.0000 0.38360  0.29990  0.01693  Biso   1.000  C
  H81      1.0000 0.39080  0.35810  0.00123  Biso   1.000  H
  C72      1.0000 0.43980  0.26250  0.98703  Biso   1.000  C
  C73      1.0000 0.51120  0.31720  0.93653  Biso   1.000  C
  H82      1.0000 0.51620  0.37510  0.92203  Biso   1.000  H
  C74      1.0000 0.65090  0.35390  0.86593  Biso   1.000  C
  H83      1.0000 0.64550  0.40970  0.85133  Biso   1.000  H
  C75      1.0000 0.74360  0.38980  0.90633  Biso   1.000  C
  H84      1.0000 0.74380  0.43020  0.94363  Biso   1.000  H
  H85      1.0000 0.74420  0.33460  0.92653  Biso   1.000  H
  C76      1.0000 0.83430  0.44650  0.86483  Biso   1.000  C
  H86      1.0000 0.89010  0.46230  0.89343  Biso   1.000  H
  H87      1.0000 0.83900  0.50650  0.84963  Biso   1.000  H
  C77      1.0000 0.27520  0.97840  0.12953  Biso   1.000  C
  H88      1.0000 0.26870  0.01940  0.16263  Biso   1.000  H
  H89      1.0000 0.29300  0.93640  0.15263  Biso   1.000  H
  H90      1.0000 0.21480  0.94020  0.10613  Biso   1.000  H
  N7       1.0000 0.56850  0.29270  0.90973  Biso   1.000  N
  O19      1.0000 0.48230  0.14100  0.99071  Biso   1.000  O
  O20      1.0000 0.34890  0.03700  0.08023  Biso   1.000  O
  O21      1.0000 0.47000  0.92350  0.87333  Biso   1.000  O
  H91      1.0000 0.55600  0.24500  0.91833  Biso   1.000  H
  C78      1.0000 0.74520  0.57260  0.67860  Biso   1.000  C
  C79      1.0000 0.76640  0.64260  0.72950  Biso   1.000  C
  C80      1.0000 0.85700  0.69370  0.75780  Biso   1.000  C
  H92      1.0000 0.86910  0.73790  0.79290  Biso   1.000  H
  C81      1.0000 0.93090  0.67860  0.73340  Biso   1.000  C
  H93      1.0000 0.99220  0.71350  0.75280  Biso   1.000  H
  C82      1.0000 0.91630  0.61640  0.68360  Biso   1.000  C
  H94      1.0000 0.96730  0.60920  0.66790  Biso   1.000  H
  C83      1.0000 0.82270  0.56020  0.65370  Biso   1.000  C
  C84      1.0000 0.80600  0.48880  0.60320  Biso   1.000  C
  H95      1.0000 0.85890  0.48380  0.58870  Biso   1.000  H
  C85      1.0000 0.70300  0.34910  0.53260  Biso   1.000  C
  H96      1.0000 0.76420  0.35450  0.51800  Biso   1.000  H
  C86      1.0000 0.64620  0.25640  0.57300  Biso   1.000  C
  H97      1.0000 0.68640  0.25620  0.61030  Biso   1.000  H
  H98      1.0000 0.59040  0.25580  0.59320  Biso   1.000  H
  C87      1.0000 0.61220  0.16570  0.53150  Biso   1.000  C
  H99      1.0000 0.57220  0.10990  0.56010  Biso   1.000  H
  H100     1.0000 0.66750  0.16100  0.51630  Biso   1.000  H
  C88      1.0000 0.70320  0.72480  0.79620  Biso   1.000  C
  H101     1.0000 0.75070  0.73130  0.82930  Biso   1.000  H
  H102     1.0000 0.64340  0.70700  0.81930  Biso   1.000  H
  H103     1.0000 0.72540  0.78520  0.77280  Biso   1.000  H
  N8       1.0000 0.72420  0.43150  0.57640  Biso   1.000  N
  O22      1.0000 0.65870  0.51770  0.65738  Biso   1.000  O
  O23      1.0000 0.68810  0.65110  0.74690  Biso   1.000  O
  O24      1.0000 0.45350  0.53000  0.54000  Biso   1.000  O
  H104     1.0000 0.68900  0.44400  0.58500  Biso   1.000  H
  C89      1.0000 0.82740  0.25480  0.34527  Biso   1.000  C
  C90      1.0000 0.87620  0.23360  0.39617  Biso   1.000  C
  C91      1.0000 0.83670  0.14300  0.42447  Biso   1.000  C
  H105     1.0000 0.86880  0.13090  0.45957  Biso   1.000  H
  C92      1.0000 0.74770  0.06910  0.40007  Biso   1.000  C
  H106     1.0000 0.72130  0.00780  0.41947  Biso   1.000  H
  C93      1.0000 0.70010  0.08370  0.35027  Biso   1.000  C
  H107     1.0000 0.64190  0.03270  0.33457  Biso   1.000  H
  C94      1.0000 0.73750  0.17730  0.32037  Biso   1.000  C
  C95      1.0000 0.68280  0.19400  0.26987  Biso   1.000  C
  H108     1.0000 0.62490  0.14110  0.25537  Biso   1.000  H
  C96      1.0000 0.64610  0.29700  0.19927  Biso   1.000  C
  H109     1.0000 0.59030  0.23580  0.18467  Biso   1.000  H
  C97      1.0000 0.61020  0.35380  0.23967  Biso   1.000  C
  H110     1.0000 0.56980  0.31360  0.27697  Biso   1.000  H
  H111     1.0000 0.66540  0.40960  0.25987  Biso   1.000  H
  C98      1.0000 0.55350  0.38780  0.19817  Biso   1.000  C
  H112     1.0000 0.53770  0.42780  0.22677  Biso   1.000  H
  H113     1.0000 0.49350  0.33250  0.18297  Biso   1.000  H
  C99      1.0000 0.02160  0.29680  0.46287  Biso   1.000  C
  H114     1.0000 0.98060  0.24930  0.49597  Biso   1.000  H
  H115     1.0000 0.06360  0.35660  0.48597  Biso   1.000  H
  H116     1.0000 0.05980  0.27460  0.43947  Biso   1.000  H
  N9       1.0000 0.70730  0.27580  0.24307  Biso   1.000  N
  O25      1.0000 0.85900  0.34130  0.32405  Biso   1.000  O
  O26      1.0000 0.96300  0.31190  0.41357  Biso   1.000  O
  O27      1.0000 0.07650  0.54650  0.20667  Biso   1.000  O
  H117     1.0000 0.75500  0.31100  0.25167  Biso   1.000  H
  C100     1.0000 0.57260  0.82740  0.01193  Biso   1.000  C
  C101     1.0000 0.64260  0.87620  0.06283  Biso   1.000  C
  C102     1.0000 0.69370  0.83670  0.09113  Biso   1.000  C
  H118     1.0000 0.73790  0.86880  0.12623  Biso   1.000  H
  C103     1.0000 0.67860  0.74770  0.06673  Biso   1.000  C
  H119     1.0000 0.71350  0.72130  0.08613  Biso   1.000  H
  C104     1.0000 0.61640  0.70010  0.01693  Biso   1.000  C
  H120     1.0000 0.60920  0.64190  0.00123  Biso   1.000  H
  C105     1.0000 0.56020  0.73750  0.98703  Biso   1.000  C
  C106     1.0000 0.48880  0.68280  0.93653  Biso   1.000  C
  H121     1.0000 0.48380  0.62490  0.92203  Biso   1.000  H
  C107     1.0000 0.34910  0.64610  0.86593  Biso   1.000  C
  H122     1.0000 0.35450  0.59030  0.85133  Biso   1.000  H
  C108     1.0000 0.25640  0.61020  0.90633  Biso   1.000  C
  H123     1.0000 0.25620  0.56980  0.94363  Biso   1.000  H
  H124     1.0000 0.25580  0.66540  0.92653  Biso   1.000  H
  C109     1.0000 0.16570  0.55350  0.86483  Biso   1.000  C
  H125     1.0000 0.10990  0.53770  0.89343  Biso   1.000  H
  H126     1.0000 0.16100  0.49350  0.84963  Biso   1.000  H
  C110     1.0000 0.72480  0.02160  0.12953  Biso   1.000  C
  H127     1.0000 0.73130  0.98060  0.16263  Biso   1.000  H
  H128     1.0000 0.70700  0.06360  0.15263  Biso   1.000  H
  H129     1.0000 0.78520  0.05980  0.10613  Biso   1.000  H
  N10      1.0000 0.43150  0.70730  0.90973  Biso   1.000  N
  O28      1.0000 0.51770  0.85900  0.99071  Biso   1.000  O
  O29      1.0000 0.65110  0.96300  0.08023  Biso   1.000  O
  O30      1.0000 0.53000  0.07650  0.87333  Biso   1.000  O
  H130     1.0000 0.44400  0.75500  0.91833  Biso   1.000  H
  C111     1.0000 0.25480  0.42740  0.67860  Biso   1.000  C
  C112     1.0000 0.23360  0.35740  0.72950  Biso   1.000  C
  C113     1.0000 0.14300  0.30630  0.75780  Biso   1.000  C
  H131     1.0000 0.13090  0.26210  0.79290  Biso   1.000  H
  C114     1.0000 0.06910  0.32140  0.73340  Biso   1.000  C
  H132     1.0000 0.00780  0.28650  0.75280  Biso   1.000  H
  C115     1.0000 0.08370  0.38360  0.68360  Biso   1.000  C
  H133     1.0000 0.03270  0.39080  0.66790  Biso   1.000  H
  C116     1.0000 0.17730  0.43980  0.65370  Biso   1.000  C
  C117     1.0000 0.19400  0.51120  0.60320  Biso   1.000  C
  H134     1.0000 0.14110  0.51620  0.58870  Biso   1.000  H
  C118     1.0000 0.29700  0.65090  0.53260  Biso   1.000  C
  H135     1.0000 0.23580  0.64550  0.51800  Biso   1.000  H
  C119     1.0000 0.35380  0.74360  0.57300  Biso   1.000  C
  H136     1.0000 0.31360  0.74380  0.61030  Biso   1.000  H
  H137     1.0000 0.40960  0.74420  0.59320  Biso   1.000  H
  C120     1.0000 0.38780  0.83430  0.53150  Biso   1.000  C
  H138     1.0000 0.42780  0.89010  0.56010  Biso   1.000  H
  H139     1.0000 0.33250  0.83900  0.51630  Biso   1.000  H
  C121     1.0000 0.29680  0.27520  0.79620  Biso   1.000  C
  H140     1.0000 0.24930  0.26870  0.82930  Biso   1.000  H
  H141     1.0000 0.35660  0.29300  0.81930  Biso   1.000  H
  H142     1.0000 0.27460  0.21480  0.77280  Biso   1.000  H
  N11      1.0000 0.27580  0.56850  0.57640  Biso   1.000  N
  O31      1.0000 0.34130  0.48230  0.65738  Biso   1.000  O
  O32      1.0000 0.31190  0.34890  0.74690  Biso   1.000  O
  O33      1.0000 0.54650  0.47000  0.54000  Biso   1.000  O
  H143     1.0000 0.31100  0.55600  0.58500  Biso   1.000  H
  C122     1.0000 0.17260  0.74520  0.34527  Biso   1.000  C
  C123     1.0000 0.12380  0.76640  0.39617  Biso   1.000  C
  C124     1.0000 0.16330  0.85700  0.42447  Biso   1.000  C
  H144     1.0000 0.13120  0.86910  0.45957  Biso   1.000  H
  C125     1.0000 0.25230  0.93090  0.40007  Biso   1.000  C
  H145     1.0000 0.27870  0.99220  0.41947  Biso   1.000  H
  C126     1.0000 0.29990  0.91630  0.35027  Biso   1.000  C
  H146     1.0000 0.35810  0.96730  0.33457  Biso   1.000  H
  C127     1.0000 0.26250  0.82270  0.32037  Biso   1.000  C
  C128     1.0000 0.31720  0.80600  0.26987  Biso   1.000  C
  H147     1.0000 0.37510  0.85890  0.25537  Biso   1.000  H
  C129     1.0000 0.35390  0.70300  0.19927  Biso   1.000  C
  H148     1.0000 0.40970  0.76420  0.18467  Biso   1.000  H
  C130     1.0000 0.38980  0.64620  0.23967  Biso   1.000  C
  H149     1.0000 0.43020  0.68640  0.27697  Biso   1.000  H
  H150     1.0000 0.33460  0.59040  0.25987  Biso   1.000  H
  C131     1.0000 0.44650  0.61220  0.19817  Biso   1.000  C
  H151     1.0000 0.46230  0.57220  0.22677  Biso   1.000  H
  H152     1.0000 0.50650  0.66750  0.18297  Biso   1.000  H
  C132     1.0000 0.97840  0.70320  0.46287  Biso   1.000  C
  H153     1.0000 0.01940  0.75070  0.49597  Biso   1.000  H
  H154     1.0000 0.93640  0.64340  0.48597  Biso   1.000  H
  H155     1.0000 0.94020  0.72540  0.43947  Biso   1.000  H
  N12      1.0000 0.29270  0.72420  0.24307  Biso   1.000  N
  O34      1.0000 0.14100  0.65870  0.32405  Biso   1.000  O
  O35      1.0000 0.03700  0.68810  0.41357  Biso   1.000  O
  O36      1.0000 0.92350  0.45350  0.20667  Biso   1.000  O
  H156     1.0000 0.24500  0.68900  0.25167  Biso   1.000  H
  Ce1      1.0000 0.00000  0.50000  0.33333  Biso   1.000  Ce
  Ce2      1.0000 0.50000  0.50000  0.66667  Biso   1.000  Ce
  Ce3      1.0000 0.50000  0.00000  0.00000  Biso   1.000  Ce
  N13      1.0000 0.00000  0.50000  0.49270  Biso   1.000  N
  O37      1.0000 0.00000  0.50000  0.55590  Biso   1.000  O
  N14      1.0000 0.50000  0.50000  0.82603  Biso   1.000  N
  O38      1.0000 0.50000  0.50000  0.88923  Biso   1.000  O
  N15      1.0000 0.50000  0.00000  0.15937  Biso   1.000  N
  O39      1.0000 0.50000  0.00000  0.22257  Biso   1.000  O
  N16      1.0000 0.50000  0.00000  0.84063  Biso   1.000  N
  O40      1.0000 0.50000  0.00000  0.77743  Biso   1.000  O
  N17      1.0000 0.50000  0.50000  0.50730  Biso   1.000  N
  O41      1.0000 0.50000  0.50000  0.44410  Biso   1.000  O
  N18      1.0000 0.00000  0.50000  0.17397  Biso   1.000  N
  O42      1.0000 0.00000  0.50000  0.11077  Biso   1.000  O
