data_FEZREJ_clean
_audit_creation_date              2014-07-02
_audit_creation_method            'Materials Studio'
_symmetry_space_group_name_H-M    'P1'
_symmetry_Int_Tables_number       1
_symmetry_cell_setting            triclinic
loop_
_symmetry_equiv_pos_as_xyz
  x,y,z
_cell_length_a                    13.3815
_cell_length_b                    17.7647
_cell_length_c                    17.7647
_cell_angle_alpha                 90.0000
_cell_angle_beta                  90.0000
_cell_angle_gamma                 90.0000
loop_
_atom_site_label
_atom_site_type_symbol
_atom_site_fract_x
_atom_site_fract_y
_atom_site_fract_z
_atom_site_U_iso_or_equiv
_atom_site_adp_type
_atom_site_occupancy
Ba1    Ba    0.17793   0.13588   0.61427   0.01267  Uiso   1.00
Ba2    Ba    0.67793   0.86412   0.38573   0.01267  Uiso   1.00
Ba3    Ba    0.42793   0.88573   0.63588   0.01267  Uiso   1.00
Ba4    Ba    0.92793   0.11427   0.36412   0.01267  Uiso   1.00
Ba5    Ba    0.07207   0.36412   0.11427   0.01267  Uiso   1.00
Ba6    Ba    0.57207   0.63588   0.88573   0.01267  Uiso   1.00
Ba7    Ba    0.82207   0.61427   0.13588   0.01267  Uiso   1.00
Ba8    Ba    0.32207   0.38573   0.86412   0.01267  Uiso   1.00
Cd1    Cd    0.25000   0.33432   0.66568   0.01267  Uiso   1.00
Cd2    Cd    0.75000   0.66568   0.33432   0.01267  Uiso   1.00
Cd3    Cd    0.50000   0.83432   0.83432   0.01267  Uiso   1.00
Cd4    Cd    0.00000   0.16568   0.16568   0.01267  Uiso   1.00
H1     H     0.16520   0.24190   0.41540   0.01267  Uiso   1.00
H2     H     0.30120   0.30290   0.22340   0.01267  Uiso   1.00
H3     H     0.42170   0.36760   0.29210   0.01267  Uiso   1.00
H4     H     0.40830   0.37370   0.42280   0.01267  Uiso   1.00
H5     H     0.66520   0.75810   0.58460   0.01267  Uiso   1.00
H6     H     0.80120   0.69710   0.77660   0.01267  Uiso   1.00
H7     H     0.92170   0.63240   0.70790   0.01267  Uiso   1.00
H8     H     0.90830   0.62630   0.57720   0.01267  Uiso   1.00
H9     H     0.41520   0.08460   0.74190   0.01267  Uiso   1.00
H10    H     0.55120   0.27660   0.80290   0.01267  Uiso   1.00
H11    H     0.67170   0.20790   0.86760   0.01267  Uiso   1.00
H12    H     0.65830   0.07720   0.87370   0.01267  Uiso   1.00
H13    H     0.91520   0.91540   0.25810   0.01267  Uiso   1.00
H14    H     0.05120   0.72340   0.19710   0.01267  Uiso   1.00
H15    H     0.17170   0.79210   0.13240   0.01267  Uiso   1.00
H16    H     0.15830   0.92280   0.12630   0.01267  Uiso   1.00
H17    H     0.08480   0.25810   0.91540   0.01267  Uiso   1.00
H18    H     0.94880   0.19710   0.72340   0.01267  Uiso   1.00
H19    H     0.82830   0.13240   0.79210   0.01267  Uiso   1.00
H20    H     0.84170   0.12630   0.92280   0.01267  Uiso   1.00
H21    H     0.58480   0.74190   0.08460   0.01267  Uiso   1.00
H22    H     0.44880   0.80290   0.27660   0.01267  Uiso   1.00
H23    H     0.32830   0.86760   0.20790   0.01267  Uiso   1.00
H24    H     0.34170   0.87370   0.07720   0.01267  Uiso   1.00
H25    H     0.83480   0.41540   0.24190   0.01267  Uiso   1.00
H26    H     0.69880   0.22340   0.30290   0.01267  Uiso   1.00
H27    H     0.57830   0.29210   0.36760   0.01267  Uiso   1.00
H28    H     0.59170   0.42280   0.37370   0.01267  Uiso   1.00
H29    H     0.33480   0.58460   0.75810   0.01267  Uiso   1.00
H30    H     0.19880   0.77660   0.69710   0.01267  Uiso   1.00
H31    H     0.07830   0.70790   0.63240   0.01267  Uiso   1.00
H32    H     0.09170   0.57720   0.62630   0.01267  Uiso   1.00
C1     C     0.28580   0.30880   0.43250   0.01267  Uiso   1.00
C2     C     0.21550   0.26820   0.39060   0.01267  Uiso   1.00
C3     C     0.21960   0.26670   0.31270   0.01267  Uiso   1.00
C4     C     0.29750   0.30420   0.27570   0.01267  Uiso   1.00
C5     C     0.36930   0.34350   0.31660   0.01267  Uiso   1.00
C6     C     0.36170   0.34630   0.39530   0.01267  Uiso   1.00
C7     C     0.27710   0.31330   0.51580   0.01267  Uiso   1.00
C8     C     0.14270   0.22550   0.26920   0.01267  Uiso   1.00
C9     C     0.78580   0.69120   0.56750   0.01267  Uiso   1.00
C10    C     0.71550   0.73180   0.60940   0.01267  Uiso   1.00
C11    C     0.71960   0.73330   0.68730   0.01267  Uiso   1.00
C12    C     0.79750   0.69580   0.72430   0.01267  Uiso   1.00
C13    C     0.86930   0.65650   0.68340   0.01267  Uiso   1.00
C14    C     0.86170   0.65370   0.60470   0.01267  Uiso   1.00
C15    C     0.77710   0.68670   0.48420   0.01267  Uiso   1.00
C16    C     0.64270   0.77450   0.73080   0.01267  Uiso   1.00
C17    C     0.53580   0.06750   0.80880   0.01267  Uiso   1.00
C18    C     0.46550   0.10940   0.76820   0.01267  Uiso   1.00
C19    C     0.46960   0.18730   0.76670   0.01267  Uiso   1.00
C20    C     0.54750   0.22430   0.80420   0.01267  Uiso   1.00
C21    C     0.61930   0.18340   0.84350   0.01267  Uiso   1.00
C22    C     0.61170   0.10470   0.84630   0.01267  Uiso   1.00
C23    C     0.52710   0.98420   0.81330   0.01267  Uiso   1.00
C24    C     0.39270   0.23080   0.72550   0.01267  Uiso   1.00
C25    C     0.03580   0.93250   0.19120   0.01267  Uiso   1.00
C26    C     0.96550   0.89060   0.23180   0.01267  Uiso   1.00
C27    C     0.96960   0.81270   0.23330   0.01267  Uiso   1.00
C28    C     0.04750   0.77570   0.19580   0.01267  Uiso   1.00
C29    C     0.11930   0.81660   0.15650   0.01267  Uiso   1.00
C30    C     0.11170   0.89530   0.15370   0.01267  Uiso   1.00
C31    C     0.02710   0.01580   0.18670   0.01267  Uiso   1.00
C32    C     0.89270   0.76920   0.27450   0.01267  Uiso   1.00
C33    C     0.96420   0.19120   0.93250   0.01267  Uiso   1.00
C34    C     0.03450   0.23180   0.89060   0.01267  Uiso   1.00
C35    C     0.03040   0.23330   0.81270   0.01267  Uiso   1.00
C36    C     0.95250   0.19580   0.77570   0.01267  Uiso   1.00
C37    C     0.88070   0.15650   0.81660   0.01267  Uiso   1.00
C38    C     0.88830   0.15370   0.89530   0.01267  Uiso   1.00
C39    C     0.97290   0.18670   0.01580   0.01267  Uiso   1.00
C40    C     0.10730   0.27450   0.76920   0.01267  Uiso   1.00
C41    C     0.46420   0.80880   0.06750   0.01267  Uiso   1.00
C42    C     0.53450   0.76820   0.10940   0.01267  Uiso   1.00
C43    C     0.53040   0.76670   0.18730   0.01267  Uiso   1.00
C44    C     0.45250   0.80420   0.22430   0.01267  Uiso   1.00
C45    C     0.38070   0.84350   0.18340   0.01267  Uiso   1.00
C46    C     0.38830   0.84630   0.10470   0.01267  Uiso   1.00
C47    C     0.47290   0.81330   0.98420   0.01267  Uiso   1.00
C48    C     0.60730   0.72550   0.23080   0.01267  Uiso   1.00
C49    C     0.71420   0.43250   0.30880   0.01267  Uiso   1.00
C50    C     0.78450   0.39060   0.26820   0.01267  Uiso   1.00
C51    C     0.78040   0.31270   0.26670   0.01267  Uiso   1.00
C52    C     0.70250   0.27570   0.30420   0.01267  Uiso   1.00
C53    C     0.63070   0.31660   0.34350   0.01267  Uiso   1.00
C54    C     0.63830   0.39530   0.34630   0.01267  Uiso   1.00
C55    C     0.72290   0.51580   0.31330   0.01267  Uiso   1.00
C56    C     0.85730   0.26920   0.22550   0.01267  Uiso   1.00
C57    C     0.21420   0.56750   0.69120   0.01267  Uiso   1.00
C58    C     0.28450   0.60940   0.73180   0.01267  Uiso   1.00
C59    C     0.28040   0.68730   0.73330   0.01267  Uiso   1.00
C60    C     0.20250   0.72430   0.69580   0.01267  Uiso   1.00
C61    C     0.13070   0.68340   0.65650   0.01267  Uiso   1.00
C62    C     0.13830   0.60470   0.65370   0.01267  Uiso   1.00
C63    C     0.22290   0.48420   0.68670   0.01267  Uiso   1.00
C64    C     0.35730   0.73080   0.77450   0.01267  Uiso   1.00
N1     N     0.95540   0.10290   0.54810   0.01267  Uiso   1.00
N2     N     0.45540   0.89710   0.45190   0.01267  Uiso   1.00
N3     N     0.20540   0.95190   0.60290   0.01267  Uiso   1.00
N4     N     0.70540   0.04810   0.39710   0.01267  Uiso   1.00
N5     N     0.29460   0.39710   0.04810   0.01267  Uiso   1.00
N6     N     0.79460   0.60290   0.95190   0.01267  Uiso   1.00
N7     N     0.04460   0.54810   0.10290   0.01267  Uiso   1.00
N8     N     0.54460   0.45190   0.89710   0.01267  Uiso   1.00
O1     O     0.02550   0.12600   0.50600   0.01267  Uiso   1.00
O2     O     0.96570   0.10510   0.61690   0.01267  Uiso   1.00
O3     O     0.88020   0.07650   0.51820   0.01267  Uiso   1.00
O4     O     0.20810   0.27730   0.54770   0.01267  Uiso   1.00
O5     O     0.33740   0.35320   0.55210   0.01267  Uiso   1.00
O6     O     0.08760   0.17930   0.30170   0.01267  Uiso   1.00
O7     O     0.13430   0.23960   0.19900   0.01267  Uiso   1.00
O8     O     0.52550   0.87400   0.49400   0.01267  Uiso   1.00
O9     O     0.46570   0.89490   0.38310   0.01267  Uiso   1.00
O10    O     0.38020   0.92350   0.48180   0.01267  Uiso   1.00
O11    O     0.70810   0.72270   0.45230   0.01267  Uiso   1.00
O12    O     0.83740   0.64680   0.44790   0.01267  Uiso   1.00
O13    O     0.58760   0.82070   0.69830   0.01267  Uiso   1.00
O14    O     0.63430   0.76040   0.80100   0.01267  Uiso   1.00
O15    O     0.27550   0.99400   0.62600   0.01267  Uiso   1.00
O16    O     0.21570   0.88310   0.60510   0.01267  Uiso   1.00
O17    O     0.13020   0.98180   0.57650   0.01267  Uiso   1.00
O18    O     0.45810   0.95230   0.77730   0.01267  Uiso   1.00
O19    O     0.58740   0.94790   0.85320   0.01267  Uiso   1.00
O20    O     0.33760   0.19830   0.67930   0.01267  Uiso   1.00
O21    O     0.38430   0.30100   0.73960   0.01267  Uiso   1.00
O22    O     0.77550   0.00600   0.37400   0.01267  Uiso   1.00
O23    O     0.71570   0.11690   0.39490   0.01267  Uiso   1.00
O24    O     0.63020   0.01820   0.42350   0.01267  Uiso   1.00
O25    O     0.95810   0.04770   0.22270   0.01267  Uiso   1.00
O26    O     0.08740   0.05210   0.14680   0.01267  Uiso   1.00
O27    O     0.83760   0.80170   0.32070   0.01267  Uiso   1.00
O28    O     0.88430   0.69900   0.26040   0.01267  Uiso   1.00
O29    O     0.22450   0.37400   0.00600   0.01267  Uiso   1.00
O30    O     0.28430   0.39490   0.11690   0.01267  Uiso   1.00
O31    O     0.36980   0.42350   0.01820   0.01267  Uiso   1.00
O32    O     0.04190   0.22270   0.04770   0.01267  Uiso   1.00
O33    O     0.91260   0.14680   0.05210   0.01267  Uiso   1.00
O34    O     0.16240   0.32070   0.80170   0.01267  Uiso   1.00
O35    O     0.11570   0.26040   0.69900   0.01267  Uiso   1.00
O36    O     0.72450   0.62600   0.99400   0.01267  Uiso   1.00
O37    O     0.78430   0.60510   0.88310   0.01267  Uiso   1.00
O38    O     0.86980   0.57650   0.98180   0.01267  Uiso   1.00
O39    O     0.54190   0.77730   0.95230   0.01267  Uiso   1.00
O40    O     0.41260   0.85320   0.94790   0.01267  Uiso   1.00
O41    O     0.66240   0.67930   0.19830   0.01267  Uiso   1.00
O42    O     0.61570   0.73960   0.30100   0.01267  Uiso   1.00
O43    O     0.97450   0.50600   0.12600   0.01267  Uiso   1.00
O44    O     0.03430   0.61690   0.10510   0.01267  Uiso   1.00
O45    O     0.11980   0.51820   0.07650   0.01267  Uiso   1.00
O46    O     0.79190   0.54770   0.27730   0.01267  Uiso   1.00
O47    O     0.66260   0.55210   0.35320   0.01267  Uiso   1.00
O48    O     0.91240   0.30170   0.17930   0.01267  Uiso   1.00
O49    O     0.86570   0.19900   0.23960   0.01267  Uiso   1.00
O50    O     0.47450   0.49400   0.87400   0.01267  Uiso   1.00
O51    O     0.53430   0.38310   0.89490   0.01267  Uiso   1.00
O52    O     0.61980   0.48180   0.92350   0.01267  Uiso   1.00
O53    O     0.29190   0.45230   0.72270   0.01267  Uiso   1.00
O54    O     0.16260   0.44790   0.64680   0.01267  Uiso   1.00
O55    O     0.41240   0.69830   0.82070   0.01267  Uiso   1.00
O56    O     0.36570   0.80100   0.76040   0.01267  Uiso   1.00
