data_image0
_cell_length_a       13.987
_cell_length_b       16.153
_cell_length_c       17.299
_cell_angle_alpha    70.01
_cell_angle_beta     79.69
_cell_angle_gamma    66.1

_symmetry_space_group_name_H-M    "P 1"
_symmetry_int_tables_number       1

loop_
  _symmetry_equiv_pos_as_xyz
  'x, y, z'

loop_
  _atom_site_label
  _atom_site_occupancy
  _atom_site_fract_x
  _atom_site_fract_y
  _atom_site_fract_z
  _atom_site_thermal_displace_type
  _atom_site_B_iso_or_equiv
  _atom_site_type_symbol
  Ni1      1.0000 0.71199  0.67213  0.63699  Biso   1.000  Ni
  C1       1.0000 0.88220  0.73940  0.64840  Biso   1.000  C
  H1       1.0000 0.86940  0.72360  0.70520  Biso   1.000  H
  C2       1.0000 0.87300  0.75910  0.52450  Biso   1.000  C
  H2       1.0000 0.85500  0.76000  0.47490  Biso   1.000  H
  C3       1.0000 0.94190  0.79780  0.53200  Biso   1.000  C
  H3       1.0000 0.97750  0.82880  0.48920  Biso   1.000  H
  C4       1.0000 0.00540  0.81370  0.64880  Biso   1.000  C
  H4       1.0000 0.02950  0.86050  0.60790  Biso   1.000  H
  H5       1.0000 0.06590  0.76030  0.67470  Biso   1.000  H
  C5       1.0000 0.93120  0.85710  0.71340  Biso   1.000  C
  C6       1.0000 0.86070  0.95030  0.69030  Biso   1.000  C
  H6       1.0000 0.86200  0.98790  0.63600  Biso   1.000  H
  C7       1.0000 0.78860  0.98750  0.74730  Biso   1.000  C
  H7       1.0000 0.74040  0.04950  0.73050  Biso   1.000  H
  C8       1.0000 0.78700  0.93320  0.83030  Biso   1.000  C
  C9       1.0000 0.85770  0.84120  0.85090  Biso   1.000  C
  H8       1.0000 0.85550  0.80310  0.90490  Biso   1.000  H
  C10      1.0000 0.93210  0.80200  0.79590  Biso   1.000  C
  H9       1.0000 0.98130  0.74060  0.81330  Biso   1.000  H
  N1       1.0000 0.67800  0.06850  0.87170  Biso   1.000  N
  N2       1.0000 0.59840  0.05420  0.00370  Biso   1.000  N
  N3       1.0000 0.69800  0.91720  0.96390  Biso   1.000  N
  C11      1.0000 0.57750  0.20900  0.91030  Biso   1.000  C
  C12      1.0000 0.59390  0.26360  0.83120  Biso   1.000  C
  H10      1.0000 0.63390  0.23500  0.79160  Biso   1.000  H
  C13      1.0000 0.54930  0.36220  0.81240  Biso   1.000  C
  H11      1.0000 0.55910  0.39920  0.75930  Biso   1.000  H
  C14      1.0000 0.49100  0.40640  0.87030  Biso   1.000  C
  C15      1.0000 0.47850  0.35080  0.94640  Biso   1.000  C
  H12      1.0000 0.43960  0.37910  0.98650  Biso   1.000  H
  C16      1.0000 0.52110  0.25450  0.96670  Biso   1.000  C
  H13      1.0000 0.51150  0.21880  0.02040  Biso   1.000  H
  C17      1.0000 0.44030  0.51220  0.84920  Biso   1.000  C
  H14      1.0000 0.36540  0.53050  0.84770  Biso   1.000  H
  H15      1.0000 0.45240  0.53180  0.89250  Biso   1.000  H
  C18      1.0000 0.61630  0.90220  0.10020  Biso   1.000  C
  C19      1.0000 0.55290  0.94250  0.15690  Biso   1.000  C
  H16      1.0000 0.52260  0.00820  0.14390  Biso   1.000  H
  C20      1.0000 0.53250  0.88670  0.23460  Biso   1.000  C
  H17      1.0000 0.48820  0.91620  0.27230  Biso   1.000  H
  C21      1.0000 0.64400  0.74920  0.19760  Biso   1.000  C
  H18      1.0000 0.67670  0.68350  0.21090  Biso   1.000  H
  C22      1.0000 0.66320  0.80490  0.12070  Biso   1.000  C
  H19      1.0000 0.70810  0.77660  0.08250  Biso   1.000  H
  C23      1.0000 0.79620  0.46160  0.65220  Biso   1.000  C
  H20      1.0000 0.73010  0.46830  0.64150  Biso   1.000  H
  C24      1.0000 0.92290  0.49170  0.67070  Biso   1.000  C
  H21      1.0000 0.96190  0.52440  0.67540  Biso   1.000  H
  C25      1.0000 0.96110  0.39900  0.67490  Biso   1.000  C
  H22      1.0000 0.02980  0.35640  0.68410  Biso   1.000  H
  C26      1.0000 0.88710  0.28980  0.65850  Biso   1.000  C
  H23      1.0000 0.94610  0.26840  0.62150  Biso   1.000  H
  H24      1.0000 0.82440  0.29950  0.63450  Biso   1.000  H
  C27      1.0000 0.90010  0.21270  0.73890  Biso   1.000  C
  C28      1.0000 0.85660  0.23250  0.81180  Biso   1.000  C
  H25      1.0000 0.82490  0.29520  0.81260  Biso   1.000  H
  C29      1.0000 0.86020  0.15910  0.88400  Biso   1.000  C
  H26      1.0000 0.82750  0.17350  0.93210  Biso   1.000  H
  C30      1.0000 0.91070  0.06610  0.88590  Biso   1.000  C
  C31      1.0000 0.95710  0.04510  0.81380  Biso   1.000  C
  H27      1.0000 0.99150  0.98240  0.81370  Biso   1.000  H
  C32      1.0000 0.95140  0.11930  0.74140  Biso   1.000  C
  H28      1.0000 0.98360  0.10500  0.69320  Biso   1.000  H
  N4       1.0000 0.85430  0.01020  0.02760  Biso   1.000  N
  N5       1.0000 0.89980  0.84690  0.09490  Biso   1.000  N
  N6       1.0000 0.96570  0.89950  0.96090  Biso   1.000  N
  C33      1.0000 0.00940  0.73180  0.02810  Biso   1.000  C
  C34      1.0000 0.97400  0.65960  0.08360  Biso   1.000  C
  H29      1.0000 0.91710  0.67650  0.11990  Biso   1.000  H
  C35      1.0000 0.02120  0.56740  0.08460  Biso   1.000  C
  H30      1.0000 0.99370  0.52290  0.11870  Biso   1.000  H
  C36      1.0000 0.14640  0.60570  0.98000  Biso   1.000  C
  H31      1.0000 0.20410  0.58750  0.94480  Biso   1.000  H
  C37      1.0000 0.09700  0.70160  0.97670  Biso   1.000  C
  H32      1.0000 0.12290  0.74580  0.93970  Biso   1.000  H
  C38      1.0000 0.79870  0.95720  0.16990  Biso   1.000  C
  C39      1.0000 0.76100  0.04420  0.17520  Biso   1.000  C
  H33      1.0000 0.76700  0.09380  0.12980  Biso   1.000  H
  C40      1.0000 0.79090  0.88430  0.23820  Biso   1.000  C
  H34      1.0000 0.81710  0.82260  0.23510  Biso   1.000  H
  C41      1.0000 0.21820  0.40100  0.18250  Biso   1.000  C
  H35      1.0000 0.17280  0.45850  0.19060  Biso   1.000  H
  C42      1.0000 0.33110  0.26270  0.20280  Biso   1.000  C
  H36      1.0000 0.38120  0.20380  0.22720  Biso   1.000  H
  C43      1.0000 0.29680  0.29290  0.12450  Biso   1.000  C
  H37      1.0000 0.31910  0.25820  0.08710  Biso   1.000  H
  C44      1.0000 0.16310  0.43700  0.03720  Biso   1.000  C
  H38      1.0000 0.11030  0.41220  0.03800  Biso   1.000  H
  H39      1.0000 0.20850  0.43150  0.98820  Biso   1.000  H
  C45      1.0000 0.11150  0.53900  0.03400  Biso   1.000  C
  C46      1.0000 0.61860  0.72210  0.46910  Biso   1.000  C
  H40      1.0000 0.55580  0.76560  0.48340  Biso   1.000  H
  C47      1.0000 0.77260  0.62640  0.46990  Biso   1.000  C
  H41      1.0000 0.84090  0.58800  0.48530  Biso   1.000  H
  C48      1.0000 0.73270  0.63670  0.39960  Biso   1.000  C
  H42      1.0000 0.76750  0.60730  0.35930  Biso   1.000  H
  C49      1.0000 0.55720  0.72600  0.33980  Biso   1.000  C
  H43      1.0000 0.48850  0.75820  0.36200  Biso   1.000  H
  H44      1.0000 0.55650  0.66940  0.33230  Biso   1.000  H
  C50      1.0000 0.57560  0.79020  0.25670  Biso   1.000  C
  C51      1.0000 0.56260  0.58910  0.75670  Biso   1.000  C
  H45      1.0000 0.59900  0.58400  0.79920  Biso   1.000  H
  C52      1.0000 0.51800  0.61570  0.64110  Biso   1.000  C
  H46      1.0000 0.51590  0.63340  0.58410  Biso   1.000  H
  C53      1.0000 0.44940  0.58070  0.69500  Biso   1.000  C
  H47      1.0000 0.39380  0.57090  0.68190  Biso   1.000  H
  C54      1.0000 0.50050  0.15550  0.38610  Biso   1.000  C
  H48      1.0000 0.53590  0.19450  0.38280  Biso   1.000  H
  C55      1.0000 0.37710  0.10760  0.39180  Biso   1.000  C
  H49      1.0000 0.31100  0.10610  0.39340  Biso   1.000  H
  C56      1.0000 0.46780  0.03110  0.39890  Biso   1.000  C
  H50      1.0000 0.47520  0.96930  0.40510  Biso   1.000  H
  C57      1.0000 0.65790  0.01030  0.39840  Biso   1.000  C
  H51      1.0000 0.69130  0.04550  0.41190  Biso   1.000  H
  H52      1.0000 0.67090  0.95060  0.44200  Biso   1.000  H
  C58      1.0000 0.70680  0.99010  0.31820  Biso   1.000  C
  C59      1.0000 0.71140  0.06290  0.24950  Biso   1.000  C
  H53      1.0000 0.68170  0.12510  0.25170  Biso   1.000  H
  C60      1.0000 0.74420  0.90250  0.31150  Biso   1.000  C
  H54      1.0000 0.73880  0.85270  0.35680  Biso   1.000  H
  N7       1.0000 0.83630  0.72020  0.59900  Biso   1.000  N
  N8       1.0000 0.94710  0.78260  0.61000  Biso   1.000  N
  N9       1.0000 0.81770  0.53000  0.65830  Biso   1.000  N
  N10      1.0000 0.87960  0.38040  0.66290  Biso   1.000  N
  N11      1.0000 0.28040  0.33260  0.23840  Biso   1.000  N
  N12      1.0000 0.22610  0.38020  0.11210  Biso   1.000  N
  N13      1.0000 0.70060  0.67910  0.51440  Biso   1.000  N
  N14      1.0000 0.63410  0.69730  0.39990  Biso   1.000  N
  N15      1.0000 0.39560  0.18680  0.38200  Biso   1.000  N
  N16      1.0000 0.54770  0.06320  0.39510  Biso   1.000  N
  N17      1.0000 0.58790  0.62150  0.67940  Biso   1.000  N
  N18      1.0000 0.47850  0.56330  0.77010  Biso   1.000  N
  C61      1.0000 0.71410  0.97740  0.89110  Biso   1.000  C
  C62      1.0000 0.61900  0.10510  0.92940  Biso   1.000  C
  C63      1.0000 0.63730  0.96230  0.01820  Biso   1.000  C
  C64      1.0000 0.91220  0.98600  0.96150  Biso   1.000  C
  C65      1.0000 0.85460  0.93530  0.09360  Biso   1.000  C
  C66      1.0000 0.95710  0.83090  0.02770  Biso   1.000  C
  Ni2      1.0000 0.28801  0.32787  0.36301  Biso   1.000  Ni
  C67      1.0000 0.11780  0.26060  0.35160  Biso   1.000  C
  H55      1.0000 0.13060  0.27640  0.29480  Biso   1.000  H
  C68      1.0000 0.12700  0.24090  0.47550  Biso   1.000  C
  H56      1.0000 0.14500  0.24000  0.52510  Biso   1.000  H
  C69      1.0000 0.05810  0.20220  0.46800  Biso   1.000  C
  H57      1.0000 0.02250  0.17120  0.51080  Biso   1.000  H
  C70      1.0000 0.99460  0.18630  0.35120  Biso   1.000  C
  H58      1.0000 0.97050  0.13950  0.39210  Biso   1.000  H
  H59      1.0000 0.93410  0.23970  0.32530  Biso   1.000  H
  C71      1.0000 0.06880  0.14290  0.28660  Biso   1.000  C
  C72      1.0000 0.13930  0.04970  0.30970  Biso   1.000  C
  H60      1.0000 0.13800  0.01210  0.36400  Biso   1.000  H
  C73      1.0000 0.21140  0.01250  0.25270  Biso   1.000  C
  H61      1.0000 0.25960  0.95050  0.26950  Biso   1.000  H
  C74      1.0000 0.21300  0.06680  0.16970  Biso   1.000  C
  C75      1.0000 0.14230  0.15880  0.14910  Biso   1.000  C
  H62      1.0000 0.14450  0.19690  0.09510  Biso   1.000  H
  C76      1.0000 0.06790  0.19800  0.20410  Biso   1.000  C
  H63      1.0000 0.01870  0.25940  0.18670  Biso   1.000  H
  N19      1.0000 0.32200  0.93150  0.12830  Biso   1.000  N
  N20      1.0000 0.40160  0.94580  0.99630  Biso   1.000  N
  N21      1.0000 0.30200  0.08280  0.03610  Biso   1.000  N
  C77      1.0000 0.42250  0.79100  0.08970  Biso   1.000  C
  C78      1.0000 0.40610  0.73640  0.16880  Biso   1.000  C
  H64      1.0000 0.36610  0.76500  0.20840  Biso   1.000  H
  C79      1.0000 0.45070  0.63780  0.18760  Biso   1.000  C
  H65      1.0000 0.44090  0.60080  0.24070  Biso   1.000  H
  C80      1.0000 0.50900  0.59360  0.12970  Biso   1.000  C
  C81      1.0000 0.52150  0.64920  0.05360  Biso   1.000  C
  H66      1.0000 0.56040  0.62090  0.01350  Biso   1.000  H
  C82      1.0000 0.47890  0.74550  0.03330  Biso   1.000  C
  H67      1.0000 0.48850  0.78120  0.97960  Biso   1.000  H
  C83      1.0000 0.55970  0.48780  0.15080  Biso   1.000  C
  H68      1.0000 0.63460  0.46950  0.15230  Biso   1.000  H
  H69      1.0000 0.54760  0.46820  0.10750  Biso   1.000  H
  C84      1.0000 0.38370  0.09780  0.89980  Biso   1.000  C
  C85      1.0000 0.44710  0.05750  0.84310  Biso   1.000  C
  H70      1.0000 0.47740  0.99180  0.85610  Biso   1.000  H
  C86      1.0000 0.46750  0.11330  0.76540  Biso   1.000  C
  H71      1.0000 0.51180  0.08380  0.72770  Biso   1.000  H
  C87      1.0000 0.35600  0.25080  0.80240  Biso   1.000  C
  H72      1.0000 0.32330  0.31650  0.78910  Biso   1.000  H
  C88      1.0000 0.33680  0.19510  0.87930  Biso   1.000  C
  H73      1.0000 0.29190  0.22340  0.91750  Biso   1.000  H
  C89      1.0000 0.20380  0.53840  0.34780  Biso   1.000  C
  H74      1.0000 0.26990  0.53170  0.35850  Biso   1.000  H
  C90      1.0000 0.07710  0.50830  0.32930  Biso   1.000  C
  H75      1.0000 0.03810  0.47560  0.32460  Biso   1.000  H
  C91      1.0000 0.03890  0.60100  0.32510  Biso   1.000  C
  H76      1.0000 0.97020  0.64360  0.31590  Biso   1.000  H
  C92      1.0000 0.11290  0.71020  0.34150  Biso   1.000  C
  H77      1.0000 0.05390  0.73160  0.37850  Biso   1.000  H
  H78      1.0000 0.17560  0.70050  0.36550  Biso   1.000  H
  C93      1.0000 0.09990  0.78730  0.26110  Biso   1.000  C
  C94      1.0000 0.14340  0.76750  0.18820  Biso   1.000  C
  H79      1.0000 0.17510  0.70480  0.18740  Biso   1.000  H
  C95      1.0000 0.13980  0.84090  0.11600  Biso   1.000  C
  H80      1.0000 0.17250  0.82650  0.06790  Biso   1.000  H
  C96      1.0000 0.08930  0.93390  0.11410  Biso   1.000  C
  C97      1.0000 0.04290  0.95490  0.18620  Biso   1.000  C
  H81      1.0000 0.00850  0.01760  0.18630  Biso   1.000  H
  C98      1.0000 0.04860  0.88070  0.25860  Biso   1.000  C
  H82      1.0000 0.01640  0.89500  0.30680  Biso   1.000  H
  N22      1.0000 0.14570  0.98980  0.97240  Biso   1.000  N
  N23      1.0000 0.10020  0.15310  0.90510  Biso   1.000  N
  N24      1.0000 0.03430  0.10050  0.03910  Biso   1.000  N
  C99      1.0000 0.99060  0.26820  0.97190  Biso   1.000  C
  C100     1.0000 0.02600  0.34040  0.91640  Biso   1.000  C
  H83      1.0000 0.08290  0.32350  0.88010  Biso   1.000  H
  C101     1.0000 0.97880  0.43260  0.91540  Biso   1.000  C
  H84      1.0000 0.00630  0.47710  0.88130  Biso   1.000  H
  C102     1.0000 0.85360  0.39430  0.02000  Biso   1.000  C
  H85      1.0000 0.79590  0.41250  0.05520  Biso   1.000  H
  C103     1.0000 0.90300  0.29840  0.02330  Biso   1.000  C
  H86      1.0000 0.87710  0.25420  0.06030  Biso   1.000  H
  C104     1.0000 0.20130  0.04280  0.83010  Biso   1.000  C
  C105     1.0000 0.23900  0.95580  0.82480  Biso   1.000  C
  H87      1.0000 0.23300  0.90620  0.87020  Biso   1.000  H
  C106     1.0000 0.20910  0.11570  0.76180  Biso   1.000  C
  H88      1.0000 0.18290  0.17740  0.76490  Biso   1.000  H
  C107     1.0000 0.78180  0.59900  0.81750  Biso   1.000  C
  H89      1.0000 0.82720  0.54150  0.80940  Biso   1.000  H
  C108     1.0000 0.66890  0.73730  0.79720  Biso   1.000  C
  H90      1.0000 0.61880  0.79620  0.77280  Biso   1.000  H
  C109     1.0000 0.70320  0.70710  0.87550  Biso   1.000  C
  H91      1.0000 0.68090  0.74180  0.91290  Biso   1.000  H
  C110     1.0000 0.83690  0.56300  0.96280  Biso   1.000  C
  H92      1.0000 0.88970  0.58780  0.96200  Biso   1.000  H
  H93      1.0000 0.79150  0.56850  0.01180  Biso   1.000  H
  C111     1.0000 0.88850  0.46100  0.96600  Biso   1.000  C
  C112     1.0000 0.38140  0.27790  0.53090  Biso   1.000  C
  H94      1.0000 0.44420  0.23440  0.51660  Biso   1.000  H
  C113     1.0000 0.22740  0.37360  0.53010  Biso   1.000  C
  H95      1.0000 0.15910  0.41200  0.51470  Biso   1.000  H
  C114     1.0000 0.26730  0.36330  0.60040  Biso   1.000  C
  H96      1.0000 0.23250  0.39270  0.64070  Biso   1.000  H
  C115     1.0000 0.44280  0.27400  0.66020  Biso   1.000  C
  H97      1.0000 0.51150  0.24180  0.63800  Biso   1.000  H
  H98      1.0000 0.44350  0.33060  0.66770  Biso   1.000  H
  C116     1.0000 0.42440  0.20980  0.74330  Biso   1.000  C
  C117     1.0000 0.43740  0.41090  0.24330  Biso   1.000  C
  H99      1.0000 0.40100  0.41600  0.20080  Biso   1.000  H
  C118     1.0000 0.48200  0.38430  0.35890  Biso   1.000  C
  H100     1.0000 0.48410  0.36660  0.41590  Biso   1.000  H
  C119     1.0000 0.55060  0.41930  0.30500  Biso   1.000  C
  H101     1.0000 0.60620  0.42910  0.31810  Biso   1.000  H
  C120     1.0000 0.49950  0.84450  0.61390  Biso   1.000  C
  H102     1.0000 0.46410  0.80550  0.61720  Biso   1.000  H
  C121     1.0000 0.62290  0.89240  0.60820  Biso   1.000  C
  H103     1.0000 0.68900  0.89390  0.60660  Biso   1.000  H
  C122     1.0000 0.53220  0.96890  0.60110  Biso   1.000  C
  H104     1.0000 0.52480  0.03070  0.59490  Biso   1.000  H
  C123     1.0000 0.34210  0.98970  0.60160  Biso   1.000  C
  H105     1.0000 0.30870  0.95450  0.58810  Biso   1.000  H
  H106     1.0000 0.32910  0.04940  0.55800  Biso   1.000  H
  C124     1.0000 0.29320  0.00990  0.68180  Biso   1.000  C
  C125     1.0000 0.28860  0.93710  0.75050  Biso   1.000  C
  H107     1.0000 0.31830  0.87490  0.74830  Biso   1.000  H
  C126     1.0000 0.25580  0.09750  0.68850  Biso   1.000  C
  H108     1.0000 0.26120  0.14730  0.64320  Biso   1.000  H
  N25      1.0000 0.16370  0.27980  0.40100  Biso   1.000  N
  N26      1.0000 0.05290  0.21740  0.39000  Biso   1.000  N
  N27      1.0000 0.18230  0.47000  0.34170  Biso   1.000  N
  N28      1.0000 0.12040  0.61960  0.33710  Biso   1.000  N
  N29      1.0000 0.71960  0.66740  0.76160  Biso   1.000  N
  N30      1.0000 0.77390  0.61980  0.88790  Biso   1.000  N
  N31      1.0000 0.29940  0.32090  0.48560  Biso   1.000  N
  N32      1.0000 0.36590  0.30270  0.60010  Biso   1.000  N
  N33      1.0000 0.60440  0.81320  0.61800  Biso   1.000  N
  N34      1.0000 0.45230  0.93680  0.60490  Biso   1.000  N
  N35      1.0000 0.41210  0.37850  0.32060  Biso   1.000  N
  N36      1.0000 0.52150  0.43670  0.22990  Biso   1.000  N
  C127     1.0000 0.28590  0.02260  0.10890  Biso   1.000  C
  C128     1.0000 0.38100  0.89490  0.07060  Biso   1.000  C
  C129     1.0000 0.36270  0.03770  0.98180  Biso   1.000  C
  C130     1.0000 0.08780  0.01400  0.03850  Biso   1.000  C
  C131     1.0000 0.14540  0.06470  0.90640  Biso   1.000  C
  C132     1.0000 0.04290  0.16910  0.97230  Biso   1.000  C
