data_FIBHIJ_clean
_audit_creation_date              2014-07-02
_audit_creation_method            'Materials Studio'
_symmetry_space_group_name_H-M    'P1'
_symmetry_Int_Tables_number       1
_symmetry_cell_setting            triclinic
loop_
_symmetry_equiv_pos_as_xyz
  x,y,z
_cell_length_a                    11.4287
_cell_length_b                    11.7031
_cell_length_c                    12.9180
_cell_angle_alpha                 64.0050
_cell_angle_beta                  89.7830
_cell_angle_gamma                 71.1290
loop_
_atom_site_label
_atom_site_type_symbol
_atom_site_fract_x
_atom_site_fract_y
_atom_site_fract_z
_atom_site_U_iso_or_equiv
_atom_site_adp_type
_atom_site_occupancy
Cu1    Cu    0.62499   0.83158   0.91995   0.01267  Uiso   1.00
Cu2    Cu    0.45441   0.13139   0.50200   0.01267  Uiso   1.00
Cu3    Cu    0.68451   0.36193   0.20390   0.01267  Uiso   1.00
Cu4    Cu    0.37501   0.16842   0.08005   0.01267  Uiso   1.00
Cu5    Cu    0.54559   0.86861   0.49800   0.01267  Uiso   1.00
Cu6    Cu    0.31549   0.63807   0.79610   0.01267  Uiso   1.00
H1     H     0.09050   0.47920   0.06780   0.01267  Uiso   1.00
H2     H     0.03270   0.56750   0.13080   0.01267  Uiso   1.00
H3     H     0.17160   0.54200   0.10860   0.01267  Uiso   1.00
H4     H     0.31850   0.37360   0.27800   0.01267  Uiso   1.00
H5     H     0.59760   0.12480   0.78730   0.01267  Uiso   1.00
H6     H     0.21110   0.06100   0.58270   0.01267  Uiso   1.00
H7     H     0.07890   0.09170   0.52080   0.01267  Uiso   1.00
H8     H     0.19950   0.99580   0.50180   0.01267  Uiso   1.00
H9     H     0.90790   0.39040   0.23620   0.01267  Uiso   1.00
H10    H     0.93100   0.25390   0.34960   0.01267  Uiso   1.00
H11    H     0.13890   0.15530   0.19290   0.01267  Uiso   1.00
H12    H     0.10760   0.06150   0.07550   0.01267  Uiso   1.00
H13    H     0.90960   0.06910   0.02970   0.01267  Uiso   1.00
H14    H     0.66360   0.14290   0.16020   0.01267  Uiso   1.00
H15    H     0.63820   0.28260   0.04960   0.01267  Uiso   1.00
H16    H     0.54870   0.36820   0.73880   0.01267  Uiso   1.00
H17    H     0.57770   0.39850   0.84080   0.01267  Uiso   1.00
H18    H     0.68590   0.35040   0.77760   0.01267  Uiso   1.00
H19    H     0.74030   0.79010   0.15120   0.01267  Uiso   1.00
H20    H     0.78550   0.87180   0.20100   0.01267  Uiso   1.00
H21    H     0.64700   0.87590   0.20200   0.01267  Uiso   1.00
H22    H     0.90950   0.52080   0.93220   0.01267  Uiso   1.00
H23    H     0.96730   0.43250   0.86920   0.01267  Uiso   1.00
H24    H     0.82840   0.45800   0.89140   0.01267  Uiso   1.00
H25    H     0.68150   0.62640   0.72200   0.01267  Uiso   1.00
H26    H     0.40240   0.87520   0.21270   0.01267  Uiso   1.00
H27    H     0.78890   0.93900   0.41730   0.01267  Uiso   1.00
H28    H     0.92110   0.90830   0.47920   0.01267  Uiso   1.00
H29    H     0.80050   0.00420   0.49820   0.01267  Uiso   1.00
H30    H     0.09210   0.60960   0.76380   0.01267  Uiso   1.00
H31    H     0.06900   0.74610   0.65040   0.01267  Uiso   1.00
H32    H     0.86110   0.84470   0.80710   0.01267  Uiso   1.00
H33    H     0.89240   0.93850   0.92450   0.01267  Uiso   1.00
H34    H     0.09040   0.93090   0.97030   0.01267  Uiso   1.00
H35    H     0.33640   0.85710   0.83980   0.01267  Uiso   1.00
H36    H     0.36180   0.71740   0.95040   0.01267  Uiso   1.00
H37    H     0.45130   0.63180   0.26120   0.01267  Uiso   1.00
H38    H     0.42230   0.60150   0.15920   0.01267  Uiso   1.00
H39    H     0.31410   0.64960   0.22240   0.01267  Uiso   1.00
H40    H     0.25970   0.20990   0.84880   0.01267  Uiso   1.00
H41    H     0.21450   0.12820   0.79900   0.01267  Uiso   1.00
H42    H     0.35300   0.12410   0.79800   0.01267  Uiso   1.00
C1     C     0.10770   0.50280   0.12710   0.01267  Uiso   1.00
C2     C     0.15080   0.37950   0.24070   0.01267  Uiso   1.00
C3     C     0.09220   0.29110   0.31030   0.01267  Uiso   1.00
C4     C     0.17730   0.19670   0.40940   0.01267  Uiso   1.00
C5     C     0.16560   0.07520   0.51310   0.01267  Uiso   1.00
C6     C     0.96280   0.29570   0.27810   0.01267  Uiso   1.00
C7     C     0.95530   0.22800   0.20630   0.01267  Uiso   1.00
C8     C     0.05900   0.16120   0.17080   0.01267  Uiso   1.00
C9     C     0.04030   0.10410   0.10260   0.01267  Uiso   1.00
C10    C     0.92220   0.10990   0.07420   0.01267  Uiso   1.00
C11    C     0.82380   0.17540   0.11150   0.01267  Uiso   1.00
C12    C     0.69090   0.18700   0.08660   0.01267  Uiso   1.00
C13    C     0.60930   0.34130   0.80410   0.01267  Uiso   1.00
C14    C     0.63360   0.19640   0.89010   0.01267  Uiso   1.00
C15    C     0.66980   0.12560   0.00900   0.01267  Uiso   1.00
C16    C     0.67760   0.99190   0.04220   0.01267  Uiso   1.00
C17    C     0.71600   0.87180   0.15950   0.01267  Uiso   1.00
C18    C     0.52070   0.01020   0.65850   0.01267  Uiso   1.00
C19    C     0.59000   0.29410   0.31600   0.01267  Uiso   1.00
C20    C     0.65710   0.65230   0.02360   0.01267  Uiso   1.00
C21    C     0.89230   0.49720   0.87290   0.01267  Uiso   1.00
C22    C     0.84920   0.62050   0.75930   0.01267  Uiso   1.00
C23    C     0.90780   0.70890   0.68970   0.01267  Uiso   1.00
C24    C     0.82270   0.80330   0.59060   0.01267  Uiso   1.00
C25    C     0.83440   0.92480   0.48690   0.01267  Uiso   1.00
C26    C     0.03720   0.70430   0.72190   0.01267  Uiso   1.00
C27    C     0.04470   0.77200   0.79370   0.01267  Uiso   1.00
C28    C     0.94100   0.83880   0.82920   0.01267  Uiso   1.00
C29    C     0.95970   0.89590   0.89740   0.01267  Uiso   1.00
C30    C     0.07780   0.89010   0.92580   0.01267  Uiso   1.00
C31    C     0.17620   0.82460   0.88850   0.01267  Uiso   1.00
C32    C     0.30910   0.81300   0.91340   0.01267  Uiso   1.00
C33    C     0.39070   0.65870   0.19590   0.01267  Uiso   1.00
C34    C     0.36640   0.80360   0.10990   0.01267  Uiso   1.00
C35    C     0.33020   0.87440   0.99100   0.01267  Uiso   1.00
C36    C     0.32240   0.00810   0.95780   0.01267  Uiso   1.00
C37    C     0.28400   0.12820   0.84050   0.01267  Uiso   1.00
C38    C     0.47930   0.98980   0.34150   0.01267  Uiso   1.00
C39    C     0.41000   0.70590   0.68400   0.01267  Uiso   1.00
C40    C     0.34290   0.34770   0.97640   0.01267  Uiso   1.00
N1     N     0.28430   0.21930   0.40590   0.01267  Uiso   1.00
N2     N     0.26420   0.33490   0.30130   0.01267  Uiso   1.00
N3     N     0.84020   0.23500   0.17540   0.01267  Uiso   1.00
N4     N     0.62080   0.10520   0.85820   0.01267  Uiso   1.00
N5     N     0.64850   0.97870   0.94970   0.01267  Uiso   1.00
N6     N     0.56280   0.94050   0.75450   0.01267  Uiso   1.00
N7     N     0.53590   0.24490   0.38610   0.01267  Uiso   1.00
N8     N     0.67190   0.53970   0.09260   0.01267  Uiso   1.00
N9     N     0.71570   0.78070   0.59410   0.01267  Uiso   1.00
N10    N     0.73580   0.66510   0.69870   0.01267  Uiso   1.00
N11    N     0.15980   0.76500   0.82460   0.01267  Uiso   1.00
N12    N     0.37920   0.89480   0.14180   0.01267  Uiso   1.00
N13    N     0.35150   0.02130   0.05030   0.01267  Uiso   1.00
N14    N     0.43720   0.05950   0.24550   0.01267  Uiso   1.00
N15    N     0.46410   0.75510   0.61390   0.01267  Uiso   1.00
N16    N     0.32810   0.46030   0.90740   0.01267  Uiso   1.00
