data_image0
_cell_length_a       24.65
_cell_length_b       33.494
_cell_length_c       18.529
_cell_angle_alpha    90
_cell_angle_beta     90
_cell_angle_gamma    90

_symmetry_space_group_name_H-M    "P 1"
_symmetry_int_tables_number       1

loop_
  _symmetry_equiv_pos_as_xyz
  'x, y, z'

loop_
  _atom_site_label
  _atom_site_occupancy
  _atom_site_fract_x
  _atom_site_fract_y
  _atom_site_fract_z
  _atom_site_thermal_displace_type
  _atom_site_B_iso_or_equiv
  _atom_site_type_symbol
  O1       1.0000 0.05702  0.43273  0.32400  Biso   1.000  O
  C1       1.0000 0.07393  0.39938  0.34380  Biso   1.000  C
  O2       1.0000 0.05437  0.36573  0.32398  Biso   1.000  O
  C2       1.0000 0.12097  0.39695  0.39399  Biso   1.000  C
  Cu1      1.0000 0.21002  0.23273  0.46367  Biso   1.000  Cu
  O3       1.0000 0.24936  0.31657  0.51496  Biso   1.000  O
  C3       1.0000 0.14801  0.43150  0.41501  Biso   1.000  C
  H1       1.0000 0.13480  0.45690  0.40030  Biso   1.000  H
  O4       1.0000 0.18241  0.28692  0.45465  Biso   1.000  O
  C4       1.0000 0.19461  0.42895  0.45779  Biso   1.000  C
  O5       1.0000 0.32370  0.27223  0.44150  Biso   1.000  O
  C5       1.0000 0.21331  0.39168  0.47918  Biso   1.000  C
  H2       1.0000 0.24540  0.38970  0.50730  Biso   1.000  H
  O6       1.0000 0.25586  0.24346  0.38052  Biso   1.000  O
  C6       1.0000 0.18553  0.35751  0.45981  Biso   1.000  C
  C7       1.0000 0.13963  0.36061  0.41590  Biso   1.000  C
  H3       1.0000 0.12120  0.33710  0.40110  Biso   1.000  H
  C8       1.0000 0.20689  0.31655  0.47883  Biso   1.000  C
  C9       1.0000 0.22315  0.46606  0.47939  Biso   1.000  C
  C10      1.0000 0.28010  0.46763  0.47937  Biso   1.000  C
  H4       1.0000 0.29970  0.44470  0.46410  Biso   1.000  H
  C11      1.0000 0.30006  0.26134  0.38454  Biso   1.000  C
  C12      1.0000 0.32742  0.27159  0.31460  Biso   1.000  C
  C13      1.0000 0.37520  0.29358  0.31471  Biso   1.000  C
  H5       1.0000 0.39160  0.30080  0.35930  Biso   1.000  H
  C14      1.0000 0.45493  0.36262  0.29901  Biso   1.000  C
  H6       1.0000 0.42210  0.37240  0.31910  Biso   1.000  H
  O7       1.0000 0.55702  0.93273  0.32400  Biso   1.000  O
  C15      1.0000 0.57393  0.89938  0.34380  Biso   1.000  C
  O8       1.0000 0.55437  0.86573  0.32398  Biso   1.000  O
  C16      1.0000 0.62097  0.89695  0.39399  Biso   1.000  C
  Cu2      1.0000 0.71002  0.73273  0.46367  Biso   1.000  Cu
  O9       1.0000 0.74936  0.81657  0.51496  Biso   1.000  O
  C17      1.0000 0.64801  0.93150  0.41501  Biso   1.000  C
  H7       1.0000 0.63480  0.95690  0.40030  Biso   1.000  H
  O10      1.0000 0.68241  0.78692  0.45465  Biso   1.000  O
  C18      1.0000 0.69461  0.92895  0.45779  Biso   1.000  C
  O11      1.0000 0.82370  0.77223  0.44150  Biso   1.000  O
  C19      1.0000 0.71331  0.89168  0.47918  Biso   1.000  C
  H8       1.0000 0.74540  0.88970  0.50730  Biso   1.000  H
  O12      1.0000 0.75586  0.74346  0.38052  Biso   1.000  O
  C20      1.0000 0.68553  0.85751  0.45981  Biso   1.000  C
  C21      1.0000 0.63963  0.86061  0.41590  Biso   1.000  C
  H9       1.0000 0.62120  0.83710  0.40110  Biso   1.000  H
  C22      1.0000 0.70689  0.81655  0.47883  Biso   1.000  C
  C23      1.0000 0.72315  0.96606  0.47939  Biso   1.000  C
  C24      1.0000 0.78010  0.96763  0.47937  Biso   1.000  C
  H10      1.0000 0.79970  0.94470  0.46410  Biso   1.000  H
  C25      1.0000 0.80006  0.76134  0.38454  Biso   1.000  C
  C26      1.0000 0.82742  0.77159  0.31460  Biso   1.000  C
  C27      1.0000 0.87520  0.79358  0.31471  Biso   1.000  C
  H11      1.0000 0.89160  0.80080  0.35930  Biso   1.000  H
  C28      1.0000 0.95493  0.86262  0.29901  Biso   1.000  C
  H12      1.0000 0.92210  0.87240  0.31910  Biso   1.000  H
  O13      1.0000 0.94298  0.56727  0.82400  Biso   1.000  O
  C29      1.0000 0.92607  0.60062  0.84380  Biso   1.000  C
  O14      1.0000 0.94563  0.63427  0.82398  Biso   1.000  O
  C30      1.0000 0.87903  0.60305  0.89399  Biso   1.000  C
  Cu3      1.0000 0.78998  0.76727  0.96367  Biso   1.000  Cu
  O15      1.0000 0.75064  0.68343  0.01496  Biso   1.000  O
  C31      1.0000 0.85199  0.56850  0.91501  Biso   1.000  C
  H13      1.0000 0.86520  0.54310  0.90030  Biso   1.000  H
  O16      1.0000 0.81759  0.71308  0.95465  Biso   1.000  O
  C32      1.0000 0.80539  0.57105  0.95779  Biso   1.000  C
  O17      1.0000 0.67630  0.72777  0.94150  Biso   1.000  O
  C33      1.0000 0.78669  0.60832  0.97918  Biso   1.000  C
  H14      1.0000 0.75460  0.61030  0.00730  Biso   1.000  H
  O18      1.0000 0.74414  0.75654  0.88052  Biso   1.000  O
  C34      1.0000 0.81447  0.64249  0.95981  Biso   1.000  C
  C35      1.0000 0.86037  0.63939  0.91590  Biso   1.000  C
  H15      1.0000 0.87880  0.66290  0.90110  Biso   1.000  H
  C36      1.0000 0.79311  0.68345  0.97883  Biso   1.000  C
  C37      1.0000 0.77685  0.53394  0.97939  Biso   1.000  C
  C38      1.0000 0.71990  0.53237  0.97937  Biso   1.000  C
  H16      1.0000 0.70030  0.55530  0.96410  Biso   1.000  H
  C39      1.0000 0.69994  0.73866  0.88454  Biso   1.000  C
  C40      1.0000 0.67258  0.72841  0.81460  Biso   1.000  C
  C41      1.0000 0.62480  0.70642  0.81471  Biso   1.000  C
  H17      1.0000 0.60840  0.69920  0.85930  Biso   1.000  H
  C42      1.0000 0.54507  0.63738  0.79901  Biso   1.000  C
  H18      1.0000 0.57790  0.62760  0.81910  Biso   1.000  H
  O19      1.0000 0.44298  0.06727  0.82400  Biso   1.000  O
  C43      1.0000 0.42607  0.10062  0.84380  Biso   1.000  C
  O20      1.0000 0.44563  0.13427  0.82398  Biso   1.000  O
  C44      1.0000 0.37903  0.10305  0.89399  Biso   1.000  C
  Cu4      1.0000 0.28998  0.26727  0.96367  Biso   1.000  Cu
  O21      1.0000 0.25064  0.18343  0.01496  Biso   1.000  O
  C45      1.0000 0.35199  0.06850  0.91501  Biso   1.000  C
  H19      1.0000 0.36520  0.04310  0.90030  Biso   1.000  H
  O22      1.0000 0.31759  0.21308  0.95465  Biso   1.000  O
  C46      1.0000 0.30539  0.07105  0.95779  Biso   1.000  C
  O23      1.0000 0.17630  0.22777  0.94150  Biso   1.000  O
  C47      1.0000 0.28669  0.10832  0.97918  Biso   1.000  C
  H20      1.0000 0.25460  0.11030  0.00730  Biso   1.000  H
  O24      1.0000 0.24414  0.25654  0.88052  Biso   1.000  O
  C48      1.0000 0.31447  0.14249  0.95981  Biso   1.000  C
  C49      1.0000 0.36037  0.13939  0.91590  Biso   1.000  C
  H21      1.0000 0.37880  0.16290  0.90110  Biso   1.000  H
  C50      1.0000 0.29311  0.18345  0.97883  Biso   1.000  C
  C51      1.0000 0.27685  0.03394  0.97939  Biso   1.000  C
  C52      1.0000 0.21990  0.03237  0.97937  Biso   1.000  C
  H22      1.0000 0.20030  0.05530  0.96410  Biso   1.000  H
  C53      1.0000 0.19994  0.23866  0.88454  Biso   1.000  C
  C54      1.0000 0.17258  0.22841  0.81460  Biso   1.000  C
  C55      1.0000 0.12480  0.20642  0.81471  Biso   1.000  C
  H23      1.0000 0.10840  0.19920  0.85930  Biso   1.000  H
  C56      1.0000 0.04507  0.13738  0.79901  Biso   1.000  C
  H24      1.0000 0.07790  0.12760  0.81910  Biso   1.000  H
  O25      1.0000 0.94298  0.43273  0.17600  Biso   1.000  O
  C57      1.0000 0.92607  0.39938  0.15620  Biso   1.000  C
  O26      1.0000 0.94563  0.36573  0.17602  Biso   1.000  O
  C58      1.0000 0.87903  0.39695  0.10601  Biso   1.000  C
  Cu5      1.0000 0.78998  0.23273  0.03633  Biso   1.000  Cu
  O27      1.0000 0.75064  0.31657  0.98504  Biso   1.000  O
  C59      1.0000 0.85199  0.43150  0.08499  Biso   1.000  C
  H25      1.0000 0.86520  0.45690  0.09970  Biso   1.000  H
  O28      1.0000 0.81759  0.28692  0.04535  Biso   1.000  O
  C60      1.0000 0.80539  0.42895  0.04221  Biso   1.000  C
  O29      1.0000 0.67630  0.27223  0.05850  Biso   1.000  O
  C61      1.0000 0.78669  0.39168  0.02082  Biso   1.000  C
  H26      1.0000 0.75460  0.38970  0.99270  Biso   1.000  H
  O30      1.0000 0.74414  0.24346  0.11948  Biso   1.000  O
  C62      1.0000 0.81447  0.35751  0.04019  Biso   1.000  C
  C63      1.0000 0.86037  0.36061  0.08410  Biso   1.000  C
  H27      1.0000 0.87880  0.33710  0.09890  Biso   1.000  H
  C64      1.0000 0.79311  0.31655  0.02117  Biso   1.000  C
  C65      1.0000 0.77685  0.46606  0.02061  Biso   1.000  C
  C66      1.0000 0.71990  0.46763  0.02063  Biso   1.000  C
  H28      1.0000 0.70030  0.44470  0.03590  Biso   1.000  H
  C67      1.0000 0.69994  0.26134  0.11546  Biso   1.000  C
  C68      1.0000 0.67258  0.27159  0.18540  Biso   1.000  C
  C69      1.0000 0.62480  0.29358  0.18529  Biso   1.000  C
  H29      1.0000 0.60840  0.30080  0.14070  Biso   1.000  H
  C70      1.0000 0.54507  0.36262  0.20099  Biso   1.000  C
  H30      1.0000 0.57790  0.37240  0.18090  Biso   1.000  H
  O31      1.0000 0.44298  0.93273  0.17600  Biso   1.000  O
  C71      1.0000 0.42607  0.89938  0.15620  Biso   1.000  C
  O32      1.0000 0.44563  0.86573  0.17602  Biso   1.000  O
  C72      1.0000 0.37903  0.89695  0.10601  Biso   1.000  C
  Cu6      1.0000 0.28998  0.73273  0.03633  Biso   1.000  Cu
  O33      1.0000 0.25064  0.81657  0.98504  Biso   1.000  O
  C73      1.0000 0.35199  0.93150  0.08499  Biso   1.000  C
  H31      1.0000 0.36520  0.95690  0.09970  Biso   1.000  H
  O34      1.0000 0.31759  0.78692  0.04535  Biso   1.000  O
  C74      1.0000 0.30539  0.92895  0.04221  Biso   1.000  C
  O35      1.0000 0.17630  0.77223  0.05850  Biso   1.000  O
  C75      1.0000 0.28669  0.89168  0.02082  Biso   1.000  C
  H32      1.0000 0.25460  0.88970  0.99270  Biso   1.000  H
  O36      1.0000 0.24414  0.74346  0.11948  Biso   1.000  O
  C76      1.0000 0.31447  0.85751  0.04019  Biso   1.000  C
  C77      1.0000 0.36037  0.86061  0.08410  Biso   1.000  C
  H33      1.0000 0.37880  0.83710  0.09890  Biso   1.000  H
  C78      1.0000 0.29311  0.81655  0.02117  Biso   1.000  C
  C79      1.0000 0.27685  0.96606  0.02061  Biso   1.000  C
  C80      1.0000 0.21990  0.96763  0.02063  Biso   1.000  C
  H34      1.0000 0.20030  0.94470  0.03590  Biso   1.000  H
  C81      1.0000 0.19994  0.76134  0.11546  Biso   1.000  C
  C82      1.0000 0.17258  0.77159  0.18540  Biso   1.000  C
  C83      1.0000 0.12480  0.79358  0.18529  Biso   1.000  C
  H35      1.0000 0.10840  0.80080  0.14070  Biso   1.000  H
  C84      1.0000 0.04507  0.86262  0.20099  Biso   1.000  C
  H36      1.0000 0.07790  0.87240  0.18090  Biso   1.000  H
  O37      1.0000 0.05702  0.56727  0.67600  Biso   1.000  O
  C85      1.0000 0.07393  0.60062  0.65620  Biso   1.000  C
  O38      1.0000 0.05437  0.63427  0.67602  Biso   1.000  O
  C86      1.0000 0.12097  0.60305  0.60601  Biso   1.000  C
  Cu7      1.0000 0.21002  0.76727  0.53633  Biso   1.000  Cu
  O39      1.0000 0.24936  0.68343  0.48504  Biso   1.000  O
  C87      1.0000 0.14801  0.56850  0.58499  Biso   1.000  C
  H37      1.0000 0.13480  0.54310  0.59970  Biso   1.000  H
  O40      1.0000 0.18241  0.71308  0.54535  Biso   1.000  O
  C88      1.0000 0.19461  0.57105  0.54221  Biso   1.000  C
  O41      1.0000 0.32370  0.72777  0.55850  Biso   1.000  O
  C89      1.0000 0.21331  0.60832  0.52082  Biso   1.000  C
  H38      1.0000 0.24540  0.61030  0.49270  Biso   1.000  H
  O42      1.0000 0.25586  0.75654  0.61948  Biso   1.000  O
  C90      1.0000 0.18553  0.64249  0.54019  Biso   1.000  C
  C91      1.0000 0.13963  0.63939  0.58410  Biso   1.000  C
  H39      1.0000 0.12120  0.66290  0.59890  Biso   1.000  H
  C92      1.0000 0.20689  0.68345  0.52117  Biso   1.000  C
  C93      1.0000 0.22315  0.53394  0.52061  Biso   1.000  C
  C94      1.0000 0.28010  0.53237  0.52063  Biso   1.000  C
  H40      1.0000 0.29970  0.55530  0.53590  Biso   1.000  H
  C95      1.0000 0.30006  0.73866  0.61546  Biso   1.000  C
  C96      1.0000 0.32742  0.72841  0.68540  Biso   1.000  C
  C97      1.0000 0.37520  0.70642  0.68529  Biso   1.000  C
  H41      1.0000 0.39160  0.69920  0.64070  Biso   1.000  H
  C98      1.0000 0.45493  0.63738  0.70099  Biso   1.000  C
  H42      1.0000 0.42210  0.62760  0.68090  Biso   1.000  H
  O43      1.0000 0.55702  0.06727  0.67600  Biso   1.000  O
  C99      1.0000 0.57393  0.10062  0.65620  Biso   1.000  C
  O44      1.0000 0.55437  0.13427  0.67602  Biso   1.000  O
  C100     1.0000 0.62097  0.10305  0.60601  Biso   1.000  C
  Cu8      1.0000 0.71002  0.26727  0.53633  Biso   1.000  Cu
  O45      1.0000 0.74936  0.18343  0.48504  Biso   1.000  O
  C101     1.0000 0.64801  0.06850  0.58499  Biso   1.000  C
  H43      1.0000 0.63480  0.04310  0.59970  Biso   1.000  H
  O46      1.0000 0.68241  0.21308  0.54535  Biso   1.000  O
  C102     1.0000 0.69461  0.07105  0.54221  Biso   1.000  C
  O47      1.0000 0.82370  0.22777  0.55850  Biso   1.000  O
  C103     1.0000 0.71331  0.10832  0.52082  Biso   1.000  C
  H44      1.0000 0.74540  0.11030  0.49270  Biso   1.000  H
  O48      1.0000 0.75586  0.25654  0.61948  Biso   1.000  O
  C104     1.0000 0.68553  0.14249  0.54019  Biso   1.000  C
  C105     1.0000 0.63963  0.13939  0.58410  Biso   1.000  C
  H45      1.0000 0.62120  0.16290  0.59890  Biso   1.000  H
  C106     1.0000 0.70689  0.18345  0.52117  Biso   1.000  C
  C107     1.0000 0.72315  0.03394  0.52061  Biso   1.000  C
  C108     1.0000 0.78010  0.03237  0.52063  Biso   1.000  C
  H46      1.0000 0.79970  0.05530  0.53590  Biso   1.000  H
  C109     1.0000 0.80006  0.23866  0.61546  Biso   1.000  C
  C110     1.0000 0.82742  0.22841  0.68540  Biso   1.000  C
  C111     1.0000 0.87520  0.20642  0.68529  Biso   1.000  C
  H47      1.0000 0.89160  0.19920  0.64070  Biso   1.000  H
  C112     1.0000 0.95493  0.13738  0.70099  Biso   1.000  C
  H48      1.0000 0.92210  0.12760  0.68090  Biso   1.000  H
  O49      1.0000 0.94298  0.56727  0.67600  Biso   1.000  O
  C113     1.0000 0.92607  0.60062  0.65620  Biso   1.000  C
  O50      1.0000 0.94563  0.63427  0.67602  Biso   1.000  O
  C114     1.0000 0.87903  0.60305  0.60601  Biso   1.000  C
  Cu9      1.0000 0.78998  0.76727  0.53633  Biso   1.000  Cu
  O51      1.0000 0.75064  0.68343  0.48504  Biso   1.000  O
  C115     1.0000 0.85199  0.56850  0.58499  Biso   1.000  C
  H49      1.0000 0.86520  0.54310  0.59970  Biso   1.000  H
  O52      1.0000 0.81759  0.71308  0.54535  Biso   1.000  O
  C116     1.0000 0.80539  0.57105  0.54221  Biso   1.000  C
  O53      1.0000 0.67630  0.72777  0.55850  Biso   1.000  O
  C117     1.0000 0.78669  0.60832  0.52082  Biso   1.000  C
  H50      1.0000 0.75460  0.61030  0.49270  Biso   1.000  H
  O54      1.0000 0.74414  0.75654  0.61948  Biso   1.000  O
  C118     1.0000 0.81447  0.64249  0.54019  Biso   1.000  C
  C119     1.0000 0.86037  0.63939  0.58410  Biso   1.000  C
  H51      1.0000 0.87880  0.66290  0.59890  Biso   1.000  H
  C120     1.0000 0.79311  0.68345  0.52117  Biso   1.000  C
  C121     1.0000 0.77685  0.53394  0.52061  Biso   1.000  C
  C122     1.0000 0.71990  0.53237  0.52063  Biso   1.000  C
  H52      1.0000 0.70030  0.55530  0.53590  Biso   1.000  H
  C123     1.0000 0.69994  0.73866  0.61546  Biso   1.000  C
  C124     1.0000 0.67258  0.72841  0.68540  Biso   1.000  C
  C125     1.0000 0.62480  0.70642  0.68529  Biso   1.000  C
  H53      1.0000 0.60840  0.69920  0.64070  Biso   1.000  H
  C126     1.0000 0.54507  0.63738  0.70099  Biso   1.000  C
  H54      1.0000 0.57790  0.62760  0.68090  Biso   1.000  H
  O55      1.0000 0.44298  0.06727  0.67600  Biso   1.000  O
  C127     1.0000 0.42607  0.10062  0.65620  Biso   1.000  C
  O56      1.0000 0.44563  0.13427  0.67602  Biso   1.000  O
  C128     1.0000 0.37903  0.10305  0.60601  Biso   1.000  C
  Cu10     1.0000 0.28998  0.26727  0.53633  Biso   1.000  Cu
  O57      1.0000 0.25064  0.18343  0.48504  Biso   1.000  O
  C129     1.0000 0.35199  0.06850  0.58499  Biso   1.000  C
  H55      1.0000 0.36520  0.04310  0.59970  Biso   1.000  H
  O58      1.0000 0.31759  0.21308  0.54535  Biso   1.000  O
  C130     1.0000 0.30539  0.07105  0.54221  Biso   1.000  C
  O59      1.0000 0.17630  0.22777  0.55850  Biso   1.000  O
  C131     1.0000 0.28669  0.10832  0.52082  Biso   1.000  C
  H56      1.0000 0.25460  0.11030  0.49270  Biso   1.000  H
  O60      1.0000 0.24414  0.25654  0.61948  Biso   1.000  O
  C132     1.0000 0.31447  0.14249  0.54019  Biso   1.000  C
  C133     1.0000 0.36037  0.13939  0.58410  Biso   1.000  C
  H57      1.0000 0.37880  0.16290  0.59890  Biso   1.000  H
  C134     1.0000 0.29311  0.18345  0.52117  Biso   1.000  C
  C135     1.0000 0.27685  0.03394  0.52061  Biso   1.000  C
  C136     1.0000 0.21990  0.03237  0.52063  Biso   1.000  C
  H58      1.0000 0.20030  0.05530  0.53590  Biso   1.000  H
  C137     1.0000 0.19994  0.23866  0.61546  Biso   1.000  C
  C138     1.0000 0.17258  0.22841  0.68540  Biso   1.000  C
  C139     1.0000 0.12480  0.20642  0.68529  Biso   1.000  C
  H59      1.0000 0.10840  0.19920  0.64070  Biso   1.000  H
  C140     1.0000 0.04507  0.13738  0.70099  Biso   1.000  C
  H60      1.0000 0.07790  0.12760  0.68090  Biso   1.000  H
  O61      1.0000 0.05702  0.43273  0.17600  Biso   1.000  O
  C141     1.0000 0.07393  0.39938  0.15620  Biso   1.000  C
  O62      1.0000 0.05437  0.36573  0.17602  Biso   1.000  O
  C142     1.0000 0.12097  0.39695  0.10601  Biso   1.000  C
  Cu11     1.0000 0.21002  0.23273  0.03633  Biso   1.000  Cu
  O63      1.0000 0.24936  0.31657  0.98504  Biso   1.000  O
  C143     1.0000 0.14801  0.43150  0.08499  Biso   1.000  C
  H61      1.0000 0.13480  0.45690  0.09970  Biso   1.000  H
  O64      1.0000 0.18241  0.28692  0.04535  Biso   1.000  O
  C144     1.0000 0.19461  0.42895  0.04221  Biso   1.000  C
  O65      1.0000 0.32370  0.27223  0.05850  Biso   1.000  O
  C145     1.0000 0.21331  0.39168  0.02082  Biso   1.000  C
  H62      1.0000 0.24540  0.38970  0.99270  Biso   1.000  H
  O66      1.0000 0.25586  0.24346  0.11948  Biso   1.000  O
  C146     1.0000 0.18553  0.35751  0.04019  Biso   1.000  C
  C147     1.0000 0.13963  0.36061  0.08410  Biso   1.000  C
  H63      1.0000 0.12120  0.33710  0.09890  Biso   1.000  H
  C148     1.0000 0.20689  0.31655  0.02117  Biso   1.000  C
  C149     1.0000 0.22315  0.46606  0.02061  Biso   1.000  C
  C150     1.0000 0.28010  0.46763  0.02063  Biso   1.000  C
  H64      1.0000 0.29970  0.44470  0.03590  Biso   1.000  H
  C151     1.0000 0.30006  0.26134  0.11546  Biso   1.000  C
  C152     1.0000 0.32742  0.27159  0.18540  Biso   1.000  C
  C153     1.0000 0.37520  0.29358  0.18529  Biso   1.000  C
  H65      1.0000 0.39160  0.30080  0.14070  Biso   1.000  H
  C154     1.0000 0.45493  0.36262  0.20099  Biso   1.000  C
  H66      1.0000 0.42210  0.37240  0.18090  Biso   1.000  H
  O67      1.0000 0.55702  0.93273  0.17600  Biso   1.000  O
  C155     1.0000 0.57393  0.89938  0.15620  Biso   1.000  C
  O68      1.0000 0.55437  0.86573  0.17602  Biso   1.000  O
  C156     1.0000 0.62097  0.89695  0.10601  Biso   1.000  C
  Cu12     1.0000 0.71002  0.73273  0.03633  Biso   1.000  Cu
  O69      1.0000 0.74936  0.81657  0.98504  Biso   1.000  O
  C157     1.0000 0.64801  0.93150  0.08499  Biso   1.000  C
  H67      1.0000 0.63480  0.95690  0.09970  Biso   1.000  H
  O70      1.0000 0.68241  0.78692  0.04535  Biso   1.000  O
  C158     1.0000 0.69461  0.92895  0.04221  Biso   1.000  C
  O71      1.0000 0.82370  0.77223  0.05850  Biso   1.000  O
  C159     1.0000 0.71331  0.89168  0.02082  Biso   1.000  C
  H68      1.0000 0.74540  0.88970  0.99270  Biso   1.000  H
  O72      1.0000 0.75586  0.74346  0.11948  Biso   1.000  O
  C160     1.0000 0.68553  0.85751  0.04019  Biso   1.000  C
  C161     1.0000 0.63963  0.86061  0.08410  Biso   1.000  C
  H69      1.0000 0.62120  0.83710  0.09890  Biso   1.000  H
  C162     1.0000 0.70689  0.81655  0.02117  Biso   1.000  C
  C163     1.0000 0.72315  0.96606  0.02061  Biso   1.000  C
  C164     1.0000 0.78010  0.96763  0.02063  Biso   1.000  C
  H70      1.0000 0.79970  0.94470  0.03590  Biso   1.000  H
  C165     1.0000 0.80006  0.76134  0.11546  Biso   1.000  C
  C166     1.0000 0.82742  0.77159  0.18540  Biso   1.000  C
  C167     1.0000 0.87520  0.79358  0.18529  Biso   1.000  C
  H71      1.0000 0.89160  0.80080  0.14070  Biso   1.000  H
  C168     1.0000 0.95493  0.86262  0.20099  Biso   1.000  C
  H72      1.0000 0.92210  0.87240  0.18090  Biso   1.000  H
  O73      1.0000 0.05702  0.56727  0.82400  Biso   1.000  O
  C169     1.0000 0.07393  0.60062  0.84380  Biso   1.000  C
  O74      1.0000 0.05437  0.63427  0.82398  Biso   1.000  O
  C170     1.0000 0.12097  0.60305  0.89399  Biso   1.000  C
  Cu13     1.0000 0.21002  0.76727  0.96367  Biso   1.000  Cu
  O75      1.0000 0.24936  0.68343  0.01496  Biso   1.000  O
  C171     1.0000 0.14801  0.56850  0.91501  Biso   1.000  C
  H73      1.0000 0.13480  0.54310  0.90030  Biso   1.000  H
  O76      1.0000 0.18241  0.71308  0.95465  Biso   1.000  O
  C172     1.0000 0.19461  0.57105  0.95779  Biso   1.000  C
  O77      1.0000 0.32370  0.72777  0.94150  Biso   1.000  O
  C173     1.0000 0.21331  0.60832  0.97918  Biso   1.000  C
  H74      1.0000 0.24540  0.61030  0.00730  Biso   1.000  H
  O78      1.0000 0.25586  0.75654  0.88052  Biso   1.000  O
  C174     1.0000 0.18553  0.64249  0.95981  Biso   1.000  C
  C175     1.0000 0.13963  0.63939  0.91590  Biso   1.000  C
  H75      1.0000 0.12120  0.66290  0.90110  Biso   1.000  H
  C176     1.0000 0.20689  0.68345  0.97883  Biso   1.000  C
  C177     1.0000 0.22315  0.53394  0.97939  Biso   1.000  C
  C178     1.0000 0.28010  0.53237  0.97937  Biso   1.000  C
  H76      1.0000 0.29970  0.55530  0.96410  Biso   1.000  H
  C179     1.0000 0.30006  0.73866  0.88454  Biso   1.000  C
  C180     1.0000 0.32742  0.72841  0.81460  Biso   1.000  C
  C181     1.0000 0.37520  0.70642  0.81471  Biso   1.000  C
  H77      1.0000 0.39160  0.69920  0.85930  Biso   1.000  H
  C182     1.0000 0.45493  0.63738  0.79901  Biso   1.000  C
  H78      1.0000 0.42210  0.62760  0.81910  Biso   1.000  H
  O79      1.0000 0.55702  0.06727  0.82400  Biso   1.000  O
  C183     1.0000 0.57393  0.10062  0.84380  Biso   1.000  C
  O80      1.0000 0.55437  0.13427  0.82398  Biso   1.000  O
  C184     1.0000 0.62097  0.10305  0.89399  Biso   1.000  C
  Cu14     1.0000 0.71002  0.26727  0.96367  Biso   1.000  Cu
  O81      1.0000 0.74936  0.18343  0.01496  Biso   1.000  O
  C185     1.0000 0.64801  0.06850  0.91501  Biso   1.000  C
  H79      1.0000 0.63480  0.04310  0.90030  Biso   1.000  H
  O82      1.0000 0.68241  0.21308  0.95465  Biso   1.000  O
  C186     1.0000 0.69461  0.07105  0.95779  Biso   1.000  C
  O83      1.0000 0.82370  0.22777  0.94150  Biso   1.000  O
  C187     1.0000 0.71331  0.10832  0.97918  Biso   1.000  C
  H80      1.0000 0.74540  0.11030  0.00730  Biso   1.000  H
  O84      1.0000 0.75586  0.25654  0.88052  Biso   1.000  O
  C188     1.0000 0.68553  0.14249  0.95981  Biso   1.000  C
  C189     1.0000 0.63963  0.13939  0.91590  Biso   1.000  C
  H81      1.0000 0.62120  0.16290  0.90110  Biso   1.000  H
  C190     1.0000 0.70689  0.18345  0.97883  Biso   1.000  C
  C191     1.0000 0.72315  0.03394  0.97939  Biso   1.000  C
  C192     1.0000 0.78010  0.03237  0.97937  Biso   1.000  C
  H82      1.0000 0.79970  0.05530  0.96410  Biso   1.000  H
  C193     1.0000 0.80006  0.23866  0.88454  Biso   1.000  C
  C194     1.0000 0.82742  0.22841  0.81460  Biso   1.000  C
  C195     1.0000 0.87520  0.20642  0.81471  Biso   1.000  C
  H83      1.0000 0.89160  0.19920  0.85930  Biso   1.000  H
  C196     1.0000 0.95493  0.13738  0.79901  Biso   1.000  C
  H84      1.0000 0.92210  0.12760  0.81910  Biso   1.000  H
  O85      1.0000 0.94298  0.43273  0.32400  Biso   1.000  O
  C197     1.0000 0.92607  0.39938  0.34380  Biso   1.000  C
  O86      1.0000 0.94563  0.36573  0.32398  Biso   1.000  O
  C198     1.0000 0.87903  0.39695  0.39399  Biso   1.000  C
  Cu15     1.0000 0.78998  0.23273  0.46367  Biso   1.000  Cu
  O87      1.0000 0.75064  0.31657  0.51496  Biso   1.000  O
  C199     1.0000 0.85199  0.43150  0.41501  Biso   1.000  C
  H85      1.0000 0.86520  0.45690  0.40030  Biso   1.000  H
  O88      1.0000 0.81759  0.28692  0.45465  Biso   1.000  O
  C200     1.0000 0.80539  0.42895  0.45779  Biso   1.000  C
  O89      1.0000 0.67630  0.27223  0.44150  Biso   1.000  O
  C201     1.0000 0.78669  0.39168  0.47918  Biso   1.000  C
  H86      1.0000 0.75460  0.38970  0.50730  Biso   1.000  H
  O90      1.0000 0.74414  0.24346  0.38052  Biso   1.000  O
  C202     1.0000 0.81447  0.35751  0.45981  Biso   1.000  C
  C203     1.0000 0.86037  0.36061  0.41590  Biso   1.000  C
  H87      1.0000 0.87880  0.33710  0.40110  Biso   1.000  H
  C204     1.0000 0.79311  0.31655  0.47883  Biso   1.000  C
  C205     1.0000 0.77685  0.46606  0.47939  Biso   1.000  C
  C206     1.0000 0.71990  0.46763  0.47937  Biso   1.000  C
  H88      1.0000 0.70030  0.44470  0.46410  Biso   1.000  H
  C207     1.0000 0.69994  0.26134  0.38454  Biso   1.000  C
  C208     1.0000 0.67258  0.27159  0.31460  Biso   1.000  C
  C209     1.0000 0.62480  0.29358  0.31471  Biso   1.000  C
  H89      1.0000 0.60840  0.30080  0.35930  Biso   1.000  H
  C210     1.0000 0.54507  0.36262  0.29901  Biso   1.000  C
  H90      1.0000 0.57790  0.37240  0.31910  Biso   1.000  H
  O91      1.0000 0.44298  0.93273  0.32400  Biso   1.000  O
  C211     1.0000 0.42607  0.89938  0.34380  Biso   1.000  C
  O92      1.0000 0.44563  0.86573  0.32398  Biso   1.000  O
  C212     1.0000 0.37903  0.89695  0.39399  Biso   1.000  C
  Cu16     1.0000 0.28998  0.73273  0.46367  Biso   1.000  Cu
  O93      1.0000 0.25064  0.81657  0.51496  Biso   1.000  O
  C213     1.0000 0.35199  0.93150  0.41501  Biso   1.000  C
  H91      1.0000 0.36520  0.95690  0.40030  Biso   1.000  H
  O94      1.0000 0.31759  0.78692  0.45465  Biso   1.000  O
  C214     1.0000 0.30539  0.92895  0.45779  Biso   1.000  C
  O95      1.0000 0.17630  0.77223  0.44150  Biso   1.000  O
  C215     1.0000 0.28669  0.89168  0.47918  Biso   1.000  C
  H92      1.0000 0.25460  0.88970  0.50730  Biso   1.000  H
  O96      1.0000 0.24414  0.74346  0.38052  Biso   1.000  O
  C216     1.0000 0.31447  0.85751  0.45981  Biso   1.000  C
  C217     1.0000 0.36037  0.86061  0.41590  Biso   1.000  C
  H93      1.0000 0.37880  0.83710  0.40110  Biso   1.000  H
  C218     1.0000 0.29311  0.81655  0.47883  Biso   1.000  C
  C219     1.0000 0.27685  0.96606  0.47939  Biso   1.000  C
  C220     1.0000 0.21990  0.96763  0.47937  Biso   1.000  C
  H94      1.0000 0.20030  0.94470  0.46410  Biso   1.000  H
  C221     1.0000 0.19994  0.76134  0.38454  Biso   1.000  C
  C222     1.0000 0.17258  0.77159  0.31460  Biso   1.000  C
  C223     1.0000 0.12480  0.79358  0.31471  Biso   1.000  C
  H95      1.0000 0.10840  0.80080  0.35930  Biso   1.000  H
  C224     1.0000 0.04507  0.86262  0.29901  Biso   1.000  C
  H96      1.0000 0.07790  0.87240  0.31910  Biso   1.000  H
  Cu17     1.0000 0.00000  0.43918  0.25000  Biso   1.000  Cu
  Cu18     1.0000 0.00000  0.36021  0.25000  Biso   1.000  Cu
  Cu19     1.0000 0.50000  0.93918  0.25000  Biso   1.000  Cu
  Cu20     1.0000 0.50000  0.86021  0.25000  Biso   1.000  Cu
  Cu21     1.0000 0.00000  0.56082  0.75000  Biso   1.000  Cu
  Cu22     1.0000 0.00000  0.63979  0.75000  Biso   1.000  Cu
  Cu23     1.0000 0.50000  0.06082  0.75000  Biso   1.000  Cu
  Cu24     1.0000 0.50000  0.13979  0.75000  Biso   1.000  Cu
  N1       1.0000 0.30790  0.50000  0.50000  Biso   1.000  N
  C225     1.0000 0.19527  0.50000  0.50000  Biso   1.000  C
  H97      1.0000 0.15670  0.50000  0.50000  Biso   1.000  H
  N2       1.0000 0.80790  0.00000  0.50000  Biso   1.000  N
  C226     1.0000 0.69527  0.00000  0.50000  Biso   1.000  C
  H98      1.0000 0.65670  0.00000  0.50000  Biso   1.000  H
  N3       1.0000 0.69210  0.50000  0.00000  Biso   1.000  N
  C227     1.0000 0.80473  0.50000  0.00000  Biso   1.000  C
  H99      1.0000 0.84330  0.50000  0.00000  Biso   1.000  H
  N4       1.0000 0.19210  0.00000  0.00000  Biso   1.000  N
  C228     1.0000 0.30473  0.00000  0.00000  Biso   1.000  C
  H100     1.0000 0.34330  0.00000  0.00000  Biso   1.000  H
  N5       1.0000 0.69210  0.50000  0.50000  Biso   1.000  N
  C229     1.0000 0.80473  0.50000  0.50000  Biso   1.000  C
  H101     1.0000 0.84330  0.50000  0.50000  Biso   1.000  H
  N6       1.0000 0.19210  0.00000  0.50000  Biso   1.000  N
  C230     1.0000 0.30473  0.00000  0.50000  Biso   1.000  C
  H102     1.0000 0.34330  0.00000  0.50000  Biso   1.000  H
  N7       1.0000 0.30790  0.50000  0.00000  Biso   1.000  N
  C231     1.0000 0.19527  0.50000  0.00000  Biso   1.000  C
  H103     1.0000 0.15670  0.50000  0.00000  Biso   1.000  H
  N8       1.0000 0.80790  0.00000  0.00000  Biso   1.000  N
  C232     1.0000 0.69527  0.00000  0.00000  Biso   1.000  C
  H104     1.0000 0.65670  0.00000  0.00000  Biso   1.000  H
  C233     1.0000 0.30433  0.26046  0.25000  Biso   1.000  C
  H105     1.0000 0.27210  0.24490  0.25000  Biso   1.000  H
  C234     1.0000 0.39936  0.30516  0.25000  Biso   1.000  C
  C235     1.0000 0.45211  0.32713  0.25000  Biso   1.000  C
  C236     1.0000 0.80433  0.76046  0.25000  Biso   1.000  C
  H106     1.0000 0.77210  0.74490  0.25000  Biso   1.000  H
  C237     1.0000 0.89936  0.80516  0.25000  Biso   1.000  C
  C238     1.0000 0.95211  0.82713  0.25000  Biso   1.000  C
  C239     1.0000 0.69567  0.73954  0.75000  Biso   1.000  C
  H107     1.0000 0.72790  0.75510  0.75000  Biso   1.000  H
  C240     1.0000 0.60064  0.69484  0.75000  Biso   1.000  C
  C241     1.0000 0.54789  0.67287  0.75000  Biso   1.000  C
  C242     1.0000 0.19567  0.23954  0.75000  Biso   1.000  C
  H108     1.0000 0.22790  0.25510  0.75000  Biso   1.000  H
  C243     1.0000 0.10064  0.19484  0.75000  Biso   1.000  C
  C244     1.0000 0.04789  0.17287  0.75000  Biso   1.000  C
  C245     1.0000 0.69567  0.26046  0.25000  Biso   1.000  C
  H109     1.0000 0.72790  0.24490  0.25000  Biso   1.000  H
  C246     1.0000 0.60064  0.30516  0.25000  Biso   1.000  C
  C247     1.0000 0.54789  0.32713  0.25000  Biso   1.000  C
  C248     1.0000 0.19567  0.76046  0.25000  Biso   1.000  C
  H110     1.0000 0.22790  0.74490  0.25000  Biso   1.000  H
  C249     1.0000 0.10064  0.80516  0.25000  Biso   1.000  C
  C250     1.0000 0.04789  0.82713  0.25000  Biso   1.000  C
  C251     1.0000 0.30433  0.73954  0.75000  Biso   1.000  C
  H111     1.0000 0.27210  0.75510  0.75000  Biso   1.000  H
  C252     1.0000 0.39936  0.69484  0.75000  Biso   1.000  C
  C253     1.0000 0.45211  0.67287  0.75000  Biso   1.000  C
  C254     1.0000 0.80433  0.23954  0.75000  Biso   1.000  C
  H112     1.0000 0.77210  0.25510  0.75000  Biso   1.000  H
  C255     1.0000 0.89936  0.19484  0.75000  Biso   1.000  C
  C256     1.0000 0.95211  0.17287  0.75000  Biso   1.000  C
  C257     1.0000 0.50000  0.31042  0.25000  Biso   1.000  C
  H113     1.0000 0.50000  0.28210  0.25000  Biso   1.000  H
  C258     1.0000 0.00000  0.81042  0.25000  Biso   1.000  C
  H114     1.0000 0.00000  0.78210  0.25000  Biso   1.000  H
  C259     1.0000 0.50000  0.68958  0.75000  Biso   1.000  C
  H115     1.0000 0.50000  0.71790  0.75000  Biso   1.000  H
  C260     1.0000 0.00000  0.18958  0.75000  Biso   1.000  C
  H116     1.0000 0.00000  0.21790  0.75000  Biso   1.000  H
  N9       1.0000 0.50000  0.38085  0.31560  Biso   1.000  N
  N10      1.0000 0.00000  0.88085  0.31560  Biso   1.000  N
  N11      1.0000 0.50000  0.61915  0.81560  Biso   1.000  N
  N12      1.0000 0.00000  0.11915  0.81560  Biso   1.000  N
  N13      1.0000 0.50000  0.38085  0.18440  Biso   1.000  N
  N14      1.0000 0.00000  0.88085  0.18440  Biso   1.000  N
  N15      1.0000 0.50000  0.61915  0.68440  Biso   1.000  N
  N16      1.0000 0.00000  0.11915  0.68440  Biso   1.000  N
