data_FIDRIV_clean
_audit_creation_date              2014-07-02
_audit_creation_method            'Materials Studio'
_symmetry_space_group_name_H-M    'P1'
_symmetry_Int_Tables_number       1
_symmetry_cell_setting            triclinic
loop_
_symmetry_equiv_pos_as_xyz
  x,y,z
_cell_length_a                    14.1273
_cell_length_b                    23.6972
_cell_length_c                    23.6972
_cell_angle_alpha                 90.0000
_cell_angle_beta                  90.0000
_cell_angle_gamma                 90.0000
loop_
_atom_site_label
_atom_site_type_symbol
_atom_site_fract_x
_atom_site_fract_y
_atom_site_fract_z
_atom_site_U_iso_or_equiv
_atom_site_adp_type
_atom_site_occupancy
Na1    Na    0.25000   0.91899   0.50000   0.01267  Uiso   1.00
Na2    Na    0.75000   0.08101   0.50000   0.01267  Uiso   1.00
Na3    Na    0.00000   0.50000   0.91899   0.01267  Uiso   1.00
Na4    Na    0.50000   0.50000   0.08101   0.01267  Uiso   1.00
Dy1    Dy    0.00000   0.00000   0.59012   0.01267  Uiso   1.00
Dy2    Dy    0.50000   0.00000   0.40988   0.01267  Uiso   1.00
Dy3    Dy    0.75000   0.40988   0.00000   0.01267  Uiso   1.00
Dy4    Dy    0.25000   0.59012   0.00000   0.01267  Uiso   1.00
H1     H     0.84610   0.95920   0.47130   0.01267  Uiso   1.00
H2     H     0.77770   0.94400   0.30740   0.01267  Uiso   1.00
H3     H     0.03970   0.90410   0.36000   0.01267  Uiso   1.00
H4     H     0.06080   0.94950   0.26560   0.01267  Uiso   1.00
H5     H     0.78360   0.85430   0.29450   0.01267  Uiso   1.00
H6     H     0.73800   0.85210   0.23420   0.01267  Uiso   1.00
H7     H     0.80180   0.80220   0.25510   0.01267  Uiso   1.00
H8     H     0.09840   0.95170   0.08660   0.01267  Uiso   1.00
H9     H     0.09540   0.00500   0.12580   0.01267  Uiso   1.00
H10    H     0.19180   0.98480   0.10000   0.01267  Uiso   1.00
H11    H     0.21830   0.86090   0.17950   0.01267  Uiso   1.00
H12    H     0.17860   0.86470   0.11790   0.01267  Uiso   1.00
H13    H     0.27000   0.89820   0.13450   0.01267  Uiso   1.00
H14    H     0.21300   0.95060   0.24030   0.01267  Uiso   1.00
H15    H     0.26020   0.98390   0.19050   0.01267  Uiso   1.00
H16    H     0.16390   0.00470   0.21600   0.01267  Uiso   1.00
H17    H     0.34610   0.04080   0.52870   0.01267  Uiso   1.00
H18    H     0.27770   0.05600   0.69260   0.01267  Uiso   1.00
H19    H     0.53970   0.09590   0.64000   0.01267  Uiso   1.00
H20    H     0.56080   0.05050   0.73440   0.01267  Uiso   1.00
H21    H     0.28360   0.14570   0.70550   0.01267  Uiso   1.00
H22    H     0.23800   0.14790   0.76580   0.01267  Uiso   1.00
H23    H     0.30180   0.19780   0.74490   0.01267  Uiso   1.00
H24    H     0.59840   0.04830   0.91340   0.01267  Uiso   1.00
H25    H     0.59540   0.99500   0.87420   0.01267  Uiso   1.00
H26    H     0.69180   0.01520   0.90000   0.01267  Uiso   1.00
H27    H     0.71830   0.13910   0.82050   0.01267  Uiso   1.00
H28    H     0.67860   0.13530   0.88210   0.01267  Uiso   1.00
H29    H     0.77000   0.10180   0.86550   0.01267  Uiso   1.00
H30    H     0.71300   0.04940   0.75970   0.01267  Uiso   1.00
H31    H     0.76020   0.01610   0.80950   0.01267  Uiso   1.00
H32    H     0.66390   0.99530   0.78400   0.01267  Uiso   1.00
H33    H     0.59610   0.52870   0.95920   0.01267  Uiso   1.00
H34    H     0.52770   0.69260   0.94400   0.01267  Uiso   1.00
H35    H     0.78970   0.64000   0.90410   0.01267  Uiso   1.00
H36    H     0.81080   0.73440   0.94950   0.01267  Uiso   1.00
H37    H     0.53360   0.70550   0.85430   0.01267  Uiso   1.00
H38    H     0.48800   0.76580   0.85210   0.01267  Uiso   1.00
H39    H     0.55180   0.74490   0.80220   0.01267  Uiso   1.00
H40    H     0.84840   0.91340   0.95170   0.01267  Uiso   1.00
H41    H     0.84540   0.87420   0.00500   0.01267  Uiso   1.00
H42    H     0.94180   0.90000   0.98480   0.01267  Uiso   1.00
H43    H     0.96830   0.82050   0.86090   0.01267  Uiso   1.00
H44    H     0.92860   0.88210   0.86470   0.01267  Uiso   1.00
H45    H     0.02000   0.86550   0.89820   0.01267  Uiso   1.00
H46    H     0.96300   0.75970   0.95060   0.01267  Uiso   1.00
H47    H     0.01020   0.80950   0.98390   0.01267  Uiso   1.00
H48    H     0.91390   0.78400   0.00470   0.01267  Uiso   1.00
H49    H     0.09610   0.47130   0.04080   0.01267  Uiso   1.00
H50    H     0.02770   0.30740   0.05600   0.01267  Uiso   1.00
H51    H     0.28970   0.36000   0.09590   0.01267  Uiso   1.00
H52    H     0.31080   0.26560   0.05050   0.01267  Uiso   1.00
H53    H     0.03360   0.29450   0.14570   0.01267  Uiso   1.00
H54    H     0.98800   0.23420   0.14790   0.01267  Uiso   1.00
H55    H     0.05180   0.25510   0.19780   0.01267  Uiso   1.00
H56    H     0.34840   0.08660   0.04830   0.01267  Uiso   1.00
H57    H     0.34540   0.12580   0.99500   0.01267  Uiso   1.00
H58    H     0.44180   0.10000   0.01520   0.01267  Uiso   1.00
H59    H     0.46830   0.17950   0.13910   0.01267  Uiso   1.00
H60    H     0.42860   0.11790   0.13530   0.01267  Uiso   1.00
H61    H     0.52000   0.13450   0.10180   0.01267  Uiso   1.00
H62    H     0.46300   0.24030   0.04940   0.01267  Uiso   1.00
H63    H     0.51020   0.19050   0.01610   0.01267  Uiso   1.00
H64    H     0.41390   0.21600   0.99530   0.01267  Uiso   1.00
H65    H     0.15390   0.04080   0.47130   0.01267  Uiso   1.00
H66    H     0.22230   0.05600   0.30740   0.01267  Uiso   1.00
H67    H     0.96030   0.09590   0.36000   0.01267  Uiso   1.00
H68    H     0.93920   0.05050   0.26560   0.01267  Uiso   1.00
H69    H     0.21640   0.14570   0.29450   0.01267  Uiso   1.00
H70    H     0.26200   0.14790   0.23420   0.01267  Uiso   1.00
H71    H     0.19820   0.19780   0.25510   0.01267  Uiso   1.00
H72    H     0.90160   0.04830   0.08660   0.01267  Uiso   1.00
H73    H     0.90460   0.99500   0.12580   0.01267  Uiso   1.00
H74    H     0.80820   0.01520   0.10000   0.01267  Uiso   1.00
H75    H     0.78170   0.13910   0.17950   0.01267  Uiso   1.00
H76    H     0.82140   0.13530   0.11790   0.01267  Uiso   1.00
H77    H     0.73000   0.10180   0.13450   0.01267  Uiso   1.00
H78    H     0.78700   0.04940   0.24030   0.01267  Uiso   1.00
H79    H     0.73980   0.01610   0.19050   0.01267  Uiso   1.00
H80    H     0.83610   0.99530   0.21600   0.01267  Uiso   1.00
H81    H     0.65390   0.95920   0.52870   0.01267  Uiso   1.00
H82    H     0.72230   0.94400   0.69260   0.01267  Uiso   1.00
H83    H     0.46030   0.90410   0.64000   0.01267  Uiso   1.00
H84    H     0.43920   0.94950   0.73440   0.01267  Uiso   1.00
H85    H     0.71640   0.85430   0.70550   0.01267  Uiso   1.00
H86    H     0.76200   0.85210   0.76580   0.01267  Uiso   1.00
H87    H     0.69820   0.80220   0.74490   0.01267  Uiso   1.00
H88    H     0.40160   0.95170   0.91340   0.01267  Uiso   1.00
H89    H     0.40460   0.00500   0.87420   0.01267  Uiso   1.00
H90    H     0.30820   0.98480   0.90000   0.01267  Uiso   1.00
H91    H     0.28170   0.86090   0.82050   0.01267  Uiso   1.00
H92    H     0.32140   0.86470   0.88210   0.01267  Uiso   1.00
H93    H     0.23000   0.89820   0.86550   0.01267  Uiso   1.00
H94    H     0.28700   0.95060   0.75970   0.01267  Uiso   1.00
H95    H     0.23980   0.98390   0.80950   0.01267  Uiso   1.00
H96    H     0.33610   0.00470   0.78400   0.01267  Uiso   1.00
H97    H     0.40390   0.47130   0.95920   0.01267  Uiso   1.00
H98    H     0.47230   0.30740   0.94400   0.01267  Uiso   1.00
H99    H     0.21030   0.36000   0.90410   0.01267  Uiso   1.00
H100   H     0.18920   0.26560   0.94950   0.01267  Uiso   1.00
H101   H     0.46640   0.29450   0.85430   0.01267  Uiso   1.00
H102   H     0.51200   0.23420   0.85210   0.01267  Uiso   1.00
H103   H     0.44820   0.25510   0.80220   0.01267  Uiso   1.00
H104   H     0.15160   0.08660   0.95170   0.01267  Uiso   1.00
H105   H     0.15460   0.12580   0.00500   0.01267  Uiso   1.00
H106   H     0.05820   0.10000   0.98480   0.01267  Uiso   1.00
H107   H     0.03170   0.17950   0.86090   0.01267  Uiso   1.00
H108   H     0.07140   0.11790   0.86470   0.01267  Uiso   1.00
H109   H     0.98000   0.13450   0.89820   0.01267  Uiso   1.00
H110   H     0.03700   0.24030   0.95060   0.01267  Uiso   1.00
H111   H     0.98980   0.19050   0.98390   0.01267  Uiso   1.00
H112   H     0.08610   0.21600   0.00470   0.01267  Uiso   1.00
H113   H     0.90390   0.52870   0.04080   0.01267  Uiso   1.00
H114   H     0.97230   0.69260   0.05600   0.01267  Uiso   1.00
H115   H     0.71030   0.64000   0.09590   0.01267  Uiso   1.00
H116   H     0.68920   0.73440   0.05050   0.01267  Uiso   1.00
H117   H     0.96640   0.70550   0.14570   0.01267  Uiso   1.00
H118   H     0.01200   0.76580   0.14790   0.01267  Uiso   1.00
H119   H     0.94820   0.74490   0.19780   0.01267  Uiso   1.00
H120   H     0.65160   0.91340   0.04830   0.01267  Uiso   1.00
H121   H     0.65460   0.87420   0.99500   0.01267  Uiso   1.00
H122   H     0.55820   0.90000   0.01520   0.01267  Uiso   1.00
H123   H     0.53170   0.82050   0.13910   0.01267  Uiso   1.00
H124   H     0.57140   0.88210   0.13530   0.01267  Uiso   1.00
H125   H     0.48000   0.86550   0.10180   0.01267  Uiso   1.00
H126   H     0.53700   0.75970   0.04940   0.01267  Uiso   1.00
H127   H     0.48980   0.80950   0.01610   0.01267  Uiso   1.00
H128   H     0.58610   0.78400   0.99530   0.01267  Uiso   1.00
C1     C     0.02450   0.92850   0.47100   0.01267  Uiso   1.00
C2     C     0.95380   0.93080   0.42282   0.01267  Uiso   1.00
C3     C     0.86280   0.94980   0.43456   0.01267  Uiso   1.00
C4     C     0.79680   0.95470   0.39133   0.01267  Uiso   1.00
C5     C     0.82180   0.94070   0.33637   0.01267  Uiso   1.00
C6     C     0.91280   0.92170   0.32463   0.01267  Uiso   1.00
C7     C     0.97882   0.91680   0.36786   0.01267  Uiso   1.00
C8     C     0.69930   0.97330   0.40390   0.01267  Uiso   1.00
C9     C     0.93810   0.90540   0.26505   0.01267  Uiso   1.00
C10    C     0.88030   0.87180   0.23159   0.01267  Uiso   1.00
C11    C     0.90630   0.85970   0.17633   0.01267  Uiso   1.00
C12    C     0.99020   0.88120   0.15452   0.01267  Uiso   1.00
C13    C     0.04810   0.91490   0.18798   0.01267  Uiso   1.00
C14    C     0.02200   0.92700   0.24324   0.01267  Uiso   1.00
C15    C     0.79270   0.84240   0.25620   0.01267  Uiso   1.00
C16    C     0.14810   0.93620   0.16470   0.01267  Uiso   1.00
C17    C     0.13200   0.97260   0.11490   0.01267  Uiso   1.00
C18    C     0.20950   0.88520   0.14750   0.01267  Uiso   1.00
C19    C     0.20110   0.97210   0.20670   0.01267  Uiso   1.00
C20    C     0.52450   0.07150   0.52900   0.01267  Uiso   1.00
C21    C     0.45380   0.06920   0.57718   0.01267  Uiso   1.00
C22    C     0.36280   0.05020   0.56544   0.01267  Uiso   1.00
C23    C     0.29680   0.04530   0.60867   0.01267  Uiso   1.00
C24    C     0.32180   0.05930   0.66363   0.01267  Uiso   1.00
C25    C     0.41280   0.07830   0.67537   0.01267  Uiso   1.00
C26    C     0.47882   0.08320   0.63214   0.01267  Uiso   1.00
C27    C     0.19930   0.02670   0.59610   0.01267  Uiso   1.00
C28    C     0.43810   0.09460   0.73495   0.01267  Uiso   1.00
C29    C     0.38030   0.12820   0.76841   0.01267  Uiso   1.00
C30    C     0.40630   0.14030   0.82367   0.01267  Uiso   1.00
C31    C     0.49020   0.11880   0.84548   0.01267  Uiso   1.00
C32    C     0.54810   0.08510   0.81202   0.01267  Uiso   1.00
C33    C     0.52200   0.07300   0.75676   0.01267  Uiso   1.00
C34    C     0.29270   0.15760   0.74380   0.01267  Uiso   1.00
C35    C     0.64810   0.06380   0.83530   0.01267  Uiso   1.00
C36    C     0.63200   0.02740   0.88510   0.01267  Uiso   1.00
C37    C     0.70950   0.11480   0.85250   0.01267  Uiso   1.00
C38    C     0.70110   0.02790   0.79330   0.01267  Uiso   1.00
C39    C     0.77450   0.52900   0.92850   0.01267  Uiso   1.00
C40    C     0.70380   0.57718   0.93080   0.01267  Uiso   1.00
C41    C     0.61280   0.56544   0.94980   0.01267  Uiso   1.00
C42    C     0.54680   0.60867   0.95470   0.01267  Uiso   1.00
C43    C     0.57180   0.66363   0.94070   0.01267  Uiso   1.00
C44    C     0.66280   0.67537   0.92170   0.01267  Uiso   1.00
C45    C     0.72882   0.63214   0.91680   0.01267  Uiso   1.00
C46    C     0.44930   0.59610   0.97330   0.01267  Uiso   1.00
C47    C     0.68810   0.73495   0.90540   0.01267  Uiso   1.00
C48    C     0.63030   0.76841   0.87180   0.01267  Uiso   1.00
C49    C     0.65630   0.82367   0.85970   0.01267  Uiso   1.00
C50    C     0.74020   0.84548   0.88120   0.01267  Uiso   1.00
C51    C     0.79810   0.81202   0.91490   0.01267  Uiso   1.00
C52    C     0.77200   0.75676   0.92700   0.01267  Uiso   1.00
C53    C     0.54270   0.74380   0.84240   0.01267  Uiso   1.00
C54    C     0.89810   0.83530   0.93620   0.01267  Uiso   1.00
C55    C     0.88200   0.88510   0.97260   0.01267  Uiso   1.00
C56    C     0.95950   0.85250   0.88520   0.01267  Uiso   1.00
C57    C     0.95110   0.79330   0.97210   0.01267  Uiso   1.00
C58    C     0.27450   0.47100   0.07150   0.01267  Uiso   1.00
C59    C     0.20380   0.42282   0.06920   0.01267  Uiso   1.00
C60    C     0.11280   0.43456   0.05020   0.01267  Uiso   1.00
C61    C     0.04680   0.39133   0.04530   0.01267  Uiso   1.00
C62    C     0.07180   0.33637   0.05930   0.01267  Uiso   1.00
C63    C     0.16280   0.32463   0.07830   0.01267  Uiso   1.00
C64    C     0.22882   0.36786   0.08320   0.01267  Uiso   1.00
C65    C     0.94930   0.40390   0.02670   0.01267  Uiso   1.00
C66    C     0.18810   0.26505   0.09460   0.01267  Uiso   1.00
C67    C     0.13030   0.23159   0.12820   0.01267  Uiso   1.00
C68    C     0.15630   0.17633   0.14030   0.01267  Uiso   1.00
C69    C     0.24020   0.15452   0.11880   0.01267  Uiso   1.00
C70    C     0.29810   0.18798   0.08510   0.01267  Uiso   1.00
C71    C     0.27200   0.24324   0.07300   0.01267  Uiso   1.00
C72    C     0.04270   0.25620   0.15760   0.01267  Uiso   1.00
C73    C     0.39810   0.16470   0.06380   0.01267  Uiso   1.00
C74    C     0.38200   0.11490   0.02740   0.01267  Uiso   1.00
C75    C     0.45950   0.14750   0.11480   0.01267  Uiso   1.00
C76    C     0.45110   0.20670   0.02790   0.01267  Uiso   1.00
C77    C     0.97550   0.07150   0.47100   0.01267  Uiso   1.00
C78    C     0.04620   0.06920   0.42282   0.01267  Uiso   1.00
C79    C     0.13720   0.05020   0.43456   0.01267  Uiso   1.00
C80    C     0.20320   0.04530   0.39133   0.01267  Uiso   1.00
C81    C     0.17820   0.05930   0.33637   0.01267  Uiso   1.00
C82    C     0.08720   0.07830   0.32463   0.01267  Uiso   1.00
C83    C     0.02118   0.08320   0.36786   0.01267  Uiso   1.00
C84    C     0.30070   0.02670   0.40390   0.01267  Uiso   1.00
C85    C     0.06190   0.09460   0.26505   0.01267  Uiso   1.00
C86    C     0.11970   0.12820   0.23159   0.01267  Uiso   1.00
C87    C     0.09370   0.14030   0.17633   0.01267  Uiso   1.00
C88    C     0.00980   0.11880   0.15452   0.01267  Uiso   1.00
C89    C     0.95190   0.08510   0.18798   0.01267  Uiso   1.00
C90    C     0.97800   0.07300   0.24324   0.01267  Uiso   1.00
C91    C     0.20730   0.15760   0.25620   0.01267  Uiso   1.00
C92    C     0.85190   0.06380   0.16470   0.01267  Uiso   1.00
C93    C     0.86800   0.02740   0.11490   0.01267  Uiso   1.00
C94    C     0.79050   0.11480   0.14750   0.01267  Uiso   1.00
C95    C     0.79890   0.02790   0.20670   0.01267  Uiso   1.00
C96    C     0.47550   0.92850   0.52900   0.01267  Uiso   1.00
C97    C     0.54620   0.93080   0.57718   0.01267  Uiso   1.00
C98    C     0.63720   0.94980   0.56544   0.01267  Uiso   1.00
C99    C     0.70320   0.95470   0.60867   0.01267  Uiso   1.00
C100   C     0.67820   0.94070   0.66363   0.01267  Uiso   1.00
C101   C     0.58720   0.92170   0.67537   0.01267  Uiso   1.00
C102   C     0.52118   0.91680   0.63214   0.01267  Uiso   1.00
C103   C     0.80070   0.97330   0.59610   0.01267  Uiso   1.00
C104   C     0.56190   0.90540   0.73495   0.01267  Uiso   1.00
C105   C     0.61970   0.87180   0.76841   0.01267  Uiso   1.00
C106   C     0.59370   0.85970   0.82367   0.01267  Uiso   1.00
C107   C     0.50980   0.88120   0.84548   0.01267  Uiso   1.00
C108   C     0.45190   0.91490   0.81202   0.01267  Uiso   1.00
C109   C     0.47800   0.92700   0.75676   0.01267  Uiso   1.00
C110   C     0.70730   0.84240   0.74380   0.01267  Uiso   1.00
C111   C     0.35190   0.93620   0.83530   0.01267  Uiso   1.00
C112   C     0.36800   0.97260   0.88510   0.01267  Uiso   1.00
C113   C     0.29050   0.88520   0.85250   0.01267  Uiso   1.00
C114   C     0.29890   0.97210   0.79330   0.01267  Uiso   1.00
C115   C     0.22550   0.47100   0.92850   0.01267  Uiso   1.00
C116   C     0.29620   0.42282   0.93080   0.01267  Uiso   1.00
C117   C     0.38720   0.43456   0.94980   0.01267  Uiso   1.00
C118   C     0.45320   0.39133   0.95470   0.01267  Uiso   1.00
C119   C     0.42820   0.33637   0.94070   0.01267  Uiso   1.00
C120   C     0.33720   0.32463   0.92170   0.01267  Uiso   1.00
C121   C     0.27118   0.36786   0.91680   0.01267  Uiso   1.00
C122   C     0.55070   0.40390   0.97330   0.01267  Uiso   1.00
C123   C     0.31190   0.26505   0.90540   0.01267  Uiso   1.00
C124   C     0.36970   0.23159   0.87180   0.01267  Uiso   1.00
C125   C     0.34370   0.17633   0.85970   0.01267  Uiso   1.00
C126   C     0.25980   0.15452   0.88120   0.01267  Uiso   1.00
C127   C     0.20190   0.18798   0.91490   0.01267  Uiso   1.00
C128   C     0.22800   0.24324   0.92700   0.01267  Uiso   1.00
C129   C     0.45730   0.25620   0.84240   0.01267  Uiso   1.00
C130   C     0.10190   0.16470   0.93620   0.01267  Uiso   1.00
C131   C     0.11800   0.11490   0.97260   0.01267  Uiso   1.00
C132   C     0.04050   0.14750   0.88520   0.01267  Uiso   1.00
C133   C     0.04890   0.20670   0.97210   0.01267  Uiso   1.00
C134   C     0.72550   0.52900   0.07150   0.01267  Uiso   1.00
C135   C     0.79620   0.57718   0.06920   0.01267  Uiso   1.00
C136   C     0.88720   0.56544   0.05020   0.01267  Uiso   1.00
C137   C     0.95320   0.60867   0.04530   0.01267  Uiso   1.00
C138   C     0.92820   0.66363   0.05930   0.01267  Uiso   1.00
C139   C     0.83720   0.67537   0.07830   0.01267  Uiso   1.00
C140   C     0.77118   0.63214   0.08320   0.01267  Uiso   1.00
C141   C     0.05070   0.59610   0.02670   0.01267  Uiso   1.00
C142   C     0.81190   0.73495   0.09460   0.01267  Uiso   1.00
C143   C     0.86970   0.76841   0.12820   0.01267  Uiso   1.00
C144   C     0.84370   0.82367   0.14030   0.01267  Uiso   1.00
C145   C     0.75980   0.84548   0.11880   0.01267  Uiso   1.00
C146   C     0.70190   0.81202   0.08510   0.01267  Uiso   1.00
C147   C     0.72800   0.75676   0.07300   0.01267  Uiso   1.00
C148   C     0.95730   0.74380   0.15760   0.01267  Uiso   1.00
C149   C     0.60190   0.83530   0.06380   0.01267  Uiso   1.00
C150   C     0.61800   0.88510   0.02740   0.01267  Uiso   1.00
C151   C     0.54050   0.85250   0.11480   0.01267  Uiso   1.00
C152   C     0.54890   0.79330   0.02790   0.01267  Uiso   1.00
O1     O     0.99600   0.93670   0.51960   0.01267  Uiso   1.00
O2     O     0.10830   0.91190   0.45620   0.01267  Uiso   1.00
O3     O     0.68080   0.00760   0.44235   0.01267  Uiso   1.00
O4     O     0.63270   0.95450   0.37320   0.01267  Uiso   1.00
O5     O     0.01370   0.86970   0.09960   0.01267  Uiso   1.00
O6     O     0.49600   0.06330   0.48040   0.01267  Uiso   1.00
O7     O     0.60830   0.08810   0.54380   0.01267  Uiso   1.00
O8     O     0.18080   0.99240   0.55765   0.01267  Uiso   1.00
O9     O     0.13270   0.04550   0.62680   0.01267  Uiso   1.00
O10    O     0.51370   0.13030   0.90040   0.01267  Uiso   1.00
O11    O     0.74600   0.48040   0.93670   0.01267  Uiso   1.00
O12    O     0.85830   0.54380   0.91190   0.01267  Uiso   1.00
O13    O     0.43080   0.55765   0.00760   0.01267  Uiso   1.00
O14    O     0.38270   0.62680   0.95450   0.01267  Uiso   1.00
O15    O     0.76370   0.90040   0.86970   0.01267  Uiso   1.00
O16    O     0.24600   0.51960   0.06330   0.01267  Uiso   1.00
O17    O     0.35830   0.45620   0.08810   0.01267  Uiso   1.00
O18    O     0.93080   0.44235   0.99240   0.01267  Uiso   1.00
O19    O     0.88270   0.37320   0.04550   0.01267  Uiso   1.00
O20    O     0.26370   0.09960   0.13030   0.01267  Uiso   1.00
O21    O     0.00400   0.06330   0.51960   0.01267  Uiso   1.00
O22    O     0.89170   0.08810   0.45620   0.01267  Uiso   1.00
O23    O     0.31920   0.99240   0.44235   0.01267  Uiso   1.00
O24    O     0.36730   0.04550   0.37320   0.01267  Uiso   1.00
O25    O     0.98630   0.13030   0.09960   0.01267  Uiso   1.00
O26    O     0.50400   0.93670   0.48040   0.01267  Uiso   1.00
O27    O     0.39170   0.91190   0.54380   0.01267  Uiso   1.00
O28    O     0.81920   0.00760   0.55765   0.01267  Uiso   1.00
O29    O     0.86730   0.95450   0.62680   0.01267  Uiso   1.00
O30    O     0.48630   0.86970   0.90040   0.01267  Uiso   1.00
O31    O     0.25400   0.51960   0.93670   0.01267  Uiso   1.00
O32    O     0.14170   0.45620   0.91190   0.01267  Uiso   1.00
O33    O     0.56920   0.44235   0.00760   0.01267  Uiso   1.00
O34    O     0.61730   0.37320   0.95450   0.01267  Uiso   1.00
O35    O     0.23630   0.09960   0.86970   0.01267  Uiso   1.00
O36    O     0.75400   0.48040   0.06330   0.01267  Uiso   1.00
O37    O     0.64170   0.54380   0.08810   0.01267  Uiso   1.00
O38    O     0.06920   0.55765   0.99240   0.01267  Uiso   1.00
O39    O     0.11730   0.62680   0.04550   0.01267  Uiso   1.00
O40    O     0.73630   0.90040   0.13030   0.01267  Uiso   1.00
