data_image0
_cell_length_a       20.8131
_cell_length_b       20.8131
_cell_length_c       23.185
_cell_angle_alpha    90
_cell_angle_beta     90
_cell_angle_gamma    120

_symmetry_space_group_name_H-M    "P 1"
_symmetry_int_tables_number       1

loop_
  _symmetry_equiv_pos_as_xyz
  'x, y, z'

loop_
  _atom_site_label
  _atom_site_occupancy
  _atom_site_fract_x
  _atom_site_fract_y
  _atom_site_fract_z
  _atom_site_thermal_displace_type
  _atom_site_B_iso_or_equiv
  _atom_site_type_symbol
  O1       1.0000 0.79935  0.45360  0.68419  Biso   1.000  O
  O2       1.0000 0.79948  0.34574  0.68415  Biso   1.000  O
  C1       1.0000 0.94890  0.41770  0.54826  Biso   1.000  C
  H1       1.0000 0.96610  0.38750  0.53360  Biso   1.000  H
  C2       1.0000 0.94820  0.53060  0.54820  Biso   1.000  C
  H2       1.0000 0.96480  0.57780  0.53340  Biso   1.000  H
  C3       1.0000 0.89860  0.50480  0.59356  Biso   1.000  C
  H3       1.0000 0.88140  0.53480  0.60860  Biso   1.000  H
  C4       1.0000 0.89910  0.39340  0.59338  Biso   1.000  C
  H4       1.0000 0.88180  0.34610  0.60830  Biso   1.000  H
  C5       1.0000 0.97280  0.48620  0.52510  Biso   1.000  C
  C6       1.0000 0.87496  0.43770  0.61635  Biso   1.000  C
  C7       1.0000 0.81855  0.40940  0.66577  Biso   1.000  C
  O3       1.0000 0.54640  0.34575  0.68419  Biso   1.000  O
  O4       1.0000 0.65426  0.45374  0.68415  Biso   1.000  O
  C8       1.0000 0.58230  0.53120  0.54826  Biso   1.000  C
  H5       1.0000 0.61250  0.57860  0.53360  Biso   1.000  H
  C9       1.0000 0.46940  0.41760  0.54820  Biso   1.000  C
  H6       1.0000 0.42220  0.38700  0.53340  Biso   1.000  H
  C10      1.0000 0.49520  0.39380  0.59356  Biso   1.000  C
  H7       1.0000 0.46520  0.34660  0.60860  Biso   1.000  H
  C11      1.0000 0.60660  0.50570  0.59338  Biso   1.000  C
  H8       1.0000 0.65390  0.53570  0.60830  Biso   1.000  H
  C12      1.0000 0.51380  0.48660  0.52510  Biso   1.000  C
  C13      1.0000 0.56230  0.43726  0.61635  Biso   1.000  C
  C14      1.0000 0.59060  0.40915  0.66577  Biso   1.000  C
  O5       1.0000 0.65425  0.20065  0.68419  Biso   1.000  O
  O6       1.0000 0.54626  0.20052  0.68415  Biso   1.000  O
  C15      1.0000 0.46880  0.05110  0.54826  Biso   1.000  C
  H9       1.0000 0.42140  0.03390  0.53360  Biso   1.000  H
  C16      1.0000 0.58240  0.05180  0.54820  Biso   1.000  C
  H10      1.0000 0.61300  0.03520  0.53340  Biso   1.000  H
  C17      1.0000 0.60620  0.10140  0.59356  Biso   1.000  C
  H11      1.0000 0.65340  0.11860  0.60860  Biso   1.000  H
  C18      1.0000 0.49430  0.10090  0.59338  Biso   1.000  C
  H12      1.0000 0.46430  0.11820  0.60830  Biso   1.000  H
  C19      1.0000 0.51340  0.02720  0.52510  Biso   1.000  C
  C20      1.0000 0.56274  0.12504  0.61635  Biso   1.000  C
  C21      1.0000 0.59085  0.18145  0.66577  Biso   1.000  C
  O7       1.0000 0.54640  0.20065  0.81581  Biso   1.000  O
  O8       1.0000 0.65426  0.20052  0.81585  Biso   1.000  O
  C22      1.0000 0.58230  0.05110  0.95174  Biso   1.000  C
  H13      1.0000 0.61250  0.03390  0.96640  Biso   1.000  H
  C23      1.0000 0.46940  0.05180  0.95180  Biso   1.000  C
  H14      1.0000 0.42220  0.03520  0.96660  Biso   1.000  H
  C24      1.0000 0.49520  0.10140  0.90644  Biso   1.000  C
  H15      1.0000 0.46520  0.11860  0.89140  Biso   1.000  H
  C25      1.0000 0.60660  0.10090  0.90662  Biso   1.000  C
  H16      1.0000 0.65390  0.11820  0.89170  Biso   1.000  H
  C26      1.0000 0.51380  0.02720  0.97490  Biso   1.000  C
  C27      1.0000 0.56230  0.12504  0.88365  Biso   1.000  C
  C28      1.0000 0.59060  0.18145  0.83423  Biso   1.000  C
  O9       1.0000 0.65425  0.45360  0.81581  Biso   1.000  O
  O10      1.0000 0.54626  0.34574  0.81585  Biso   1.000  O
  C29      1.0000 0.46880  0.41770  0.95174  Biso   1.000  C
  H17      1.0000 0.42140  0.38750  0.96640  Biso   1.000  H
  C30      1.0000 0.58240  0.53060  0.95180  Biso   1.000  C
  H18      1.0000 0.61300  0.57780  0.96660  Biso   1.000  H
  C31      1.0000 0.60620  0.50480  0.90644  Biso   1.000  C
  H19      1.0000 0.65340  0.53480  0.89140  Biso   1.000  H
  C32      1.0000 0.49430  0.39340  0.90662  Biso   1.000  C
  H20      1.0000 0.46430  0.34610  0.89170  Biso   1.000  H
  C33      1.0000 0.51340  0.48620  0.97490  Biso   1.000  C
  C34      1.0000 0.56274  0.43770  0.88365  Biso   1.000  C
  C35      1.0000 0.59085  0.40940  0.83423  Biso   1.000  C
  O11      1.0000 0.79935  0.34575  0.81581  Biso   1.000  O
  O12      1.0000 0.79948  0.45374  0.81585  Biso   1.000  O
  C36      1.0000 0.94890  0.53120  0.95174  Biso   1.000  C
  H21      1.0000 0.96610  0.57860  0.96640  Biso   1.000  H
  C37      1.0000 0.94820  0.41760  0.95180  Biso   1.000  C
  H22      1.0000 0.96480  0.38700  0.96660  Biso   1.000  H
  C38      1.0000 0.89860  0.39380  0.90644  Biso   1.000  C
  H23      1.0000 0.88140  0.34660  0.89140  Biso   1.000  H
  C39      1.0000 0.89910  0.50570  0.90662  Biso   1.000  C
  H24      1.0000 0.88180  0.53570  0.89170  Biso   1.000  H
  C40      1.0000 0.97280  0.48660  0.97490  Biso   1.000  C
  C41      1.0000 0.87496  0.43726  0.88365  Biso   1.000  C
  C42      1.0000 0.81855  0.40915  0.83423  Biso   1.000  C
  O13      1.0000 0.20065  0.54640  0.31581  Biso   1.000  O
  O14      1.0000 0.20052  0.65426  0.31585  Biso   1.000  O
  C43      1.0000 0.05110  0.58230  0.45174  Biso   1.000  C
  H25      1.0000 0.03390  0.61250  0.46640  Biso   1.000  H
  C44      1.0000 0.05180  0.46940  0.45180  Biso   1.000  C
  H26      1.0000 0.03520  0.42220  0.46660  Biso   1.000  H
  C45      1.0000 0.10140  0.49520  0.40644  Biso   1.000  C
  H27      1.0000 0.11860  0.46520  0.39140  Biso   1.000  H
  C46      1.0000 0.10090  0.60660  0.40662  Biso   1.000  C
  H28      1.0000 0.11820  0.65390  0.39170  Biso   1.000  H
  C47      1.0000 0.02720  0.51380  0.47490  Biso   1.000  C
  C48      1.0000 0.12504  0.56230  0.38365  Biso   1.000  C
  C49      1.0000 0.18145  0.59060  0.33423  Biso   1.000  C
  O15      1.0000 0.45360  0.65425  0.31581  Biso   1.000  O
  O16      1.0000 0.34574  0.54626  0.31585  Biso   1.000  O
  C50      1.0000 0.41770  0.46880  0.45174  Biso   1.000  C
  H29      1.0000 0.38750  0.42140  0.46640  Biso   1.000  H
  C51      1.0000 0.53060  0.58240  0.45180  Biso   1.000  C
  H30      1.0000 0.57780  0.61300  0.46660  Biso   1.000  H
  C52      1.0000 0.50480  0.60620  0.40644  Biso   1.000  C
  H31      1.0000 0.53480  0.65340  0.39140  Biso   1.000  H
  C53      1.0000 0.39340  0.49430  0.40662  Biso   1.000  C
  H32      1.0000 0.34610  0.46430  0.39170  Biso   1.000  H
  C54      1.0000 0.48620  0.51340  0.47490  Biso   1.000  C
  C55      1.0000 0.43770  0.56274  0.38365  Biso   1.000  C
  C56      1.0000 0.40940  0.59085  0.33423  Biso   1.000  C
  O17      1.0000 0.34575  0.79935  0.31581  Biso   1.000  O
  O18      1.0000 0.45374  0.79948  0.31585  Biso   1.000  O
  C57      1.0000 0.53120  0.94890  0.45174  Biso   1.000  C
  H33      1.0000 0.57860  0.96610  0.46640  Biso   1.000  H
  C58      1.0000 0.41760  0.94820  0.45180  Biso   1.000  C
  H34      1.0000 0.38700  0.96480  0.46660  Biso   1.000  H
  C59      1.0000 0.39380  0.89860  0.40644  Biso   1.000  C
  H35      1.0000 0.34660  0.88140  0.39140  Biso   1.000  H
  C60      1.0000 0.50570  0.89910  0.40662  Biso   1.000  C
  H36      1.0000 0.53570  0.88180  0.39170  Biso   1.000  H
  C61      1.0000 0.48660  0.97280  0.47490  Biso   1.000  C
  C62      1.0000 0.43726  0.87496  0.38365  Biso   1.000  C
  C63      1.0000 0.40915  0.81855  0.33423  Biso   1.000  C
  O19      1.0000 0.45360  0.79935  0.18419  Biso   1.000  O
  O20      1.0000 0.34574  0.79948  0.18415  Biso   1.000  O
  C64      1.0000 0.41770  0.94890  0.04826  Biso   1.000  C
  H37      1.0000 0.38750  0.96610  0.03360  Biso   1.000  H
  C65      1.0000 0.53060  0.94820  0.04820  Biso   1.000  C
  H38      1.0000 0.57780  0.96480  0.03340  Biso   1.000  H
  C66      1.0000 0.50480  0.89860  0.09356  Biso   1.000  C
  H39      1.0000 0.53480  0.88140  0.10860  Biso   1.000  H
  C67      1.0000 0.39340  0.89910  0.09338  Biso   1.000  C
  H40      1.0000 0.34610  0.88180  0.10830  Biso   1.000  H
  C68      1.0000 0.48620  0.97280  0.02510  Biso   1.000  C
  C69      1.0000 0.43770  0.87496  0.11635  Biso   1.000  C
  C70      1.0000 0.40940  0.81855  0.16577  Biso   1.000  C
  O21      1.0000 0.34575  0.54640  0.18419  Biso   1.000  O
  O22      1.0000 0.45374  0.65426  0.18415  Biso   1.000  O
  C71      1.0000 0.53120  0.58230  0.04826  Biso   1.000  C
  H41      1.0000 0.57860  0.61250  0.03360  Biso   1.000  H
  C72      1.0000 0.41760  0.46940  0.04820  Biso   1.000  C
  H42      1.0000 0.38700  0.42220  0.03340  Biso   1.000  H
  C73      1.0000 0.39380  0.49520  0.09356  Biso   1.000  C
  H43      1.0000 0.34660  0.46520  0.10860  Biso   1.000  H
  C74      1.0000 0.50570  0.60660  0.09338  Biso   1.000  C
  H44      1.0000 0.53570  0.65390  0.10830  Biso   1.000  H
  C75      1.0000 0.48660  0.51380  0.02510  Biso   1.000  C
  C76      1.0000 0.43726  0.56230  0.11635  Biso   1.000  C
  C77      1.0000 0.40915  0.59060  0.16577  Biso   1.000  C
  O23      1.0000 0.20065  0.65425  0.18419  Biso   1.000  O
  O24      1.0000 0.20052  0.54626  0.18415  Biso   1.000  O
  C78      1.0000 0.05110  0.46880  0.04826  Biso   1.000  C
  H45      1.0000 0.03390  0.42140  0.03360  Biso   1.000  H
  C79      1.0000 0.05180  0.58240  0.04820  Biso   1.000  C
  H46      1.0000 0.03520  0.61300  0.03340  Biso   1.000  H
  C80      1.0000 0.10140  0.60620  0.09356  Biso   1.000  C
  H47      1.0000 0.11860  0.65340  0.10860  Biso   1.000  H
  C81      1.0000 0.10090  0.49430  0.09338  Biso   1.000  C
  H48      1.0000 0.11820  0.46430  0.10830  Biso   1.000  H
  C82      1.0000 0.02720  0.51340  0.02510  Biso   1.000  C
  C83      1.0000 0.12504  0.56274  0.11635  Biso   1.000  C
  C84      1.0000 0.18145  0.59085  0.16577  Biso   1.000  C
  In1      1.0000 0.72308  0.27692  0.75000  Biso   1.000  In
  In2      1.0000 0.72308  0.44615  0.75000  Biso   1.000  In
  In3      1.0000 0.55385  0.27692  0.75000  Biso   1.000  In
  In4      1.0000 0.27692  0.72308  0.25000  Biso   1.000  In
  In5      1.0000 0.27692  0.55385  0.25000  Biso   1.000  In
  In6      1.0000 0.44615  0.72308  0.25000  Biso   1.000  In
  O25      1.0000 0.66667  0.33333  0.75000  Biso   1.000  O
  O26      1.0000 0.33333  0.66667  0.25000  Biso   1.000  O
