data_image0
_cell_length_a       18.1997
_cell_length_b       18.1997
_cell_length_c       20.0204
_cell_angle_alpha    90
_cell_angle_beta     90
_cell_angle_gamma    120

_symmetry_space_group_name_H-M    "P 1"
_symmetry_int_tables_number       1

loop_
  _symmetry_equiv_pos_as_xyz
  'x, y, z'

loop_
  _atom_site_label
  _atom_site_occupancy
  _atom_site_fract_x
  _atom_site_fract_y
  _atom_site_fract_z
  _atom_site_thermal_displace_type
  _atom_site_B_iso_or_equiv
  _atom_site_type_symbol
  O1       1.0000 0.07260  0.11190  0.19530  Biso   1.000  O
  O2       1.0000 0.31380  0.32050  0.07260  Biso   1.000  O
  O3       1.0000 0.41900  0.43060  0.11940  Biso   1.000  O
  O4       1.0000 0.54840  0.44900  0.00607  Biso   1.000  O
  O5       1.0000 0.45710  0.31400  0.00700  Biso   1.000  O
  C1       1.0000 0.31040  0.32860  0.18910  Biso   1.000  C
  C2       1.0000 0.35200  0.36360  0.12450  Biso   1.000  C
  C3       1.0000 0.23200  0.25800  0.19130  Biso   1.000  C
  H1       1.0000 0.20540  0.23370  0.15110  Biso   1.000  H
  C4       1.0000 0.58150  0.26780  0.01070  Biso   1.000  C
  C5       1.0000 0.60360  0.35420  0.01160  Biso   1.000  C
  C6       1.0000 0.53110  0.37400  0.00800  Biso   1.000  C
  O6       1.0000 0.88810  0.96070  0.19530  Biso   1.000  O
  O7       1.0000 0.67950  0.99330  0.07260  Biso   1.000  O
  O8       1.0000 0.56940  0.98840  0.11940  Biso   1.000  O
  O9       1.0000 0.55100  0.09940  0.00607  Biso   1.000  O
  O10      1.0000 0.68600  0.14310  0.00700  Biso   1.000  O
  C7       1.0000 0.67140  0.98180  0.18910  Biso   1.000  C
  C8       1.0000 0.63640  0.98840  0.12450  Biso   1.000  C
  C9       1.0000 0.74200  0.97400  0.19130  Biso   1.000  C
  H2       1.0000 0.76630  0.97170  0.15110  Biso   1.000  H
  C10      1.0000 0.73220  0.31370  0.01070  Biso   1.000  C
  C11      1.0000 0.64580  0.24940  0.01160  Biso   1.000  C
  C12      1.0000 0.62600  0.15710  0.00800  Biso   1.000  C
  O11      1.0000 0.03930  0.92740  0.19530  Biso   1.000  O
  O12      1.0000 0.00670  0.68620  0.07260  Biso   1.000  O
  O13      1.0000 0.01160  0.58100  0.11940  Biso   1.000  O
  O14      1.0000 0.90060  0.45160  0.00607  Biso   1.000  O
  O15      1.0000 0.85690  0.54290  0.00700  Biso   1.000  O
  C13      1.0000 0.01820  0.68960  0.18910  Biso   1.000  C
  C14      1.0000 0.01160  0.64800  0.12450  Biso   1.000  C
  C15      1.0000 0.02600  0.76800  0.19130  Biso   1.000  C
  H3       1.0000 0.02830  0.79460  0.15110  Biso   1.000  H
  C16      1.0000 0.68630  0.41850  0.01070  Biso   1.000  C
  C17      1.0000 0.75060  0.39640  0.01160  Biso   1.000  C
  C18      1.0000 0.84290  0.46890  0.00800  Biso   1.000  C
  O16      1.0000 0.07260  0.11190  0.30470  Biso   1.000  O
  O17      1.0000 0.31380  0.32050  0.42740  Biso   1.000  O
  O18      1.0000 0.41900  0.43060  0.38060  Biso   1.000  O
  O19      1.0000 0.54840  0.44900  0.49393  Biso   1.000  O
  O20      1.0000 0.45710  0.31400  0.49300  Biso   1.000  O
  C19      1.0000 0.31040  0.32860  0.31090  Biso   1.000  C
  C20      1.0000 0.35200  0.36360  0.37550  Biso   1.000  C
  C21      1.0000 0.23200  0.25800  0.30870  Biso   1.000  C
  H4       1.0000 0.20540  0.23370  0.34890  Biso   1.000  H
  C22      1.0000 0.58150  0.26780  0.48930  Biso   1.000  C
  C23      1.0000 0.60360  0.35420  0.48840  Biso   1.000  C
  C24      1.0000 0.53110  0.37400  0.49200  Biso   1.000  C
  O21      1.0000 0.88810  0.96070  0.30470  Biso   1.000  O
  O22      1.0000 0.67950  0.99330  0.42740  Biso   1.000  O
  O23      1.0000 0.56940  0.98840  0.38060  Biso   1.000  O
  O24      1.0000 0.55100  0.09940  0.49393  Biso   1.000  O
  O25      1.0000 0.68600  0.14310  0.49300  Biso   1.000  O
  C25      1.0000 0.67140  0.98180  0.31090  Biso   1.000  C
  C26      1.0000 0.63640  0.98840  0.37550  Biso   1.000  C
  C27      1.0000 0.74200  0.97400  0.30870  Biso   1.000  C
  H5       1.0000 0.76630  0.97170  0.34890  Biso   1.000  H
  C28      1.0000 0.73220  0.31370  0.48930  Biso   1.000  C
  C29      1.0000 0.64580  0.24940  0.48840  Biso   1.000  C
  C30      1.0000 0.62600  0.15710  0.49200  Biso   1.000  C
  O26      1.0000 0.03930  0.92740  0.30470  Biso   1.000  O
  O27      1.0000 0.00670  0.68620  0.42740  Biso   1.000  O
  O28      1.0000 0.01160  0.58100  0.38060  Biso   1.000  O
  O29      1.0000 0.90060  0.45160  0.49393  Biso   1.000  O
  O30      1.0000 0.85690  0.54290  0.49300  Biso   1.000  O
  C31      1.0000 0.01820  0.68960  0.31090  Biso   1.000  C
  C32      1.0000 0.01160  0.64800  0.37550  Biso   1.000  C
  C33      1.0000 0.02600  0.76800  0.30870  Biso   1.000  C
  H6       1.0000 0.02830  0.79460  0.34890  Biso   1.000  H
  C34      1.0000 0.68630  0.41850  0.48930  Biso   1.000  C
  C35      1.0000 0.75060  0.39640  0.48840  Biso   1.000  C
  C36      1.0000 0.84290  0.46890  0.49200  Biso   1.000  C
  O31      1.0000 0.11190  0.07260  0.80470  Biso   1.000  O
  O32      1.0000 0.32050  0.31380  0.92740  Biso   1.000  O
  O33      1.0000 0.43060  0.41900  0.88060  Biso   1.000  O
  O34      1.0000 0.44900  0.54840  0.99393  Biso   1.000  O
  O35      1.0000 0.31400  0.45710  0.99300  Biso   1.000  O
  C37      1.0000 0.32860  0.31040  0.81090  Biso   1.000  C
  C38      1.0000 0.36360  0.35200  0.87550  Biso   1.000  C
  C39      1.0000 0.25800  0.23200  0.80870  Biso   1.000  C
  H7       1.0000 0.23370  0.20540  0.84890  Biso   1.000  H
  C40      1.0000 0.26780  0.58150  0.98930  Biso   1.000  C
  C41      1.0000 0.35420  0.60360  0.98840  Biso   1.000  C
  C42      1.0000 0.37400  0.53110  0.99200  Biso   1.000  C
  O36      1.0000 0.96070  0.88810  0.80470  Biso   1.000  O
  O37      1.0000 0.99330  0.67950  0.92740  Biso   1.000  O
  O38      1.0000 0.98840  0.56940  0.88060  Biso   1.000  O
  O39      1.0000 0.09940  0.55100  0.99393  Biso   1.000  O
  O40      1.0000 0.14310  0.68600  0.99300  Biso   1.000  O
  C43      1.0000 0.98180  0.67140  0.81090  Biso   1.000  C
  C44      1.0000 0.98840  0.63640  0.87550  Biso   1.000  C
  C45      1.0000 0.97400  0.74200  0.80870  Biso   1.000  C
  H8       1.0000 0.97170  0.76630  0.84890  Biso   1.000  H
  C46      1.0000 0.31370  0.73220  0.98930  Biso   1.000  C
  C47      1.0000 0.24940  0.64580  0.98840  Biso   1.000  C
  C48      1.0000 0.15710  0.62600  0.99200  Biso   1.000  C
  O41      1.0000 0.92740  0.03930  0.80470  Biso   1.000  O
  O42      1.0000 0.68620  0.00670  0.92740  Biso   1.000  O
  O43      1.0000 0.58100  0.01160  0.88060  Biso   1.000  O
  O44      1.0000 0.45160  0.90060  0.99393  Biso   1.000  O
  O45      1.0000 0.54290  0.85690  0.99300  Biso   1.000  O
  C49      1.0000 0.68960  0.01820  0.81090  Biso   1.000  C
  C50      1.0000 0.64800  0.01160  0.87550  Biso   1.000  C
  C51      1.0000 0.76800  0.02600  0.80870  Biso   1.000  C
  H9       1.0000 0.79460  0.02830  0.84890  Biso   1.000  H
  C52      1.0000 0.41850  0.68630  0.98930  Biso   1.000  C
  C53      1.0000 0.39640  0.75060  0.98840  Biso   1.000  C
  C54      1.0000 0.46890  0.84290  0.99200  Biso   1.000  C
  O46      1.0000 0.11190  0.07260  0.69530  Biso   1.000  O
  O47      1.0000 0.32050  0.31380  0.57260  Biso   1.000  O
  O48      1.0000 0.43060  0.41900  0.61940  Biso   1.000  O
  O49      1.0000 0.44900  0.54840  0.50607  Biso   1.000  O
  O50      1.0000 0.31400  0.45710  0.50700  Biso   1.000  O
  C55      1.0000 0.32860  0.31040  0.68910  Biso   1.000  C
  C56      1.0000 0.36360  0.35200  0.62450  Biso   1.000  C
  C57      1.0000 0.25800  0.23200  0.69130  Biso   1.000  C
  H10      1.0000 0.23370  0.20540  0.65110  Biso   1.000  H
  C58      1.0000 0.26780  0.58150  0.51070  Biso   1.000  C
  C59      1.0000 0.35420  0.60360  0.51160  Biso   1.000  C
  C60      1.0000 0.37400  0.53110  0.50800  Biso   1.000  C
  O51      1.0000 0.96070  0.88810  0.69530  Biso   1.000  O
  O52      1.0000 0.99330  0.67950  0.57260  Biso   1.000  O
  O53      1.0000 0.98840  0.56940  0.61940  Biso   1.000  O
  O54      1.0000 0.09940  0.55100  0.50607  Biso   1.000  O
  O55      1.0000 0.14310  0.68600  0.50700  Biso   1.000  O
  C61      1.0000 0.98180  0.67140  0.68910  Biso   1.000  C
  C62      1.0000 0.98840  0.63640  0.62450  Biso   1.000  C
  C63      1.0000 0.97400  0.74200  0.69130  Biso   1.000  C
  H11      1.0000 0.97170  0.76630  0.65110  Biso   1.000  H
  C64      1.0000 0.31370  0.73220  0.51070  Biso   1.000  C
  C65      1.0000 0.24940  0.64580  0.51160  Biso   1.000  C
  C66      1.0000 0.15710  0.62600  0.50800  Biso   1.000  C
  O56      1.0000 0.92740  0.03930  0.69530  Biso   1.000  O
  O57      1.0000 0.68620  0.00670  0.57260  Biso   1.000  O
  O58      1.0000 0.58100  0.01160  0.61940  Biso   1.000  O
  O59      1.0000 0.45160  0.90060  0.50607  Biso   1.000  O
  O60      1.0000 0.54290  0.85690  0.50700  Biso   1.000  O
  C67      1.0000 0.68960  0.01820  0.68910  Biso   1.000  C
  C68      1.0000 0.64800  0.01160  0.62450  Biso   1.000  C
  C69      1.0000 0.76800  0.02600  0.69130  Biso   1.000  C
  H12      1.0000 0.79460  0.02830  0.65110  Biso   1.000  H
  C70      1.0000 0.41850  0.68630  0.51070  Biso   1.000  C
  C71      1.0000 0.39640  0.75060  0.51160  Biso   1.000  C
  C72      1.0000 0.46890  0.84290  0.50800  Biso   1.000  C
  In1      1.0000 0.40891  0.40891  0.00000  Biso   1.000  In
  In2      1.0000 0.59109  0.00000  0.00000  Biso   1.000  In
  In3      1.0000 0.00000  0.59109  0.00000  Biso   1.000  In
  In4      1.0000 0.40891  0.40891  0.50000  Biso   1.000  In
  In5      1.0000 0.59109  0.00000  0.50000  Biso   1.000  In
  In6      1.0000 0.00000  0.59109  0.50000  Biso   1.000  In
  Co1      1.0000 0.00000  0.00000  0.14704  Biso   1.000  Co
  Co2      1.0000 0.00000  0.00000  0.35296  Biso   1.000  Co
  Co3      1.0000 0.00000  0.00000  0.85296  Biso   1.000  Co
  Co4      1.0000 0.00000  0.00000  0.64704  Biso   1.000  Co
  C73      1.0000 0.10310  0.14060  0.25000  Biso   1.000  C
  C74      1.0000 0.18980  0.22040  0.25000  Biso   1.000  C
  C75      1.0000 0.35040  0.36350  0.25000  Biso   1.000  C
  H13      1.0000 0.40450  0.41080  0.25000  Biso   1.000  H
  C76      1.0000 0.85940  0.96250  0.25000  Biso   1.000  C
  C77      1.0000 0.77960  0.96940  0.25000  Biso   1.000  C
  C78      1.0000 0.63650  0.98690  0.25000  Biso   1.000  C
  H14      1.0000 0.58920  0.99370  0.25000  Biso   1.000  H
  C79      1.0000 0.03750  0.89690  0.25000  Biso   1.000  C
  C80      1.0000 0.03060  0.81020  0.25000  Biso   1.000  C
  C81      1.0000 0.01310  0.64960  0.25000  Biso   1.000  C
  H15      1.0000 0.00630  0.59550  0.25000  Biso   1.000  H
  C82      1.0000 0.14060  0.10310  0.75000  Biso   1.000  C
  C83      1.0000 0.22040  0.18980  0.75000  Biso   1.000  C
  C84      1.0000 0.36350  0.35040  0.75000  Biso   1.000  C
  H16      1.0000 0.41080  0.40450  0.75000  Biso   1.000  H
  C85      1.0000 0.96250  0.85940  0.75000  Biso   1.000  C
  C86      1.0000 0.96940  0.77960  0.75000  Biso   1.000  C
  C87      1.0000 0.98690  0.63650  0.75000  Biso   1.000  C
  H17      1.0000 0.99370  0.58920  0.75000  Biso   1.000  H
  C88      1.0000 0.89690  0.03750  0.75000  Biso   1.000  C
  C89      1.0000 0.81020  0.03060  0.75000  Biso   1.000  C
  C90      1.0000 0.64960  0.01310  0.75000  Biso   1.000  C
  H18      1.0000 0.59550  0.00630  0.75000  Biso   1.000  H
