data_image0
_cell_length_a       18.7843
_cell_length_b       18.7843
_cell_length_c       25.0267
_cell_angle_alpha    90
_cell_angle_beta     90
_cell_angle_gamma    120

_symmetry_space_group_name_H-M    "P 1"
_symmetry_int_tables_number       1

loop_
  _symmetry_equiv_pos_as_xyz
  'x, y, z'

loop_
  _atom_site_label
  _atom_site_occupancy
  _atom_site_fract_x
  _atom_site_fract_y
  _atom_site_fract_z
  _atom_site_thermal_displace_type
  _atom_site_B_iso_or_equiv
  _atom_site_type_symbol
  O1       1.0000 0.53379  0.18743  0.68827  Biso   1.000  O
  O2       1.0000 0.65360  0.18757  0.68829  Biso   1.000  O
  O3       1.0000 0.94250  0.05700  0.70120  Biso   1.000  O
  C1       1.0000 0.46340  0.04840  0.54880  Biso   1.000  C
  H1       1.0000 0.41260  0.03280  0.53350  Biso   1.000  H
  C2       1.0000 0.58610  0.04870  0.54910  Biso   1.000  C
  H2       1.0000 0.62170  0.03330  0.53390  Biso   1.000  H
  C3       1.0000 0.48560  0.09390  0.59520  Biso   1.000  C
  H3       1.0000 0.45020  0.10950  0.61010  Biso   1.000  H
  C4       1.0000 0.60810  0.09370  0.59530  Biso   1.000  C
  H4       1.0000 0.65900  0.10910  0.61050  Biso   1.000  H
  C5       1.0000 0.81650  0.18340  0.70750  Biso   1.000  C
  H5       1.0000 0.80300  0.19870  0.67550  Biso   1.000  H
  C6       1.0000 0.55810  0.11630  0.61940  Biso   1.000  C
  C7       1.0000 0.51330  0.02620  0.52530  Biso   1.000  C
  C8       1.0000 0.58410  0.16800  0.66988  Biso   1.000  C
  C9       1.0000 0.85950  0.13760  0.70420  Biso   1.000  C
  H6       1.0000 0.87220  0.12140  0.67220  Biso   1.000  H
  O4       1.0000 0.81257  0.34636  0.68827  Biso   1.000  O
  O5       1.0000 0.81243  0.46603  0.68829  Biso   1.000  O
  O6       1.0000 0.94300  0.88550  0.70120  Biso   1.000  O
  C10      1.0000 0.95160  0.41500  0.54880  Biso   1.000  C
  H7       1.0000 0.96720  0.37980  0.53350  Biso   1.000  H
  C11      1.0000 0.95130  0.53740  0.54910  Biso   1.000  C
  H8       1.0000 0.96670  0.58840  0.53390  Biso   1.000  H
  C12      1.0000 0.90610  0.39170  0.59520  Biso   1.000  C
  H9       1.0000 0.89050  0.34070  0.61010  Biso   1.000  H
  C13      1.0000 0.90630  0.51440  0.59530  Biso   1.000  C
  H10      1.0000 0.89090  0.54990  0.61050  Biso   1.000  H
  C14      1.0000 0.81660  0.63310  0.70750  Biso   1.000  C
  H11      1.0000 0.80130  0.60430  0.67550  Biso   1.000  H
  C15      1.0000 0.88370  0.44180  0.61940  Biso   1.000  C
  C16      1.0000 0.97380  0.48710  0.52530  Biso   1.000  C
  C17      1.0000 0.83200  0.41610  0.66988  Biso   1.000  C
  C18      1.0000 0.86240  0.72190  0.70420  Biso   1.000  C
  H12      1.0000 0.87860  0.75080  0.67220  Biso   1.000  H
  O7       1.0000 0.65364  0.46621  0.68827  Biso   1.000  O
  O8       1.0000 0.53397  0.34640  0.68829  Biso   1.000  O
  O9       1.0000 0.11450  0.05750  0.70120  Biso   1.000  O
  C19      1.0000 0.58500  0.53660  0.54880  Biso   1.000  C
  H13      1.0000 0.62020  0.58740  0.53350  Biso   1.000  H
  C20      1.0000 0.46260  0.41390  0.54910  Biso   1.000  C
  H14      1.0000 0.41160  0.37830  0.53390  Biso   1.000  H
  C21      1.0000 0.60830  0.51440  0.59520  Biso   1.000  C
  H15      1.0000 0.65930  0.54980  0.61010  Biso   1.000  H
  C22      1.0000 0.48560  0.39190  0.59530  Biso   1.000  C
  H16      1.0000 0.45010  0.34100  0.61050  Biso   1.000  H
  C23      1.0000 0.36690  0.18350  0.70750  Biso   1.000  C
  H17      1.0000 0.39570  0.19700  0.67550  Biso   1.000  H
  C24      1.0000 0.55820  0.44190  0.61940  Biso   1.000  C
  C25      1.0000 0.51290  0.48670  0.52530  Biso   1.000  C
  C26      1.0000 0.58390  0.41590  0.66988  Biso   1.000  C
  C27      1.0000 0.27810  0.14050  0.70420  Biso   1.000  C
  H18      1.0000 0.24920  0.12780  0.67220  Biso   1.000  H
  O10      1.0000 0.81257  0.46621  0.81173  Biso   1.000  O
  O11      1.0000 0.81243  0.34640  0.81171  Biso   1.000  O
  O12      1.0000 0.94300  0.05750  0.79880  Biso   1.000  O
  C28      1.0000 0.95160  0.53660  0.95120  Biso   1.000  C
  H19      1.0000 0.96720  0.58740  0.96650  Biso   1.000  H
  C29      1.0000 0.95130  0.41390  0.95090  Biso   1.000  C
  H20      1.0000 0.96670  0.37830  0.96610  Biso   1.000  H
  C30      1.0000 0.90610  0.51440  0.90480  Biso   1.000  C
  H21      1.0000 0.89050  0.54980  0.88990  Biso   1.000  H
  C31      1.0000 0.90630  0.39190  0.90470  Biso   1.000  C
  H22      1.0000 0.89090  0.34100  0.88950  Biso   1.000  H
  C32      1.0000 0.81660  0.18350  0.79250  Biso   1.000  C
  H23      1.0000 0.80130  0.19700  0.82450  Biso   1.000  H
  C33      1.0000 0.88370  0.44190  0.88060  Biso   1.000  C
  C34      1.0000 0.97380  0.48670  0.97470  Biso   1.000  C
  C35      1.0000 0.83200  0.41590  0.83012  Biso   1.000  C
  C36      1.0000 0.86240  0.14050  0.79580  Biso   1.000  C
  H24      1.0000 0.87860  0.12780  0.82780  Biso   1.000  H
  O13      1.0000 0.65364  0.18743  0.81173  Biso   1.000  O
  O14      1.0000 0.53397  0.18757  0.81171  Biso   1.000  O
  O15      1.0000 0.11450  0.05700  0.79880  Biso   1.000  O
  C37      1.0000 0.58500  0.04840  0.95120  Biso   1.000  C
  H25      1.0000 0.62020  0.03280  0.96650  Biso   1.000  H
  C38      1.0000 0.46260  0.04870  0.95090  Biso   1.000  C
  H26      1.0000 0.41160  0.03330  0.96610  Biso   1.000  H
  C39      1.0000 0.60830  0.09390  0.90480  Biso   1.000  C
  H27      1.0000 0.65930  0.10950  0.88990  Biso   1.000  H
  C40      1.0000 0.48560  0.09370  0.90470  Biso   1.000  C
  H28      1.0000 0.45010  0.10910  0.88950  Biso   1.000  H
  C41      1.0000 0.36690  0.18340  0.79250  Biso   1.000  C
  H29      1.0000 0.39570  0.19870  0.82450  Biso   1.000  H
  C42      1.0000 0.55820  0.11630  0.88060  Biso   1.000  C
  C43      1.0000 0.51290  0.02620  0.97470  Biso   1.000  C
  C44      1.0000 0.58390  0.16800  0.83012  Biso   1.000  C
  C45      1.0000 0.27810  0.13760  0.79580  Biso   1.000  C
  H30      1.0000 0.24920  0.12140  0.82780  Biso   1.000  H
  O16      1.0000 0.53379  0.34636  0.81173  Biso   1.000  O
  O17      1.0000 0.65360  0.46603  0.81171  Biso   1.000  O
  O18      1.0000 0.94250  0.88550  0.79880  Biso   1.000  O
  C46      1.0000 0.46340  0.41500  0.95120  Biso   1.000  C
  H31      1.0000 0.41260  0.37980  0.96650  Biso   1.000  H
  C47      1.0000 0.58610  0.53740  0.95090  Biso   1.000  C
  H32      1.0000 0.62170  0.58840  0.96610  Biso   1.000  H
  C48      1.0000 0.48560  0.39170  0.90480  Biso   1.000  C
  H33      1.0000 0.45020  0.34070  0.88990  Biso   1.000  H
  C49      1.0000 0.60810  0.51440  0.90470  Biso   1.000  C
  H34      1.0000 0.65900  0.54990  0.88950  Biso   1.000  H
  C50      1.0000 0.81650  0.63310  0.79250  Biso   1.000  C
  H35      1.0000 0.80300  0.60430  0.82450  Biso   1.000  H
  C51      1.0000 0.55810  0.44180  0.88060  Biso   1.000  C
  C52      1.0000 0.51330  0.48710  0.97470  Biso   1.000  C
  C53      1.0000 0.58410  0.41610  0.83012  Biso   1.000  C
  C54      1.0000 0.85950  0.72190  0.79580  Biso   1.000  C
  H36      1.0000 0.87220  0.75080  0.82780  Biso   1.000  H
  O19      1.0000 0.46621  0.81257  0.31173  Biso   1.000  O
  O20      1.0000 0.34640  0.81243  0.31171  Biso   1.000  O
  O21      1.0000 0.05750  0.94300  0.29880  Biso   1.000  O
  C55      1.0000 0.53660  0.95160  0.45120  Biso   1.000  C
  H37      1.0000 0.58740  0.96720  0.46650  Biso   1.000  H
  C56      1.0000 0.41390  0.95130  0.45090  Biso   1.000  C
  H38      1.0000 0.37830  0.96670  0.46610  Biso   1.000  H
  C57      1.0000 0.51440  0.90610  0.40480  Biso   1.000  C
  H39      1.0000 0.54980  0.89050  0.38990  Biso   1.000  H
  C58      1.0000 0.39190  0.90630  0.40470  Biso   1.000  C
  H40      1.0000 0.34100  0.89090  0.38950  Biso   1.000  H
  C59      1.0000 0.18350  0.81660  0.29250  Biso   1.000  C
  H41      1.0000 0.19700  0.80130  0.32450  Biso   1.000  H
  C60      1.0000 0.44190  0.88370  0.38060  Biso   1.000  C
  C61      1.0000 0.48670  0.97380  0.47470  Biso   1.000  C
  C62      1.0000 0.41590  0.83200  0.33012  Biso   1.000  C
  C63      1.0000 0.14050  0.86240  0.29580  Biso   1.000  C
  H42      1.0000 0.12780  0.87860  0.32780  Biso   1.000  H
  O22      1.0000 0.18743  0.65364  0.31173  Biso   1.000  O
  O23      1.0000 0.18757  0.53397  0.31171  Biso   1.000  O
  O24      1.0000 0.05700  0.11450  0.29880  Biso   1.000  O
  C64      1.0000 0.04840  0.58500  0.45120  Biso   1.000  C
  H43      1.0000 0.03280  0.62020  0.46650  Biso   1.000  H
  C65      1.0000 0.04870  0.46260  0.45090  Biso   1.000  C
  H44      1.0000 0.03330  0.41160  0.46610  Biso   1.000  H
  C66      1.0000 0.09390  0.60830  0.40480  Biso   1.000  C
  H45      1.0000 0.10950  0.65930  0.38990  Biso   1.000  H
  C67      1.0000 0.09370  0.48560  0.40470  Biso   1.000  C
  H46      1.0000 0.10910  0.45010  0.38950  Biso   1.000  H
  C68      1.0000 0.18340  0.36690  0.29250  Biso   1.000  C
  H47      1.0000 0.19870  0.39570  0.32450  Biso   1.000  H
  C69      1.0000 0.11630  0.55820  0.38060  Biso   1.000  C
  C70      1.0000 0.02620  0.51290  0.47470  Biso   1.000  C
  C71      1.0000 0.16800  0.58390  0.33012  Biso   1.000  C
  C72      1.0000 0.13760  0.27810  0.29580  Biso   1.000  C
  H48      1.0000 0.12140  0.24920  0.32780  Biso   1.000  H
  O25      1.0000 0.34636  0.53379  0.31173  Biso   1.000  O
  O26      1.0000 0.46603  0.65360  0.31171  Biso   1.000  O
  O27      1.0000 0.88550  0.94250  0.29880  Biso   1.000  O
  C73      1.0000 0.41500  0.46340  0.45120  Biso   1.000  C
  H49      1.0000 0.37980  0.41260  0.46650  Biso   1.000  H
  C74      1.0000 0.53740  0.58610  0.45090  Biso   1.000  C
  H50      1.0000 0.58840  0.62170  0.46610  Biso   1.000  H
  C75      1.0000 0.39170  0.48560  0.40480  Biso   1.000  C
  H51      1.0000 0.34070  0.45020  0.38990  Biso   1.000  H
  C76      1.0000 0.51440  0.60810  0.40470  Biso   1.000  C
  H52      1.0000 0.54990  0.65900  0.38950  Biso   1.000  H
  C77      1.0000 0.63310  0.81650  0.29250  Biso   1.000  C
  H53      1.0000 0.60430  0.80300  0.32450  Biso   1.000  H
  C78      1.0000 0.44180  0.55810  0.38060  Biso   1.000  C
  C79      1.0000 0.48710  0.51330  0.47470  Biso   1.000  C
  C80      1.0000 0.41610  0.58410  0.33012  Biso   1.000  C
  C81      1.0000 0.72190  0.85950  0.29580  Biso   1.000  C
  H54      1.0000 0.75080  0.87220  0.32780  Biso   1.000  H
  O28      1.0000 0.18743  0.53379  0.18827  Biso   1.000  O
  O29      1.0000 0.18757  0.65360  0.18829  Biso   1.000  O
  O30      1.0000 0.05700  0.94250  0.20120  Biso   1.000  O
  C82      1.0000 0.04840  0.46340  0.04880  Biso   1.000  C
  H55      1.0000 0.03280  0.41260  0.03350  Biso   1.000  H
  C83      1.0000 0.04870  0.58610  0.04910  Biso   1.000  C
  H56      1.0000 0.03330  0.62170  0.03390  Biso   1.000  H
  C84      1.0000 0.09390  0.48560  0.09520  Biso   1.000  C
  H57      1.0000 0.10950  0.45020  0.11010  Biso   1.000  H
  C85      1.0000 0.09370  0.60810  0.09530  Biso   1.000  C
  H58      1.0000 0.10910  0.65900  0.11050  Biso   1.000  H
  C86      1.0000 0.18340  0.81650  0.20750  Biso   1.000  C
  H59      1.0000 0.19870  0.80300  0.17550  Biso   1.000  H
  C87      1.0000 0.11630  0.55810  0.11940  Biso   1.000  C
  C88      1.0000 0.02620  0.51330  0.02530  Biso   1.000  C
  C89      1.0000 0.16800  0.58410  0.16988  Biso   1.000  C
  C90      1.0000 0.13760  0.85950  0.20420  Biso   1.000  C
  H60      1.0000 0.12140  0.87220  0.17220  Biso   1.000  H
  O31      1.0000 0.34636  0.81257  0.18827  Biso   1.000  O
  O32      1.0000 0.46603  0.81243  0.18829  Biso   1.000  O
  O33      1.0000 0.88550  0.94300  0.20120  Biso   1.000  O
  C91      1.0000 0.41500  0.95160  0.04880  Biso   1.000  C
  H61      1.0000 0.37980  0.96720  0.03350  Biso   1.000  H
  C92      1.0000 0.53740  0.95130  0.04910  Biso   1.000  C
  H62      1.0000 0.58840  0.96670  0.03390  Biso   1.000  H
  C93      1.0000 0.39170  0.90610  0.09520  Biso   1.000  C
  H63      1.0000 0.34070  0.89050  0.11010  Biso   1.000  H
  C94      1.0000 0.51440  0.90630  0.09530  Biso   1.000  C
  H64      1.0000 0.54990  0.89090  0.11050  Biso   1.000  H
  C95      1.0000 0.63310  0.81660  0.20750  Biso   1.000  C
  H65      1.0000 0.60430  0.80130  0.17550  Biso   1.000  H
  C96      1.0000 0.44180  0.88370  0.11940  Biso   1.000  C
  C97      1.0000 0.48710  0.97380  0.02530  Biso   1.000  C
  C98      1.0000 0.41610  0.83200  0.16988  Biso   1.000  C
  C99      1.0000 0.72190  0.86240  0.20420  Biso   1.000  C
  H66      1.0000 0.75080  0.87860  0.17220  Biso   1.000  H
  O34      1.0000 0.46621  0.65364  0.18827  Biso   1.000  O
  O35      1.0000 0.34640  0.53397  0.18829  Biso   1.000  O
  O36      1.0000 0.05750  0.11450  0.20120  Biso   1.000  O
  C100     1.0000 0.53660  0.58500  0.04880  Biso   1.000  C
  H67      1.0000 0.58740  0.62020  0.03350  Biso   1.000  H
  C101     1.0000 0.41390  0.46260  0.04910  Biso   1.000  C
  H68      1.0000 0.37830  0.41160  0.03390  Biso   1.000  H
  C102     1.0000 0.51440  0.60830  0.09520  Biso   1.000  C
  H69      1.0000 0.54980  0.65930  0.11010  Biso   1.000  H
  C103     1.0000 0.39190  0.48560  0.09530  Biso   1.000  C
  H70      1.0000 0.34100  0.45010  0.11050  Biso   1.000  H
  C104     1.0000 0.18350  0.36690  0.20750  Biso   1.000  C
  H71      1.0000 0.19700  0.39570  0.17550  Biso   1.000  H
  C105     1.0000 0.44190  0.55820  0.11940  Biso   1.000  C
  C106     1.0000 0.48670  0.51290  0.02530  Biso   1.000  C
  C107     1.0000 0.41590  0.58390  0.16988  Biso   1.000  C
  C108     1.0000 0.14050  0.27810  0.20420  Biso   1.000  C
  H72      1.0000 0.12780  0.24920  0.17220  Biso   1.000  H
  In1      1.0000 0.72901  0.27099  0.75000  Biso   1.000  In
  N1       1.0000 0.79555  0.20445  0.75000  Biso   1.000  N
  C109     1.0000 0.87780  0.12220  0.75000  Biso   1.000  C
  C110     1.0000 0.92530  0.07470  0.75000  Biso   1.000  C
  In2      1.0000 0.72901  0.45802  0.75000  Biso   1.000  In
  N2       1.0000 0.79555  0.59110  0.75000  Biso   1.000  N
  C111     1.0000 0.87780  0.75560  0.75000  Biso   1.000  C
  C112     1.0000 0.92530  0.85060  0.75000  Biso   1.000  C
  In3      1.0000 0.54198  0.27099  0.75000  Biso   1.000  In
  N3       1.0000 0.40890  0.20445  0.75000  Biso   1.000  N
  C113     1.0000 0.24440  0.12220  0.75000  Biso   1.000  C
  C114     1.0000 0.14940  0.07470  0.75000  Biso   1.000  C
  In4      1.0000 0.27099  0.72901  0.25000  Biso   1.000  In
  N4       1.0000 0.20445  0.79555  0.25000  Biso   1.000  N
  C115     1.0000 0.12220  0.87780  0.25000  Biso   1.000  C
  C116     1.0000 0.07470  0.92530  0.25000  Biso   1.000  C
  In5      1.0000 0.27099  0.54198  0.25000  Biso   1.000  In
  N5       1.0000 0.20445  0.40890  0.25000  Biso   1.000  N
  C117     1.0000 0.12220  0.24440  0.25000  Biso   1.000  C
  C118     1.0000 0.07470  0.14940  0.25000  Biso   1.000  C
  In6      1.0000 0.45802  0.72901  0.25000  Biso   1.000  In
  N6       1.0000 0.59110  0.79555  0.25000  Biso   1.000  N
  C119     1.0000 0.75560  0.87780  0.25000  Biso   1.000  C
  C120     1.0000 0.85060  0.92530  0.25000  Biso   1.000  C
  Zn1      1.0000 0.00000  0.00000  0.67797  Biso   1.000  Zn
  Zn2      1.0000 0.00000  0.00000  0.82203  Biso   1.000  Zn
  Zn3      1.0000 0.00000  0.00000  0.32203  Biso   1.000  Zn
  Zn4      1.0000 0.00000  0.00000  0.17797  Biso   1.000  Zn
  O37      1.0000 0.66667  0.33333  0.75000  Biso   1.000  O
  O38      1.0000 0.33333  0.66667  0.25000  Biso   1.000  O
