data_FIFNUE_clean
_audit_creation_date              2014-07-02
_audit_creation_method            'Materials Studio'
_symmetry_space_group_name_H-M    'P1'
_symmetry_Int_Tables_number       1
_symmetry_cell_setting            triclinic
loop_
_symmetry_equiv_pos_as_xyz
  x,y,z
_cell_length_a                    8.1309
_cell_length_b                    10.5108
_cell_length_c                    11.4194
_cell_angle_alpha                 62.5990
_cell_angle_beta                  84.4085
_cell_angle_gamma                 77.7770
loop_
_atom_site_label
_atom_site_type_symbol
_atom_site_fract_x
_atom_site_fract_y
_atom_site_fract_z
_atom_site_U_iso_or_equiv
_atom_site_adp_type
_atom_site_occupancy
Co1    Co    0.48993   0.68825   0.50758   0.01267  Uiso   1.00
Co2    Co    0.98993   0.19583   0.49242   0.01267  Uiso   1.00
H1     H     0.58780   0.56990   0.79900   0.01267  Uiso   1.00
H2     H     0.40550   0.37810   0.63500   0.01267  Uiso   1.00
H3     H     0.58350   0.37330   0.00140   0.01267  Uiso   1.00
H4     H     0.39860   0.17880   0.83000   0.01267  Uiso   1.00
H5     H     0.53810   0.21190   0.18560   0.01267  Uiso   1.00
H6     H     0.42300   0.98670   0.01120   0.01267  Uiso   1.00
H7     H     0.53670   0.00960   0.38380   0.01267  Uiso   1.00
H8     H     0.41900   0.79290   0.21600   0.01267  Uiso   1.00
H9     H     0.70240   0.39430   0.54160   0.01267  Uiso   1.00
H10    H     0.08780   0.36890   0.20100   0.01267  Uiso   1.00
H11    H     0.90550   0.01310   0.36500   0.01267  Uiso   1.00
H12    H     0.08350   0.37470   0.99860   0.01267  Uiso   1.00
H13    H     0.89860   0.00880   0.17000   0.01267  Uiso   1.00
H14    H     0.03810   0.39750   0.81440   0.01267  Uiso   1.00
H15    H     0.92300   0.99790   0.98880   0.01267  Uiso   1.00
H16    H     0.03670   0.39340   0.61620   0.01267  Uiso   1.00
H17    H     0.91900   0.00890   0.78400   0.01267  Uiso   1.00
H18    H     0.20240   0.93590   0.45840   0.01267  Uiso   1.00
C1     C     0.54810   0.49039   0.80502   0.01267  Uiso   1.00
C2     C     0.44190   0.37768   0.70984   0.01267  Uiso   1.00
C3     C     0.54600   0.37167   0.92786   0.01267  Uiso   1.00
C4     C     0.43710   0.25762   0.82676   0.01267  Uiso   1.00
C5     C     0.48900   0.25145   0.94150   0.01267  Uiso   1.00
C6     C     0.48320   0.12310   0.07220   0.01267  Uiso   1.00
C7     C     0.51560   0.12721   0.18878   0.01267  Uiso   1.00
C8     C     0.44670   0.99463   0.08534   0.01267  Uiso   1.00
C9     C     0.51370   0.00503   0.30774   0.01267  Uiso   1.00
C10    C     0.44570   0.87771   0.20958   0.01267  Uiso   1.00
C11    C     0.72530   0.45657   0.45486   0.01267  Uiso   1.00
C12    C     0.04810   0.29541   0.19498   0.01267  Uiso   1.00
C13    C     0.94190   0.08752   0.29016   0.01267  Uiso   1.00
C14    C     0.04600   0.29953   0.07214   0.01267  Uiso   1.00
C15    C     0.93710   0.08438   0.17324   0.01267  Uiso   1.00
C16    C     0.98900   0.19295   0.05850   0.01267  Uiso   1.00
C17    C     0.98320   0.19530   0.92780   0.01267  Uiso   1.00
C18    C     0.01560   0.31599   0.81122   0.01267  Uiso   1.00
C19    C     0.94670   0.07997   0.91466   0.01267  Uiso   1.00
C20    C     0.01370   0.31277   0.69226   0.01267  Uiso   1.00
C21    C     0.94570   0.08729   0.79042   0.01267  Uiso   1.00
C22    C     0.22530   0.91143   0.54514   0.01267  Uiso   1.00
N1     N     0.49650   0.49661   0.69578   0.01267  Uiso   1.00
N2     N     0.48080   0.87971   0.32038   0.01267  Uiso   1.00
N3     N     0.99650   0.19239   0.30422   0.01267  Uiso   1.00
N4     N     0.98080   0.20009   0.67962   0.01267  Uiso   1.00
O1     O     0.63880   0.58271   0.40498   0.01267  Uiso   1.00
O2     O     0.84050   0.40799   0.39662   0.01267  Uiso   1.00
O3     O     0.13880   0.98769   0.59502   0.01267  Uiso   1.00
O4     O     0.34050   0.80461   0.60338   0.01267  Uiso   1.00
