data_FIFNUE01_clean
_audit_creation_date              2014-07-02
_audit_creation_method            'Materials Studio'
_symmetry_space_group_name_H-M    'P1'
_symmetry_Int_Tables_number       1
_symmetry_cell_setting            triclinic
loop_
_symmetry_equiv_pos_as_xyz
  x,y,z
_cell_length_a                    8.1405
_cell_length_b                    10.5245
_cell_length_c                    11.4295
_cell_angle_alpha                 62.5864
_cell_angle_beta                  84.3939
_cell_angle_gamma                 77.7500
loop_
_atom_site_label
_atom_site_type_symbol
_atom_site_fract_x
_atom_site_fract_y
_atom_site_fract_z
_atom_site_U_iso_or_equiv
_atom_site_adp_type
_atom_site_occupancy
Co1    Co    0.62792   0.20032   0.50748   0.01267  Uiso   1.00
Co2    Co    0.12792   0.70780   0.49252   0.01267  Uiso   1.00
H1     H     0.54170   0.88980   0.63300   0.01267  Uiso   1.00
H2     H     0.72660   0.08410   0.79860   0.01267  Uiso   1.00
H3     H     0.55910   0.30430   0.21420   0.01267  Uiso   1.00
H4     H     0.53840   0.68830   0.82940   0.01267  Uiso   1.00
H5     H     0.67810   0.72580   0.18540   0.01267  Uiso   1.00
H6     H     0.56320   0.49650   0.01000   0.01267  Uiso   1.00
H7     H     0.67480   0.52120   0.38480   0.01267  Uiso   1.00
H8     H     0.72220   0.88710   0.00220   0.01267  Uiso   1.00
H9     H     0.85600   0.90400   0.54000   0.01267  Uiso   1.00
H10    H     0.04170   0.52280   0.36700   0.01267  Uiso   1.00
H11    H     0.22660   0.88270   0.20140   0.01267  Uiso   1.00
H12    H     0.05910   0.51850   0.78580   0.01267  Uiso   1.00
H13    H     0.03840   0.51770   0.17060   0.01267  Uiso   1.00
H14    H     0.17810   0.91120   0.81460   0.01267  Uiso   1.00
H15    H     0.06320   0.50650   0.99000   0.01267  Uiso   1.00
H16    H     0.17480   0.90600   0.61520   0.01267  Uiso   1.00
H17    H     0.22220   0.88930   0.99780   0.01267  Uiso   1.00
H18    H     0.35600   0.44400   0.46000   0.01267  Uiso   1.00
C1     C     0.57980   0.88950   0.70920   0.01267  Uiso   1.00
C2     C     0.68630   0.00290   0.80480   0.01267  Uiso   1.00
C3     C     0.62760   0.76330   0.94140   0.01267  Uiso   1.00
C4     C     0.62100   0.63570   0.07220   0.01267  Uiso   1.00
C5     C     0.58520   0.39090   0.20820   0.01267  Uiso   1.00
C6     C     0.57630   0.76930   0.82620   0.01267  Uiso   1.00
C7     C     0.65420   0.63990   0.18820   0.01267  Uiso   1.00
C8     C     0.58610   0.50540   0.08560   0.01267  Uiso   1.00
C9     C     0.65150   0.51680   0.30700   0.01267  Uiso   1.00
C10    C     0.68440   0.88500   0.92720   0.01267  Uiso   1.00
C11    C     0.86510   0.96770   0.45520   0.01267  Uiso   1.00
C12    C     0.07980   0.59870   0.29080   0.01267  Uiso   1.00
C13    C     0.18630   0.80770   0.19520   0.01267  Uiso   1.00
C14    C     0.12760   0.70470   0.05860   0.01267  Uiso   1.00
C15    C     0.12100   0.70790   0.92780   0.01267  Uiso   1.00
C16    C     0.08520   0.59910   0.79180   0.01267  Uiso   1.00
C17    C     0.07630   0.59550   0.17380   0.01267  Uiso   1.00
C18    C     0.15420   0.82810   0.81180   0.01267  Uiso   1.00
C19    C     0.08610   0.59100   0.91440   0.01267  Uiso   1.00
C20    C     0.15150   0.82380   0.69300   0.01267  Uiso   1.00
C21    C     0.18440   0.81220   0.07280   0.01267  Uiso   1.00
C22    C     0.36510   0.42290   0.54480   0.01267  Uiso   1.00
N1     N     0.63430   0.00930   0.69380   0.01267  Uiso   1.00
N2     N     0.61790   0.39120   0.31980   0.01267  Uiso   1.00
N3     N     0.13430   0.70310   0.30620   0.01267  Uiso   1.00
N4     N     0.11790   0.71100   0.68020   0.01267  Uiso   1.00
O1     O     0.77740   0.09360   0.40520   0.01267  Uiso   1.00
O2     O     0.97890   0.91883   0.39714   0.01267  Uiso   1.00
O3     O     0.27740   0.49880   0.59480   0.01267  Uiso   1.00
O4     O     0.47890   0.31597   0.60286   0.01267  Uiso   1.00
