data_FIFPAM_clean
_audit_creation_date              2014-07-02
_audit_creation_method            'Materials Studio'
_symmetry_space_group_name_H-M    'P1'
_symmetry_Int_Tables_number       1
_symmetry_cell_setting            triclinic
loop_
_symmetry_equiv_pos_as_xyz
  x,y,z
_cell_length_a                    8.1266
_cell_length_b                    10.4815
_cell_length_c                    11.3167
_cell_angle_alpha                 62.4127
_cell_angle_beta                  84.1870
_cell_angle_gamma                 77.3670
loop_
_atom_site_label
_atom_site_type_symbol
_atom_site_fract_x
_atom_site_fract_y
_atom_site_fract_z
_atom_site_U_iso_or_equiv
_atom_site_adp_type
_atom_site_occupancy
Ni1    Ni    0.48977   0.68815   0.50778   0.01267  Uiso   1.00
Ni2    Ni    0.98977   0.19593   0.49222   0.01267  Uiso   1.00
H1     H     0.60000   0.57310   0.78980   0.01267  Uiso   1.00
H2     H     0.41500   0.38130   0.62740   0.01267  Uiso   1.00
H3     H     0.60600   0.37440   0.99920   0.01267  Uiso   1.00
H4     H     0.40080   0.17890   0.82740   0.01267  Uiso   1.00
H5     H     0.52800   0.22080   0.19040   0.01267  Uiso   1.00
H6     H     0.41800   0.98610   0.00980   0.01267  Uiso   1.00
H7     H     0.55500   0.99450   0.39500   0.01267  Uiso   1.00
H8     H     0.42500   0.77600   0.21800   0.01267  Uiso   1.00
H9     H     0.70900   0.38130   0.55940   0.01267  Uiso   1.00
H10    H     0.10000   0.36290   0.21020   0.01267  Uiso   1.00
H11    H     0.91500   0.00870   0.37260   0.01267  Uiso   1.00
H12    H     0.10600   0.37360   0.00080   0.01267  Uiso   1.00
H13    H     0.90080   0.00630   0.17260   0.01267  Uiso   1.00
H14    H     0.02800   0.41120   0.80960   0.01267  Uiso   1.00
H15    H     0.91800   0.99590   0.99020   0.01267  Uiso   1.00
H16    H     0.05500   0.38950   0.60500   0.01267  Uiso   1.00
H17    H     0.92500   0.99400   0.78200   0.01267  Uiso   1.00
H18    H     0.20900   0.94070   0.44060   0.01267  Uiso   1.00
C1     C     0.54740   0.49285   0.80330   0.01267  Uiso   1.00
C2     C     0.44330   0.38129   0.70542   0.01267  Uiso   1.00
C3     C     0.54390   0.37388   0.92824   0.01267  Uiso   1.00
C4     C     0.43820   0.25805   0.82450   0.01267  Uiso   1.00
C5     C     0.48950   0.25258   0.94084   0.01267  Uiso   1.00
C6     C     0.48370   0.12307   0.07306   0.01267  Uiso   1.00
C7     C     0.51730   0.12527   0.19066   0.01267  Uiso   1.00
C8     C     0.44560   0.99354   0.08652   0.01267  Uiso   1.00
C9     C     0.51720   0.00139   0.31062   0.01267  Uiso   1.00
C10    C     0.44550   0.87555   0.21050   0.01267  Uiso   1.00
C11    C     0.72760   0.45460   0.45760   0.01267  Uiso   1.00
C12    C     0.04740   0.29615   0.19670   0.01267  Uiso   1.00
C13    C     0.94330   0.08671   0.29458   0.01267  Uiso   1.00
C14    C     0.04390   0.30212   0.07176   0.01267  Uiso   1.00
C15    C     0.93820   0.08255   0.17550   0.01267  Uiso   1.00
C16    C     0.98950   0.19342   0.05916   0.01267  Uiso   1.00
C17    C     0.98370   0.19613   0.92694   0.01267  Uiso   1.00
C18    C     0.01730   0.31593   0.80934   0.01267  Uiso   1.00
C19    C     0.94560   0.08006   0.91348   0.01267  Uiso   1.00
C20    C     0.01720   0.31201   0.68938   0.01267  Uiso   1.00
C21    C     0.94550   0.08605   0.78950   0.01267  Uiso   1.00
C22    C     0.22760   0.91220   0.54240   0.01267  Uiso   1.00
N1     N     0.49570   0.49877   0.69206   0.01267  Uiso   1.00
N2     N     0.48190   0.87540   0.32300   0.01267  Uiso   1.00
N3     N     0.99570   0.19083   0.30794   0.01267  Uiso   1.00
N4     N     0.98190   0.19840   0.67700   0.01267  Uiso   1.00
O1     O     0.63810   0.58053   0.40718   0.01267  Uiso   1.00
O2     O     0.84320   0.40619   0.39864   0.01267  Uiso   1.00
O3     O     0.13810   0.98771   0.59282   0.01267  Uiso   1.00
O4     O     0.34320   0.80483   0.60136   0.01267  Uiso   1.00
