data_FIFPOA_clean
_audit_creation_date              2014-07-02
_audit_creation_method            'Materials Studio'
_symmetry_space_group_name_H-M    'P1'
_symmetry_Int_Tables_number       1
_symmetry_cell_setting            triclinic
loop_
_symmetry_equiv_pos_as_xyz
  x,y,z
_cell_length_a                    4.8105
_cell_length_b                    7.6762
_cell_length_c                    17.8448
_cell_angle_alpha                 90.0000
_cell_angle_beta                  90.0000
_cell_angle_gamma                 90.0000
loop_
_atom_site_label
_atom_site_type_symbol
_atom_site_fract_x
_atom_site_fract_y
_atom_site_fract_z
_atom_site_U_iso_or_equiv
_atom_site_adp_type
_atom_site_occupancy
Eu1    Eu    0.97021   0.95735   0.28904   0.01267  Uiso   1.00
Eu2    Eu    0.97021   0.04265   0.71096   0.01267  Uiso   1.00
Eu3    Eu    0.97021   0.45735   0.21096   0.01267  Uiso   1.00
Eu4    Eu    0.97021   0.54265   0.78904   0.01267  Uiso   1.00
C1     C     0.47800   0.15950   0.27720   0.01267  Uiso   1.00
C2     C     0.09690   0.53350   0.46920   0.01267  Uiso   1.00
C3     C     0.09330   0.59560   0.39310   0.01267  Uiso   1.00
C4     C     0.47800   0.84050   0.72280   0.01267  Uiso   1.00
C5     C     0.09690   0.46650   0.53080   0.01267  Uiso   1.00
C6     C     0.09330   0.40440   0.60690   0.01267  Uiso   1.00
C7     C     0.47800   0.65950   0.22280   0.01267  Uiso   1.00
C8     C     0.09690   0.03350   0.03080   0.01267  Uiso   1.00
C9     C     0.09330   0.09560   0.10690   0.01267  Uiso   1.00
C10    C     0.47800   0.34050   0.77720   0.01267  Uiso   1.00
C11    C     0.09690   0.96650   0.96920   0.01267  Uiso   1.00
C12    C     0.09330   0.90440   0.89310   0.01267  Uiso   1.00
O1     O     0.23300   0.19820   0.23930   0.01267  Uiso   1.00
O2     O     0.46330   0.01730   0.31148   0.01267  Uiso   1.00
O3     O     0.07010   0.75520   0.38545   0.01267  Uiso   1.00
O4     O     0.09490   0.47950   0.34446   0.01267  Uiso   1.00
O5     O     0.70400   0.24570   0.27748   0.01267  Uiso   1.00
O6     O     0.23300   0.80180   0.76070   0.01267  Uiso   1.00
O7     O     0.46330   0.98270   0.68852   0.01267  Uiso   1.00
O8     O     0.07010   0.24480   0.61455   0.01267  Uiso   1.00
O9     O     0.09490   0.52050   0.65554   0.01267  Uiso   1.00
O10    O     0.70400   0.75430   0.72252   0.01267  Uiso   1.00
O11    O     0.23300   0.69820   0.26070   0.01267  Uiso   1.00
O12    O     0.46330   0.51730   0.18852   0.01267  Uiso   1.00
O13    O     0.07010   0.25520   0.11455   0.01267  Uiso   1.00
O14    O     0.09490   0.97950   0.15554   0.01267  Uiso   1.00
O15    O     0.70400   0.74570   0.22252   0.01267  Uiso   1.00
O16    O     0.23300   0.30180   0.73930   0.01267  Uiso   1.00
O17    O     0.46330   0.48270   0.81148   0.01267  Uiso   1.00
O18    O     0.07010   0.74480   0.88545   0.01267  Uiso   1.00
O19    O     0.09490   0.02050   0.84446   0.01267  Uiso   1.00
O20    O     0.70400   0.25430   0.77748   0.01267  Uiso   1.00
