data_image0
_cell_length_a       9.6685
_cell_length_b       9.6685
_cell_length_c       14.8879
_cell_angle_alpha    90
_cell_angle_beta     90
_cell_angle_gamma    120

_symmetry_space_group_name_H-M    "P 1"
_symmetry_int_tables_number       1

loop_
  _symmetry_equiv_pos_as_xyz
  'x, y, z'

loop_
  _atom_site_label
  _atom_site_occupancy
  _atom_site_fract_x
  _atom_site_fract_y
  _atom_site_fract_z
  _atom_site_thermal_displace_type
  _atom_site_B_iso_or_equiv
  _atom_site_type_symbol
  P1       1.0000 0.76137  0.60660  0.92644  Biso   1.000  P
  O1       1.0000 0.61420  0.47960  0.97310  Biso   1.000  O
  O2       1.0000 0.77900  0.77490  0.93960  Biso   1.000  O
  O3       1.0000 0.91390  0.62140  0.96160  Biso   1.000  O
  O4       1.0000 0.74420  0.56480  0.82480  Biso   1.000  O
  P2       1.0000 0.39340  0.15477  0.59311  Biso   1.000  P
  O5       1.0000 0.52040  0.13460  0.63977  Biso   1.000  O
  O6       1.0000 0.22510  0.00410  0.60627  Biso   1.000  O
  O7       1.0000 0.37860  0.29250  0.62827  Biso   1.000  O
  O8       1.0000 0.43520  0.17940  0.49147  Biso   1.000  O
  P3       1.0000 0.84523  0.23863  0.25977  Biso   1.000  P
  O9       1.0000 0.86540  0.38580  0.30643  Biso   1.000  O
  O10      1.0000 0.99590  0.22100  0.27293  Biso   1.000  O
  O11      1.0000 0.70750  0.08610  0.29493  Biso   1.000  O
  O12      1.0000 0.82060  0.25580  0.15813  Biso   1.000  O
  P4       1.0000 0.23863  0.39340  0.42644  Biso   1.000  P
  O13      1.0000 0.38580  0.52040  0.47310  Biso   1.000  O
  O14      1.0000 0.22100  0.22510  0.43960  Biso   1.000  O
  O15      1.0000 0.08610  0.37860  0.46160  Biso   1.000  O
  O16      1.0000 0.25580  0.43520  0.32480  Biso   1.000  O
  P5       1.0000 0.60660  0.84523  0.09311  Biso   1.000  P
  O17      1.0000 0.47960  0.86540  0.13977  Biso   1.000  O
  O18      1.0000 0.77490  0.99590  0.10627  Biso   1.000  O
  O19      1.0000 0.62140  0.70750  0.12827  Biso   1.000  O
  O20      1.0000 0.56480  0.82060  0.99147  Biso   1.000  O
  P6       1.0000 0.15477  0.76137  0.75977  Biso   1.000  P
  O21      1.0000 0.13460  0.61420  0.80643  Biso   1.000  O
  O22      1.0000 0.00410  0.77900  0.77293  Biso   1.000  O
  O23      1.0000 0.29250  0.91390  0.79493  Biso   1.000  O
  O24      1.0000 0.17940  0.74420  0.65813  Biso   1.000  O
  P7       1.0000 0.60660  0.76137  0.74023  Biso   1.000  P
  O25      1.0000 0.47960  0.61420  0.69357  Biso   1.000  O
  O26      1.0000 0.77490  0.77900  0.72707  Biso   1.000  O
  O27      1.0000 0.62140  0.91390  0.70507  Biso   1.000  O
  O28      1.0000 0.56480  0.74420  0.84187  Biso   1.000  O
  P8       1.0000 0.15477  0.39340  0.07356  Biso   1.000  P
  O29      1.0000 0.13460  0.52040  0.02690  Biso   1.000  O
  O30      1.0000 0.00410  0.22510  0.06040  Biso   1.000  O
  O31      1.0000 0.29250  0.37860  0.03840  Biso   1.000  O
  O32      1.0000 0.17940  0.43520  0.17520  Biso   1.000  O
  P9       1.0000 0.23863  0.84523  0.40689  Biso   1.000  P
  O33      1.0000 0.38580  0.86540  0.36023  Biso   1.000  O
  O34      1.0000 0.22100  0.99590  0.39373  Biso   1.000  O
  O35      1.0000 0.08610  0.70750  0.37173  Biso   1.000  O
  O36      1.0000 0.25580  0.82060  0.50853  Biso   1.000  O
  P10      1.0000 0.39340  0.23863  0.24023  Biso   1.000  P
  O37      1.0000 0.52040  0.38580  0.19357  Biso   1.000  O
  O38      1.0000 0.22510  0.22100  0.22707  Biso   1.000  O
  O39      1.0000 0.37860  0.08610  0.20507  Biso   1.000  O
  O40      1.0000 0.43520  0.25580  0.34187  Biso   1.000  O
  P11      1.0000 0.84523  0.60660  0.57356  Biso   1.000  P
  O41      1.0000 0.86540  0.47960  0.52690  Biso   1.000  O
  O42      1.0000 0.99590  0.77490  0.56040  Biso   1.000  O
  O43      1.0000 0.70750  0.62140  0.53840  Biso   1.000  O
  O44      1.0000 0.82060  0.56480  0.67520  Biso   1.000  O
  P12      1.0000 0.76137  0.15477  0.90689  Biso   1.000  P
  O45      1.0000 0.61420  0.13460  0.86023  Biso   1.000  O
  O46      1.0000 0.77900  0.00410  0.89373  Biso   1.000  O
  O47      1.0000 0.91390  0.29250  0.87173  Biso   1.000  O
  O48      1.0000 0.74420  0.17940  0.00853  Biso   1.000  O
  Zn1      1.0000 0.51002  0.48998  0.08333  Biso   1.000  Zn
  Zn2      1.0000 0.51002  0.02004  0.75000  Biso   1.000  Zn
  Zn3      1.0000 0.97996  0.48998  0.41667  Biso   1.000  Zn
  Zn4      1.0000 0.48998  0.51002  0.58333  Biso   1.000  Zn
  Zn5      1.0000 0.48998  0.97996  0.25000  Biso   1.000  Zn
  Zn6      1.0000 0.02004  0.51002  0.91667  Biso   1.000  Zn
  B1       1.0000 0.67050  0.83525  0.91667  Biso   1.000  B
  B2       1.0000 0.16475  0.83525  0.58333  Biso   1.000  B
  B3       1.0000 0.16475  0.32950  0.25000  Biso   1.000  B
  B4       1.0000 0.32950  0.16475  0.41667  Biso   1.000  B
  B5       1.0000 0.83525  0.16475  0.08333  Biso   1.000  B
  B6       1.0000 0.83525  0.67050  0.75000  Biso   1.000  B
