data_FIGXEY_clean
_audit_creation_date              2014-07-02
_audit_creation_method            'Materials Studio'
_symmetry_space_group_name_H-M    'P1'
_symmetry_Int_Tables_number       1
_symmetry_cell_setting            triclinic
loop_
_symmetry_equiv_pos_as_xyz
  x,y,z
_cell_length_a                    6.5920
_cell_length_b                    6.6862
_cell_length_c                    6.6862
_cell_angle_alpha                 115.3650
_cell_angle_beta                  106.4350
_cell_angle_gamma                 73.5646
loop_
_atom_site_label
_atom_site_type_symbol
_atom_site_fract_x
_atom_site_fract_y
_atom_site_fract_z
_atom_site_U_iso_or_equiv
_atom_site_adp_type
_atom_site_occupancy
Dy1    Dy    0.00000   0.00000   0.00000   0.01267  Uiso   1.00
H1     H     0.88600   0.46400   0.84600   0.01267  Uiso   1.00
H2     H     0.11400   0.84600   0.46400   0.01267  Uiso   1.00
H3     H     0.50000   0.07000   0.07000   0.01267  Uiso   1.00
C1     C     0.03490   0.46770   0.93770   0.01267  Uiso   1.00
C2     C     0.96510   0.93770   0.46770   0.01267  Uiso   1.00
C3     C     0.50000   0.92990   0.92990   0.01267  Uiso   1.00
O1     O     0.12030   0.31120   0.00380   0.01267  Uiso   1.00
O2     O     0.11680   0.62980   0.97480   0.01267  Uiso   1.00
O3     O     0.66330   0.85930   0.84490   0.01267  Uiso   1.00
O4     O     0.87970   0.00380   0.31120   0.01267  Uiso   1.00
O5     O     0.88320   0.97480   0.62980   0.01267  Uiso   1.00
O6     O     0.33670   0.84490   0.85930   0.01267  Uiso   1.00
