data_FIGXAU_clean
_audit_creation_date              2014-07-02
_audit_creation_method            'Materials Studio'
_symmetry_space_group_name_H-M    'P1'
_symmetry_Int_Tables_number       1
_symmetry_cell_setting            triclinic
loop_
_symmetry_equiv_pos_as_xyz
  x,y,z
_cell_length_a                    6.5470
_cell_length_b                    6.6323
_cell_length_c                    6.6323
_cell_angle_alpha                 115.2050
_cell_angle_beta                  106.3710
_cell_angle_gamma                 73.6293
loop_
_atom_site_label
_atom_site_type_symbol
_atom_site_fract_x
_atom_site_fract_y
_atom_site_fract_z
_atom_site_U_iso_or_equiv
_atom_site_adp_type
_atom_site_occupancy
Er1    Er    0.00000   0.00000   0.00000   0.01267  Uiso   1.00
H1     H     0.11600   0.84300   0.46100   0.01267  Uiso   1.00
H2     H     0.88400   0.46100   0.84300   0.01267  Uiso   1.00
H3     H     0.50000   0.07000   0.07000   0.01267  Uiso   1.00
C1     C     0.96660   0.93740   0.46860   0.01267  Uiso   1.00
C2     C     0.03340   0.46860   0.93740   0.01267  Uiso   1.00
C3     C     0.50000   0.93440   0.93440   0.01267  Uiso   1.00
O1     O     0.87920   0.00450   0.31330   0.01267  Uiso   1.00
O2     O     0.88490   0.97530   0.63110   0.01267  Uiso   1.00
O3     O     0.66510   0.86070   0.84610   0.01267  Uiso   1.00
O4     O     0.12080   0.31330   0.00450   0.01267  Uiso   1.00
O5     O     0.11510   0.63110   0.97530   0.01267  Uiso   1.00
O6     O     0.33490   0.84610   0.86070   0.01267  Uiso   1.00
