data_FIHFAF_clean
_audit_creation_date              2014-07-02
_audit_creation_method            'Materials Studio'
_symmetry_space_group_name_H-M    'P1'
_symmetry_Int_Tables_number       1
_symmetry_cell_setting            triclinic
loop_
_symmetry_equiv_pos_as_xyz
  x,y,z
_cell_length_a                    9.2750
_cell_length_b                    12.9220
_cell_length_c                    14.5640
_cell_angle_alpha                 105.0600
_cell_angle_beta                  97.1940
_cell_angle_gamma                 96.2540
loop_
_atom_site_label
_atom_site_type_symbol
_atom_site_fract_x
_atom_site_fract_y
_atom_site_fract_z
_atom_site_U_iso_or_equiv
_atom_site_adp_type
_atom_site_occupancy
Co1    Co    0.44528   0.91885   0.71791   0.01267  Uiso   1.00
Co2    Co    0.95294   0.70279   0.87317   0.01267  Uiso   1.00
Co3    Co    0.55472   0.08115   0.28209   0.01267  Uiso   1.00
Co4    Co    0.04706   0.29721   0.12683   0.01267  Uiso   1.00
Co5    Co    0.00000   0.00000   0.00000   0.01267  Uiso   1.00
H1     H     0.70070   0.35620   0.83370   0.01267  Uiso   1.00
H2     H     0.56670   0.13610   0.58030   0.01267  Uiso   1.00
H3     H     0.75300   0.43320   0.58890   0.01267  Uiso   1.00
H4     H     0.04440   0.94500   0.21070   0.01267  Uiso   1.00
H5     H     0.69380   0.01870   0.89240   0.01267  Uiso   1.00
H6     H     0.19330   0.74130   0.73860   0.01267  Uiso   1.00
H7     H     0.27290   0.12220   0.94630   0.01267  Uiso   1.00
H8     H     0.36710   0.10470   0.86960   0.01267  Uiso   1.00
H9     H     0.91380   0.56500   0.01130   0.01267  Uiso   1.00
H10    H     0.92540   0.57590   0.11650   0.01267  Uiso   1.00
H11    H     0.54060   0.68570   0.67400   0.01267  Uiso   1.00
H12    H     0.66080   0.63420   0.71370   0.01267  Uiso   1.00
H13    H     0.29930   0.64380   0.16630   0.01267  Uiso   1.00
H14    H     0.43330   0.86390   0.41970   0.01267  Uiso   1.00
H15    H     0.24700   0.56680   0.41110   0.01267  Uiso   1.00
H16    H     0.95560   0.05500   0.78930   0.01267  Uiso   1.00
H17    H     0.30620   0.98130   0.10760   0.01267  Uiso   1.00
H18    H     0.80670   0.25870   0.26140   0.01267  Uiso   1.00
H19    H     0.72710   0.87780   0.05370   0.01267  Uiso   1.00
H20    H     0.63290   0.89530   0.13040   0.01267  Uiso   1.00
H21    H     0.08620   0.43500   0.98870   0.01267  Uiso   1.00
H22    H     0.07460   0.42410   0.88350   0.01267  Uiso   1.00
H23    H     0.45940   0.31430   0.32600   0.01267  Uiso   1.00
H24    H     0.33920   0.36580   0.28630   0.01267  Uiso   1.00
C1     C     0.81760   0.52160   0.77730   0.01267  Uiso   1.00
C2     C     0.74100   0.40930   0.71970   0.01267  Uiso   1.00
C3     C     0.69080   0.33640   0.76680   0.01267  Uiso   1.00
C4     C     0.62460   0.23200   0.71300   0.01267  Uiso   1.00
C5     C     0.60960   0.20570   0.61600   0.01267  Uiso   1.00
C6     C     0.65710   0.28070   0.56800   0.01267  Uiso   1.00
C7     C     0.72190   0.38240   0.62000   0.01267  Uiso   1.00
C8     C     0.63450   0.24910   0.46050   0.01267  Uiso   1.00
C9     C     0.56740   0.15050   0.76370   0.01267  Uiso   1.00
C10    C     0.96580   0.71110   0.08850   0.01267  Uiso   1.00
C11    C     0.02170   0.88020   0.16190   0.01267  Uiso   1.00
C12    C     0.67210   0.78560   0.78180   0.01267  Uiso   1.00
C13    C     0.70710   0.94700   0.86770   0.01267  Uiso   1.00
C14    C     0.23800   0.97220   0.86480   0.01267  Uiso   1.00
C15    C     0.19210   0.80680   0.78370   0.01267  Uiso   1.00
C16    C     0.18240   0.47840   0.22270   0.01267  Uiso   1.00
C17    C     0.25900   0.59070   0.28030   0.01267  Uiso   1.00
C18    C     0.30920   0.66360   0.23320   0.01267  Uiso   1.00
C19    C     0.37540   0.76800   0.28700   0.01267  Uiso   1.00
C20    C     0.39040   0.79430   0.38400   0.01267  Uiso   1.00
C21    C     0.34290   0.71930   0.43200   0.01267  Uiso   1.00
C22    C     0.27810   0.61760   0.38000   0.01267  Uiso   1.00
C23    C     0.36550   0.75090   0.53950   0.01267  Uiso   1.00
C24    C     0.43260   0.84950   0.23630   0.01267  Uiso   1.00
C25    C     0.03420   0.28890   0.91150   0.01267  Uiso   1.00
C26    C     0.97830   0.11980   0.83810   0.01267  Uiso   1.00
C27    C     0.32790   0.21440   0.21820   0.01267  Uiso   1.00
C28    C     0.29290   0.05300   0.13230   0.01267  Uiso   1.00
C29    C     0.76200   0.02780   0.13520   0.01267  Uiso   1.00
C30    C     0.80790   0.19320   0.21630   0.01267  Uiso   1.00
N1     N     0.10580   0.81950   0.84920   0.01267  Uiso   1.00
N2     N     0.13550   0.92680   0.90290   0.01267  Uiso   1.00
N3     N     0.27920   0.89990   0.78930   0.01267  Uiso   1.00
N4     N     0.30050   0.08000   0.89770   0.01267  Uiso   1.00
N5     N     0.01240   0.87300   0.07110   0.01267  Uiso   1.00
N6     N     0.97730   0.76430   0.02180   0.01267  Uiso   1.00
N7     N     0.99410   0.78190   0.17660   0.01267  Uiso   1.00
N8     N     0.93090   0.60500   0.06990   0.01267  Uiso   1.00
N9     N     0.81240   0.90630   0.90290   0.01267  Uiso   1.00
N10    N     0.79360   0.79760   0.84890   0.01267  Uiso   1.00
N11    N     0.61590   0.87790   0.79130   0.01267  Uiso   1.00
N12    N     0.61790   0.69020   0.71500   0.01267  Uiso   1.00
N13    N     0.89420   0.18050   0.15080   0.01267  Uiso   1.00
N14    N     0.86450   0.07320   0.09710   0.01267  Uiso   1.00
N15    N     0.72080   0.10010   0.21070   0.01267  Uiso   1.00
N16    N     0.69950   0.92000   0.10230   0.01267  Uiso   1.00
N17    N     0.98760   0.12700   0.92890   0.01267  Uiso   1.00
N18    N     0.02270   0.23570   0.97820   0.01267  Uiso   1.00
N19    N     0.00590   0.21810   0.82340   0.01267  Uiso   1.00
N20    N     0.06910   0.39500   0.93010   0.01267  Uiso   1.00
N21    N     0.18760   0.09370   0.09710   0.01267  Uiso   1.00
N22    N     0.20640   0.20240   0.15110   0.01267  Uiso   1.00
N23    N     0.38410   0.12210   0.20870   0.01267  Uiso   1.00
N24    N     0.38210   0.30980   0.28500   0.01267  Uiso   1.00
O1     O     0.81970   0.55280   0.86670   0.01267  Uiso   1.00
O2     O     0.87870   0.58260   0.73430   0.01267  Uiso   1.00
O3     O     0.49760   0.06260   0.70640   0.01267  Uiso   1.00
O4     O     0.58930   0.17220   0.85130   0.01267  Uiso   1.00
O5     O     0.59550   0.14800   0.41930   0.01267  Uiso   1.00
O6     O     0.65320   0.31840   0.41710   0.01267  Uiso   1.00
O7     O     0.18030   0.44720   0.13330   0.01267  Uiso   1.00
O8     O     0.12130   0.41740   0.26570   0.01267  Uiso   1.00
O9     O     0.50240   0.93740   0.29360   0.01267  Uiso   1.00
O10    O     0.41070   0.82780   0.14870   0.01267  Uiso   1.00
O11    O     0.40450   0.85200   0.58070   0.01267  Uiso   1.00
O12    O     0.34680   0.68160   0.58290   0.01267  Uiso   1.00
