data_FIHLOZ_clean
_audit_creation_date              2014-07-02
_audit_creation_method            'Materials Studio'
_symmetry_space_group_name_H-M    'P1'
_symmetry_Int_Tables_number       1
_symmetry_cell_setting            triclinic
loop_
_symmetry_equiv_pos_as_xyz
  x,y,z
_cell_length_a                    10.7873
_cell_length_b                    22.3486
_cell_length_c                    26.9072
_cell_angle_alpha                 90.0000
_cell_angle_beta                  90.0000
_cell_angle_gamma                 101.1730
loop_
_atom_site_label
_atom_site_type_symbol
_atom_site_fract_x
_atom_site_fract_y
_atom_site_fract_z
_atom_site_U_iso_or_equiv
_atom_site_adp_type
_atom_site_occupancy
Co1    Co    0.83277   0.84114   0.34446   0.01267  Uiso   1.00
Co2    Co    0.08772   0.95301   0.39016   0.01267  Uiso   1.00
Co3    Co    0.58951   0.94473   0.14788   0.01267  Uiso   1.00
Co4    Co    0.34588   0.82344   0.10161   0.01267  Uiso   1.00
Co5    Co    0.66723   0.65886   0.84446   0.01267  Uiso   1.00
Co6    Co    0.41228   0.54699   0.89016   0.01267  Uiso   1.00
Co7    Co    0.91049   0.55527   0.64788   0.01267  Uiso   1.00
Co8    Co    0.15412   0.67656   0.60161   0.01267  Uiso   1.00
Co9    Co    0.16723   0.15886   0.65554   0.01267  Uiso   1.00
Co10   Co    0.91228   0.04699   0.60984   0.01267  Uiso   1.00
Co11   Co    0.41049   0.05527   0.85212   0.01267  Uiso   1.00
Co12   Co    0.65412   0.17656   0.89839   0.01267  Uiso   1.00
Co13   Co    0.33277   0.34114   0.15554   0.01267  Uiso   1.00
Co14   Co    0.58772   0.45301   0.10984   0.01267  Uiso   1.00
Co15   Co    0.08951   0.44473   0.35212   0.01267  Uiso   1.00
Co16   Co    0.84588   0.32344   0.39839   0.01267  Uiso   1.00
H1     H     0.04800   0.84590   0.38460   0.01267  Uiso   1.00
H2     H     0.05400   0.85310   0.33590   0.01267  Uiso   1.00
H3     H     0.37900   0.92930   0.09550   0.01267  Uiso   1.00
H4     H     0.35700   0.92750   0.14510   0.01267  Uiso   1.00
H5     H     0.78290   0.06810   0.45940   0.01267  Uiso   1.00
H6     H     0.86920   0.24860   0.48840   0.01267  Uiso   1.00
H7     H     0.36910   0.98030   0.42130   0.01267  Uiso   1.00
H8     H     0.72450   0.99230   0.34900   0.01267  Uiso   1.00
H9     H     0.78270   0.01230   0.40270   0.01267  Uiso   1.00
H10    H     0.59190   0.00000   0.30020   0.01267  Uiso   1.00
H11    H     0.21390   0.94660   0.28930   0.01267  Uiso   1.00
H12    H     0.61800   0.51000   0.00710   0.01267  Uiso   1.00
H13    H     0.71220   0.69430   0.01390   0.01267  Uiso   1.00
H14    H     0.66000   0.59000   0.13780   0.01267  Uiso   1.00
H15    H     0.73180   0.95550   0.24600   0.01267  Uiso   1.00
H16    H     0.76800   0.19320   0.35280   0.01267  Uiso   1.00
H17    H     0.19190   0.04350   0.98140   0.01267  Uiso   1.00
H18    H     0.01880   0.94420   0.07570   0.01267  Uiso   1.00
H19    H     0.16260   0.97490   0.06380   0.01267  Uiso   1.00
H20    H     0.12320   0.13060   0.10630   0.01267  Uiso   1.00
H21    H     0.40390   0.20590   0.01960   0.01267  Uiso   1.00
H22    H     0.06690   0.79480   0.06360   0.01267  Uiso   1.00
H23    H     0.20190   0.83510   0.19810   0.01267  Uiso   1.00
H24    H     0.68920   0.84310   0.25190   0.01267  Uiso   1.00
H25    H     0.55490   0.79960   0.38560   0.01267  Uiso   1.00
H26    H     0.17890   0.77180   0.32620   0.01267  Uiso   1.00
H27    H     0.14470   0.74780   0.38150   0.01267  Uiso   1.00
H28    H     0.31390   0.78130   0.26900   0.01267  Uiso   1.00
H29    H     0.13030   0.57790   0.31980   0.01267  Uiso   1.00
H30    H     0.22590   0.69020   0.43700   0.01267  Uiso   1.00
H31    H     0.10180   0.50870   0.45450   0.01267  Uiso   1.00
H32    H     0.86650   0.98310   0.11030   0.01267  Uiso   1.00
H33    H     0.11000   0.99120   0.22530   0.01267  Uiso   1.00
H34    H     0.82320   0.79510   0.17780   0.01267  Uiso   1.00
H35    H     0.69060   0.78490   0.12120   0.01267  Uiso   1.00
H36    H     0.65340   0.75750   0.06700   0.01267  Uiso   1.00
H37    H     0.45200   0.65410   0.88460   0.01267  Uiso   1.00
H38    H     0.44600   0.64690   0.83590   0.01267  Uiso   1.00
H39    H     0.12100   0.57070   0.59550   0.01267  Uiso   1.00
H40    H     0.14300   0.57250   0.64510   0.01267  Uiso   1.00
H41    H     0.71710   0.43190   0.95940   0.01267  Uiso   1.00
H42    H     0.63080   0.25140   0.98840   0.01267  Uiso   1.00
H43    H     0.13090   0.51970   0.92130   0.01267  Uiso   1.00
H44    H     0.77550   0.50770   0.84900   0.01267  Uiso   1.00
H45    H     0.71730   0.48770   0.90270   0.01267  Uiso   1.00
H46    H     0.90810   0.50000   0.80020   0.01267  Uiso   1.00
H47    H     0.28610   0.55340   0.78930   0.01267  Uiso   1.00
H48    H     0.88200   0.99000   0.50710   0.01267  Uiso   1.00
H49    H     0.78780   0.80570   0.51390   0.01267  Uiso   1.00
H50    H     0.84000   0.91000   0.63780   0.01267  Uiso   1.00
H51    H     0.76820   0.54450   0.74600   0.01267  Uiso   1.00
H52    H     0.73200   0.30680   0.85280   0.01267  Uiso   1.00
H53    H     0.30810   0.45650   0.48140   0.01267  Uiso   1.00
H54    H     0.48120   0.55580   0.57570   0.01267  Uiso   1.00
H55    H     0.33740   0.52510   0.56380   0.01267  Uiso   1.00
H56    H     0.37680   0.36940   0.60630   0.01267  Uiso   1.00
H57    H     0.09610   0.29410   0.51960   0.01267  Uiso   1.00
H58    H     0.43310   0.70520   0.56360   0.01267  Uiso   1.00
H59    H     0.29810   0.66490   0.69810   0.01267  Uiso   1.00
H60    H     0.81080   0.65690   0.75190   0.01267  Uiso   1.00
H61    H     0.94510   0.70040   0.88560   0.01267  Uiso   1.00
H62    H     0.32110   0.72820   0.82620   0.01267  Uiso   1.00
H63    H     0.35530   0.75220   0.88150   0.01267  Uiso   1.00
H64    H     0.18610   0.71870   0.76900   0.01267  Uiso   1.00
H65    H     0.36970   0.92210   0.81980   0.01267  Uiso   1.00
H66    H     0.27410   0.80980   0.93700   0.01267  Uiso   1.00
H67    H     0.39820   0.99130   0.95450   0.01267  Uiso   1.00
H68    H     0.63350   0.51690   0.61030   0.01267  Uiso   1.00
H69    H     0.39000   0.50880   0.72530   0.01267  Uiso   1.00
H70    H     0.67680   0.70490   0.67780   0.01267  Uiso   1.00
H71    H     0.80940   0.71510   0.62120   0.01267  Uiso   1.00
H72    H     0.84660   0.74250   0.56700   0.01267  Uiso   1.00
H73    H     0.95200   0.15410   0.61540   0.01267  Uiso   1.00
H74    H     0.94600   0.14690   0.66410   0.01267  Uiso   1.00
H75    H     0.62100   0.07070   0.90450   0.01267  Uiso   1.00
H76    H     0.64300   0.07250   0.85490   0.01267  Uiso   1.00
H77    H     0.21710   0.93190   0.54060   0.01267  Uiso   1.00
H78    H     0.13080   0.75140   0.51160   0.01267  Uiso   1.00
H79    H     0.63090   0.01970   0.57870   0.01267  Uiso   1.00
H80    H     0.27550   0.00770   0.65100   0.01267  Uiso   1.00
H81    H     0.21730   0.98770   0.59730   0.01267  Uiso   1.00
H82    H     0.40810   0.00000   0.69980   0.01267  Uiso   1.00
H83    H     0.78610   0.05340   0.71070   0.01267  Uiso   1.00
H84    H     0.38200   0.49000   0.99290   0.01267  Uiso   1.00
H85    H     0.28780   0.30570   0.98610   0.01267  Uiso   1.00
H86    H     0.34000   0.41000   0.86220   0.01267  Uiso   1.00
H87    H     0.26820   0.04450   0.75400   0.01267  Uiso   1.00
H88    H     0.23200   0.80680   0.64720   0.01267  Uiso   1.00
H89    H     0.80810   0.95650   0.01860   0.01267  Uiso   1.00
H90    H     0.98120   0.05580   0.92430   0.01267  Uiso   1.00
H91    H     0.83740   0.02510   0.93620   0.01267  Uiso   1.00
H92    H     0.87680   0.86940   0.89370   0.01267  Uiso   1.00
H93    H     0.59610   0.79410   0.98040   0.01267  Uiso   1.00
H94    H     0.93310   0.20520   0.93640   0.01267  Uiso   1.00
H95    H     0.79810   0.16490   0.80190   0.01267  Uiso   1.00
H96    H     0.31080   0.15690   0.74810   0.01267  Uiso   1.00
H97    H     0.44510   0.20040   0.61440   0.01267  Uiso   1.00
H98    H     0.82110   0.22820   0.67380   0.01267  Uiso   1.00
H99    H     0.85530   0.25220   0.61850   0.01267  Uiso   1.00
H100   H     0.68610   0.21870   0.73100   0.01267  Uiso   1.00
H101   H     0.86970   0.42210   0.68020   0.01267  Uiso   1.00
H102   H     0.77410   0.30980   0.56300   0.01267  Uiso   1.00
H103   H     0.89820   0.49130   0.54550   0.01267  Uiso   1.00
H104   H     0.13350   0.01690   0.88970   0.01267  Uiso   1.00
H105   H     0.89000   0.00880   0.77470   0.01267  Uiso   1.00
H106   H     0.17680   0.20490   0.82220   0.01267  Uiso   1.00
H107   H     0.30940   0.21510   0.87880   0.01267  Uiso   1.00
H108   H     0.34660   0.24250   0.93300   0.01267  Uiso   1.00
H109   H     0.54800   0.34590   0.11540   0.01267  Uiso   1.00
H110   H     0.55400   0.35310   0.16410   0.01267  Uiso   1.00
H111   H     0.87900   0.42930   0.40450   0.01267  Uiso   1.00
H112   H     0.85700   0.42750   0.35490   0.01267  Uiso   1.00
H113   H     0.28290   0.56810   0.04060   0.01267  Uiso   1.00
H114   H     0.36920   0.74860   0.01160   0.01267  Uiso   1.00
H115   H     0.86910   0.48030   0.07870   0.01267  Uiso   1.00
H116   H     0.22450   0.49230   0.15100   0.01267  Uiso   1.00
H117   H     0.28270   0.51230   0.09730   0.01267  Uiso   1.00
H118   H     0.09190   0.50000   0.19980   0.01267  Uiso   1.00
H119   H     0.71390   0.44660   0.21070   0.01267  Uiso   1.00
H120   H     0.11800   0.01000   0.49290   0.01267  Uiso   1.00
H121   H     0.21220   0.19430   0.48610   0.01267  Uiso   1.00
H122   H     0.16000   0.09000   0.36220   0.01267  Uiso   1.00
H123   H     0.23180   0.45550   0.25400   0.01267  Uiso   1.00
H124   H     0.26800   0.69320   0.14720   0.01267  Uiso   1.00
H125   H     0.69190   0.54350   0.51860   0.01267  Uiso   1.00
H126   H     0.51880   0.44420   0.42430   0.01267  Uiso   1.00
H127   H     0.66260   0.47490   0.43620   0.01267  Uiso   1.00
H128   H     0.62320   0.63060   0.39370   0.01267  Uiso   1.00
H129   H     0.90390   0.70590   0.48040   0.01267  Uiso   1.00
H130   H     0.56690   0.29480   0.43640   0.01267  Uiso   1.00
H131   H     0.70190   0.33510   0.30190   0.01267  Uiso   1.00
H132   H     0.18920   0.34310   0.24810   0.01267  Uiso   1.00
H133   H     0.05490   0.29960   0.11440   0.01267  Uiso   1.00
H134   H     0.67890   0.27180   0.17380   0.01267  Uiso   1.00
H135   H     0.64470   0.24780   0.11850   0.01267  Uiso   1.00
H136   H     0.81390   0.28130   0.23100   0.01267  Uiso   1.00
H137   H     0.63030   0.07790   0.18020   0.01267  Uiso   1.00
H138   H     0.72590   0.19020   0.06300   0.01267  Uiso   1.00
H139   H     0.60180   0.00870   0.04550   0.01267  Uiso   1.00
H140   H     0.36650   0.48310   0.38970   0.01267  Uiso   1.00
H141   H     0.61000   0.49120   0.27470   0.01267  Uiso   1.00
H142   H     0.32320   0.29510   0.32220   0.01267  Uiso   1.00
H143   H     0.19060   0.28490   0.37880   0.01267  Uiso   1.00
H144   H     0.15340   0.25750   0.43300   0.01267  Uiso   1.00
C1     C     0.93540   0.96303   0.29950   0.01267  Uiso   1.00
C2     C     0.86760   0.14325   0.53411   0.01267  Uiso   1.00
C3     C     0.83290   0.15674   0.48196   0.01267  Uiso   1.00
C4     C     0.79440   0.10934   0.44881   0.01267  Uiso   1.00
C5     C     0.77330   0.12339   0.40005   0.01267  Uiso   1.00
C6     C     0.84330   0.21624   0.46548   0.01267  Uiso   1.00
C7     C     0.37780   0.97833   0.38628   0.01267  Uiso   1.00
C8     C     0.49780   0.99090   0.36601   0.01267  Uiso   1.00
C9     C     0.71870   0.01892   0.37799   0.01267  Uiso   1.00
C10    C     0.51090   0.98924   0.31513   0.01267  Uiso   1.00
C11    C     0.40390   0.97158   0.28623   0.01267  Uiso   1.00
C12    C     0.41480   0.96466   0.23101   0.01267  Uiso   1.00
C13    C     0.28720   0.95893   0.30923   0.01267  Uiso   1.00
C14    C     0.63716   0.54629   0.02633   0.01267  Uiso   1.00
C15    C     0.66320   0.60196   0.00151   0.01267  Uiso   1.00
C16    C     0.65129   0.60235   0.94543   0.01267  Uiso   1.00
C17    C     0.69041   0.65556   0.02951   0.01267  Uiso   1.00
C18    C     0.68450   0.65023   0.08093   0.01267  Uiso   1.00
C19    C     0.66040   0.59289   0.10258   0.01267  Uiso   1.00
C20    C     0.92340   0.97320   0.24469   0.01267  Uiso   1.00
C21    C     0.80240   0.96463   0.22426   0.01267  Uiso   1.00
C22    C     0.48968   0.82379   0.19665   0.01267  Uiso   1.00
C23    C     0.78470   0.18395   0.38628   0.01267  Uiso   1.00
C24    C     0.38600   0.12431   0.94575   0.01267  Uiso   1.00
C25    C     0.31020   0.12549   0.99271   0.01267  Uiso   1.00
C26    C     0.21150   0.07722   0.00337   0.01267  Uiso   1.00
C27    C     0.14310   0.07903   0.04609   0.01267  Uiso   1.00
C28    C     0.08420   0.98155   0.08025   0.01267  Uiso   1.00
C29    C     0.17230   0.12922   0.07721   0.01267  Uiso   1.00
C30    C     0.33530   0.17330   0.02622   0.01267  Uiso   1.00
C31    C     0.17780   0.60323   0.51030   0.01267  Uiso   1.00
C32    C     0.16630   0.59977   0.45451   0.01267  Uiso   1.00
C33    C     0.05300   0.80048   0.09800   0.01267  Uiso   1.00
C34    C     0.13160   0.82376   0.17649   0.01267  Uiso   1.00
C35    C     0.50050   0.81361   0.25165   0.01267  Uiso   1.00
C36    C     0.61930   0.82827   0.27289   0.01267  Uiso   1.00
C37    C     0.54110   0.80347   0.35099   0.01267  Uiso   1.00
C38    C     0.41840   0.78893   0.33309   0.01267  Uiso   1.00
C39    C     0.20400   0.74705   0.35354   0.01267  Uiso   1.00
C40    C     0.39660   0.79263   0.28238   0.01267  Uiso   1.00
C41    C     0.13870   0.58340   0.35468   0.01267  Uiso   1.00
C42    C     0.17730   0.64178   0.37297   0.01267  Uiso   1.00
C43    C     0.19520   0.65077   0.42375   0.01267  Uiso   1.00
C44    C     0.12390   0.54300   0.43323   0.01267  Uiso   1.00
C45    C     0.88060   0.97948   0.14493   0.01267  Uiso   1.00
C46    C     0.00340   0.98567   0.16224   0.01267  Uiso   1.00
C47    C     0.02610   0.98446   0.21275   0.01267  Uiso   1.00
C48    C     0.99650   0.82582   0.25141   0.01267  Uiso   1.00
C49    C     0.01070   0.81640   0.19622   0.01267  Uiso   1.00
C50    C     0.90690   0.80054   0.16516   0.01267  Uiso   1.00
C51    C     0.92940   0.79285   0.11516   0.01267  Uiso   1.00
C52    C     0.71240   0.75735   0.09519   0.01267  Uiso   1.00
C53    C     0.56460   0.53697   0.79950   0.01267  Uiso   1.00
C54    C     0.63240   0.35675   0.03411   0.01267  Uiso   1.00
C55    C     0.66710   0.34326   0.98196   0.01267  Uiso   1.00
C56    C     0.70560   0.39066   0.94881   0.01267  Uiso   1.00
C57    C     0.72670   0.37661   0.90005   0.01267  Uiso   1.00
C58    C     0.65670   0.28376   0.96548   0.01267  Uiso   1.00
C59    C     0.12220   0.52167   0.88628   0.01267  Uiso   1.00
C60    C     0.00220   0.50910   0.86601   0.01267  Uiso   1.00
C61    C     0.78130   0.48108   0.87799   0.01267  Uiso   1.00
C62    C     0.98910   0.51076   0.81513   0.01267  Uiso   1.00
C63    C     0.09610   0.52842   0.78623   0.01267  Uiso   1.00
C64    C     0.08520   0.53534   0.73101   0.01267  Uiso   1.00
C65    C     0.21280   0.54107   0.80923   0.01267  Uiso   1.00
C66    C     0.86284   0.95371   0.52633   0.01267  Uiso   1.00
C67    C     0.83680   0.89804   0.50151   0.01267  Uiso   1.00
C68    C     0.84871   0.89765   0.44543   0.01267  Uiso   1.00
C69    C     0.80959   0.84444   0.52951   0.01267  Uiso   1.00
C70    C     0.81550   0.84977   0.58093   0.01267  Uiso   1.00
C71    C     0.83960   0.90711   0.60258   0.01267  Uiso   1.00
C72    C     0.57660   0.52680   0.74469   0.01267  Uiso   1.00
C73    C     0.69760   0.53537   0.72426   0.01267  Uiso   1.00
C74    C     0.01032   0.67621   0.69665   0.01267  Uiso   1.00
C75    C     0.71530   0.31605   0.88628   0.01267  Uiso   1.00
C76    C     0.11400   0.37569   0.44575   0.01267  Uiso   1.00
C77    C     0.18980   0.37451   0.49271   0.01267  Uiso   1.00
C78    C     0.28850   0.42278   0.50337   0.01267  Uiso   1.00
C79    C     0.35690   0.42097   0.54609   0.01267  Uiso   1.00
C80    C     0.41580   0.51845   0.58025   0.01267  Uiso   1.00
C81    C     0.32770   0.37078   0.57721   0.01267  Uiso   1.00
C82    C     0.16470   0.32670   0.52622   0.01267  Uiso   1.00
C83    C     0.32220   0.89677   0.01030   0.01267  Uiso   1.00
C84    C     0.33370   0.90023   0.95451   0.01267  Uiso   1.00
C85    C     0.44700   0.69952   0.59800   0.01267  Uiso   1.00
C86    C     0.36840   0.67624   0.67649   0.01267  Uiso   1.00
C87    C     0.99950   0.68639   0.75165   0.01267  Uiso   1.00
C88    C     0.88070   0.67173   0.77289   0.01267  Uiso   1.00
C89    C     0.95890   0.69653   0.85099   0.01267  Uiso   1.00
C90    C     0.08160   0.71107   0.83309   0.01267  Uiso   1.00
C91    C     0.29600   0.75295   0.85354   0.01267  Uiso   1.00
C92    C     0.10340   0.70737   0.78238   0.01267  Uiso   1.00
C93    C     0.36130   0.91660   0.85468   0.01267  Uiso   1.00
C94    C     0.32270   0.85822   0.87297   0.01267  Uiso   1.00
C95    C     0.30480   0.84923   0.92375   0.01267  Uiso   1.00
C96    C     0.37610   0.95700   0.93323   0.01267  Uiso   1.00
C97    C     0.61940   0.52052   0.64493   0.01267  Uiso   1.00
C98    C     0.49660   0.51433   0.66224   0.01267  Uiso   1.00
C99    C     0.47390   0.51554   0.71275   0.01267  Uiso   1.00
C100   C     0.50350   0.67418   0.75141   0.01267  Uiso   1.00
C101   C     0.48930   0.68360   0.69622   0.01267  Uiso   1.00
C102   C     0.59310   0.69946   0.66516   0.01267  Uiso   1.00
C103   C     0.57060   0.70715   0.61516   0.01267  Uiso   1.00
C104   C     0.78760   0.74265   0.59519   0.01267  Uiso   1.00
C105   C     0.06460   0.03697   0.70050   0.01267  Uiso   1.00
C106   C     0.13240   0.85675   0.46589   0.01267  Uiso   1.00
C107   C     0.16710   0.84326   0.51804   0.01267  Uiso   1.00
C108   C     0.20560   0.89066   0.55119   0.01267  Uiso   1.00
C109   C     0.22670   0.87661   0.59995   0.01267  Uiso   1.00
C110   C     0.15670   0.78376   0.53452   0.01267  Uiso   1.00
C111   C     0.62220   0.02167   0.61372   0.01267  Uiso   1.00
C112   C     0.50220   0.00910   0.63399   0.01267  Uiso   1.00
C113   C     0.28130   0.98108   0.62201   0.01267  Uiso   1.00
C114   C     0.48910   0.01076   0.68487   0.01267  Uiso   1.00
C115   C     0.59610   0.02842   0.71377   0.01267  Uiso   1.00
C116   C     0.58520   0.03534   0.76899   0.01267  Uiso   1.00
C117   C     0.71280   0.04107   0.69077   0.01267  Uiso   1.00
C118   C     0.36284   0.45371   0.97367   0.01267  Uiso   1.00
C119   C     0.33680   0.39804   0.99849   0.01267  Uiso   1.00
C120   C     0.34871   0.39765   0.05457   0.01267  Uiso   1.00
C121   C     0.30959   0.34444   0.97049   0.01267  Uiso   1.00
C122   C     0.31550   0.34977   0.91907   0.01267  Uiso   1.00
C123   C     0.33960   0.40711   0.89742   0.01267  Uiso   1.00
C124   C     0.07660   0.02680   0.75531   0.01267  Uiso   1.00
C125   C     0.19760   0.03537   0.77574   0.01267  Uiso   1.00
C126   C     0.51032   0.17621   0.80335   0.01267  Uiso   1.00
C127   C     0.21530   0.81605   0.61372   0.01267  Uiso   1.00
C128   C     0.61400   0.87569   0.05425   0.01267  Uiso   1.00
C129   C     0.68980   0.87451   0.00729   0.01267  Uiso   1.00
C130   C     0.78850   0.92278   0.99663   0.01267  Uiso   1.00
C131   C     0.85690   0.92097   0.95391   0.01267  Uiso   1.00
C132   C     0.91580   0.01845   0.91975   0.01267  Uiso   1.00
C133   C     0.82770   0.87078   0.92279   0.01267  Uiso   1.00
C134   C     0.66470   0.82670   0.97378   0.01267  Uiso   1.00
C135   C     0.82220   0.39677   0.48970   0.01267  Uiso   1.00
C136   C     0.83370   0.40023   0.54549   0.01267  Uiso   1.00
C137   C     0.94700   0.19952   0.90200   0.01267  Uiso   1.00
C138   C     0.86840   0.17624   0.82351   0.01267  Uiso   1.00
C139   C     0.49950   0.18639   0.74835   0.01267  Uiso   1.00
C140   C     0.38070   0.17173   0.72711   0.01267  Uiso   1.00
C141   C     0.45890   0.19653   0.64901   0.01267  Uiso   1.00
C142   C     0.58160   0.21107   0.66691   0.01267  Uiso   1.00
C143   C     0.79600   0.25295   0.64646   0.01267  Uiso   1.00
C144   C     0.60340   0.20737   0.71762   0.01267  Uiso   1.00
C145   C     0.86130   0.41660   0.64532   0.01267  Uiso   1.00
C146   C     0.82270   0.35822   0.62703   0.01267  Uiso   1.00
C147   C     0.80480   0.34923   0.57625   0.01267  Uiso   1.00
C148   C     0.87610   0.45700   0.56677   0.01267  Uiso   1.00
C149   C     0.11940   0.02052   0.85507   0.01267  Uiso   1.00
C150   C     0.99660   0.01433   0.83776   0.01267  Uiso   1.00
C151   C     0.97390   0.01554   0.78725   0.01267  Uiso   1.00
C152   C     0.00350   0.17418   0.74859   0.01267  Uiso   1.00
C153   C     0.98930   0.18360   0.80378   0.01267  Uiso   1.00
C154   C     0.09310   0.19946   0.83484   0.01267  Uiso   1.00
C155   C     0.07060   0.20715   0.88484   0.01267  Uiso   1.00
C156   C     0.28760   0.24265   0.90481   0.01267  Uiso   1.00
C157   C     0.43540   0.46303   0.20050   0.01267  Uiso   1.00
C158   C     0.36760   0.64325   0.96589   0.01267  Uiso   1.00
C159   C     0.33290   0.65674   0.01804   0.01267  Uiso   1.00
C160   C     0.29440   0.60934   0.05119   0.01267  Uiso   1.00
C161   C     0.27330   0.62339   0.09995   0.01267  Uiso   1.00
C162   C     0.34330   0.71624   0.03452   0.01267  Uiso   1.00
C163   C     0.87780   0.47833   0.11372   0.01267  Uiso   1.00
C164   C     0.99780   0.49090   0.13399   0.01267  Uiso   1.00
C165   C     0.21870   0.51892   0.12201   0.01267  Uiso   1.00
C166   C     0.01090   0.48924   0.18487   0.01267  Uiso   1.00
C167   C     0.90390   0.47158   0.21377   0.01267  Uiso   1.00
C168   C     0.91480   0.46466   0.26899   0.01267  Uiso   1.00
C169   C     0.78720   0.45893   0.19077   0.01267  Uiso   1.00
C170   C     0.13716   0.04629   0.47367   0.01267  Uiso   1.00
C171   C     0.16320   0.10196   0.49849   0.01267  Uiso   1.00
C172   C     0.15129   0.10235   0.55457   0.01267  Uiso   1.00
C173   C     0.19041   0.15556   0.47049   0.01267  Uiso   1.00
C174   C     0.18450   0.15023   0.41907   0.01267  Uiso   1.00
C175   C     0.16040   0.09289   0.39742   0.01267  Uiso   1.00
C176   C     0.42340   0.47320   0.25531   0.01267  Uiso   1.00
C177   C     0.30240   0.46463   0.27574   0.01267  Uiso   1.00
C178   C     0.98968   0.32379   0.30335   0.01267  Uiso   1.00
C179   C     0.28470   0.68395   0.11372   0.01267  Uiso   1.00
C180   C     0.88600   0.62431   0.55425   0.01267  Uiso   1.00
C181   C     0.81020   0.62549   0.50729   0.01267  Uiso   1.00
C182   C     0.71150   0.57722   0.49663   0.01267  Uiso   1.00
C183   C     0.64310   0.57903   0.45391   0.01267  Uiso   1.00
C184   C     0.58420   0.48155   0.41975   0.01267  Uiso   1.00
C185   C     0.67230   0.62922   0.42279   0.01267  Uiso   1.00
C186   C     0.83530   0.67330   0.47378   0.01267  Uiso   1.00
C187   C     0.67780   0.10323   0.98970   0.01267  Uiso   1.00
C188   C     0.66630   0.09977   0.04549   0.01267  Uiso   1.00
C189   C     0.55300   0.30048   0.40200   0.01267  Uiso   1.00
C190   C     0.63160   0.32376   0.32351   0.01267  Uiso   1.00
C191   C     0.00050   0.31361   0.24835   0.01267  Uiso   1.00
C192   C     0.11930   0.32827   0.22711   0.01267  Uiso   1.00
C193   C     0.04110   0.30347   0.14901   0.01267  Uiso   1.00
C194   C     0.91840   0.28893   0.16691   0.01267  Uiso   1.00
C195   C     0.70400   0.24705   0.14646   0.01267  Uiso   1.00
C196   C     0.89660   0.29263   0.21762   0.01267  Uiso   1.00
C197   C     0.63870   0.08340   0.14532   0.01267  Uiso   1.00
C198   C     0.67730   0.14178   0.12703   0.01267  Uiso   1.00
C199   C     0.69520   0.15077   0.07625   0.01267  Uiso   1.00
C200   C     0.62390   0.04300   0.06677   0.01267  Uiso   1.00
C201   C     0.38060   0.47948   0.35507   0.01267  Uiso   1.00
C202   C     0.50340   0.48567   0.33776   0.01267  Uiso   1.00
C203   C     0.52610   0.48446   0.28725   0.01267  Uiso   1.00
C204   C     0.49650   0.32582   0.24859   0.01267  Uiso   1.00
C205   C     0.51070   0.31640   0.30378   0.01267  Uiso   1.00
C206   C     0.40690   0.30054   0.33484   0.01267  Uiso   1.00
C207   C     0.42940   0.29285   0.38484   0.01267  Uiso   1.00
C208   C     0.21240   0.25735   0.40481   0.01267  Uiso   1.00
N1     N     0.27321   0.96344   0.35840   0.01267  Uiso   1.00
N2     N     0.63774   0.54137   0.07586   0.01267  Uiso   1.00
N3     N     0.78100   0.96859   0.17575   0.01267  Uiso   1.00
N4     N     0.81832   0.22996   0.41852   0.01267  Uiso   1.00
N5     N     0.26730   0.17561   0.06752   0.01267  Uiso   1.00
N6     N     0.15339   0.81551   0.12806   0.01267  Uiso   1.00
N7     N     0.64087   0.82267   0.32159   0.01267  Uiso   1.00
N8     N     0.11273   0.53427   0.38403   0.01267  Uiso   1.00
N9     N     0.22679   0.53656   0.85840   0.01267  Uiso   1.00
N10    N     0.86226   0.95863   0.57586   0.01267  Uiso   1.00
N11    N     0.71900   0.53141   0.67575   0.01267  Uiso   1.00
N12    N     0.68168   0.27004   0.91852   0.01267  Uiso   1.00
N13    N     0.23270   0.32439   0.56752   0.01267  Uiso   1.00
N14    N     0.34661   0.68449   0.62806   0.01267  Uiso   1.00
N15    N     0.85913   0.67733   0.82159   0.01267  Uiso   1.00
N16    N     0.38727   0.96573   0.88403   0.01267  Uiso   1.00
N17    N     0.72679   0.03656   0.64160   0.01267  Uiso   1.00
N18    N     0.36226   0.45863   0.92414   0.01267  Uiso   1.00
N19    N     0.21900   0.03141   0.82425   0.01267  Uiso   1.00
N20    N     0.18168   0.77004   0.58148   0.01267  Uiso   1.00
N21    N     0.73270   0.82439   0.93248   0.01267  Uiso   1.00
N22    N     0.84661   0.18449   0.87194   0.01267  Uiso   1.00
N23    N     0.35913   0.17733   0.67841   0.01267  Uiso   1.00
N24    N     0.88727   0.46573   0.61597   0.01267  Uiso   1.00
N25    N     0.77321   0.46344   0.14160   0.01267  Uiso   1.00
N26    N     0.13774   0.04137   0.42414   0.01267  Uiso   1.00
N27    N     0.28100   0.46859   0.32425   0.01267  Uiso   1.00
N28    N     0.31832   0.72996   0.08148   0.01267  Uiso   1.00
N29    N     0.76730   0.67561   0.43248   0.01267  Uiso   1.00
N30    N     0.65339   0.31551   0.37194   0.01267  Uiso   1.00
N31    N     0.14087   0.32267   0.17841   0.01267  Uiso   1.00
N32    N     0.61273   0.03427   0.11597   0.01267  Uiso   1.00
O1     O     0.84108   0.92875   0.31912   0.01267  Uiso   1.00
O2     O     0.03450   0.98775   0.32178   0.01267  Uiso   1.00
O3     O     0.02610   0.86453   0.36144   0.01267  Uiso   1.00
O4     O     0.84556   0.08807   0.54726   0.01267  Uiso   1.00
O5     O     0.91954   0.18805   0.55987   0.01267  Uiso   1.00
O6     O     0.59674   0.00331   0.39923   0.01267  Uiso   1.00
O7     O     0.74370   0.08068   0.36271   0.01267  Uiso   1.00
O8     O     0.69800   0.69780   0.11440   0.01267  Uiso   1.00
O9     O     0.58336   0.55504   0.92752   0.01267  Uiso   1.00
O10    O     0.70578   0.64835   0.92148   0.01267  Uiso   1.00
O11    O     0.52616   0.97248   0.21393   0.01267  Uiso   1.00
O12    O     0.31557   0.95096   0.20637   0.01267  Uiso   1.00
O13    O     0.58389   0.85694   0.17658   0.01267  Uiso   1.00
O14    O     0.38965   0.79947   0.17470   0.01267  Uiso   1.00
O15    O     0.39613   0.91655   0.12253   0.01267  Uiso   1.00
O16    O     0.48107   0.16572   0.93899   0.01267  Uiso   1.00
O17    O     0.34280   0.08125   0.91671   0.01267  Uiso   1.00
O18    O     0.04342   0.03138   0.05773   0.01267  Uiso   1.00
O19    O     0.21620   0.65512   0.52988   0.01267  Uiso   1.00
O20    O     0.14565   0.55394   0.53352   0.01267  Uiso   1.00
O21    O     0.32767   0.77272   0.36902   0.01267  Uiso   1.00
O22    O     0.19566   0.68674   0.33730   0.01267  Uiso   1.00
O23    O     0.10737   0.99185   0.13151   0.01267  Uiso   1.00
O24    O     0.88700   0.82224   0.26840   0.01267  Uiso   1.00
O25    O     0.09741   0.83743   0.27615   0.01267  Uiso   1.00
O26    O     0.83725   0.77912   0.07890   0.01267  Uiso   1.00
O27    O     0.65892   0.57125   0.81912   0.01267  Uiso   1.00
O28    O     0.46550   0.51225   0.82178   0.01267  Uiso   1.00
O29    O     0.47390   0.63547   0.86144   0.01267  Uiso   1.00
O30    O     0.65444   0.41193   0.04726   0.01267  Uiso   1.00
O31    O     0.58046   0.31195   0.05987   0.01267  Uiso   1.00
O32    O     0.90326   0.49669   0.89923   0.01267  Uiso   1.00
O33    O     0.75630   0.41932   0.86271   0.01267  Uiso   1.00
O34    O     0.80200   0.80220   0.61440   0.01267  Uiso   1.00
O35    O     0.91664   0.94496   0.42752   0.01267  Uiso   1.00
O36    O     0.79422   0.85165   0.42148   0.01267  Uiso   1.00
O37    O     0.97384   0.52752   0.71393   0.01267  Uiso   1.00
O38    O     0.18443   0.54904   0.70637   0.01267  Uiso   1.00
O39    O     0.91611   0.64306   0.67658   0.01267  Uiso   1.00
O40    O     0.11035   0.70053   0.67470   0.01267  Uiso   1.00
O41    O     0.10387   0.58345   0.62253   0.01267  Uiso   1.00
O42    O     0.01893   0.33428   0.43899   0.01267  Uiso   1.00
O43    O     0.15720   0.41875   0.41671   0.01267  Uiso   1.00
O44    O     0.45658   0.46862   0.55773   0.01267  Uiso   1.00
O45    O     0.28380   0.84488   0.02988   0.01267  Uiso   1.00
O46    O     0.35435   0.94606   0.03352   0.01267  Uiso   1.00
O47    O     0.17233   0.72728   0.86902   0.01267  Uiso   1.00
O48    O     0.30434   0.81326   0.83730   0.01267  Uiso   1.00
O49    O     0.39263   0.50815   0.63151   0.01267  Uiso   1.00
O50    O     0.61300   0.67776   0.76840   0.01267  Uiso   1.00
O51    O     0.40259   0.66257   0.77615   0.01267  Uiso   1.00
O52    O     0.66275   0.72088   0.57890   0.01267  Uiso   1.00
O53    O     0.15892   0.07125   0.68088   0.01267  Uiso   1.00
O54    O     0.96550   0.01225   0.67822   0.01267  Uiso   1.00
O55    O     0.97390   0.13547   0.63856   0.01267  Uiso   1.00
O56    O     0.15444   0.91193   0.45274   0.01267  Uiso   1.00
O57    O     0.08046   0.81195   0.44013   0.01267  Uiso   1.00
O58    O     0.40326   0.99669   0.60077   0.01267  Uiso   1.00
O59    O     0.25630   0.91932   0.63729   0.01267  Uiso   1.00
O60    O     0.30200   0.30220   0.88560   0.01267  Uiso   1.00
O61    O     0.41664   0.44496   0.07248   0.01267  Uiso   1.00
O62    O     0.29422   0.35165   0.07852   0.01267  Uiso   1.00
O63    O     0.47384   0.02752   0.78607   0.01267  Uiso   1.00
O64    O     0.68443   0.04904   0.79363   0.01267  Uiso   1.00
O65    O     0.41611   0.14306   0.82342   0.01267  Uiso   1.00
O66    O     0.61035   0.20053   0.82530   0.01267  Uiso   1.00
O67    O     0.60387   0.08345   0.87747   0.01267  Uiso   1.00
O68    O     0.51893   0.83428   0.06101   0.01267  Uiso   1.00
O69    O     0.65720   0.91875   0.08329   0.01267  Uiso   1.00
O70    O     0.95658   0.96862   0.94227   0.01267  Uiso   1.00
O71    O     0.78380   0.34488   0.47012   0.01267  Uiso   1.00
O72    O     0.85435   0.44606   0.46648   0.01267  Uiso   1.00
O73    O     0.67233   0.22728   0.63098   0.01267  Uiso   1.00
O74    O     0.80434   0.31326   0.66270   0.01267  Uiso   1.00
O75    O     0.89263   0.00815   0.86849   0.01267  Uiso   1.00
O76    O     0.11300   0.17776   0.73160   0.01267  Uiso   1.00
O77    O     0.90259   0.16257   0.72385   0.01267  Uiso   1.00
O78    O     0.16275   0.22088   0.92110   0.01267  Uiso   1.00
O79    O     0.34108   0.42875   0.18088   0.01267  Uiso   1.00
O80    O     0.53450   0.48775   0.17822   0.01267  Uiso   1.00
O81    O     0.52610   0.36453   0.13856   0.01267  Uiso   1.00
O82    O     0.34556   0.58807   0.95274   0.01267  Uiso   1.00
O83    O     0.41954   0.68805   0.94013   0.01267  Uiso   1.00
O84    O     0.09674   0.50331   0.10077   0.01267  Uiso   1.00
O85    O     0.24370   0.58068   0.13729   0.01267  Uiso   1.00
O86    O     0.19800   0.19780   0.38560   0.01267  Uiso   1.00
O87    O     0.08336   0.05504   0.57248   0.01267  Uiso   1.00
O88    O     0.20578   0.14835   0.57852   0.01267  Uiso   1.00
O89    O     0.02616   0.47248   0.28607   0.01267  Uiso   1.00
O90    O     0.81557   0.45096   0.29363   0.01267  Uiso   1.00
O91    O     0.08389   0.35694   0.32342   0.01267  Uiso   1.00
O92    O     0.88965   0.29947   0.32530   0.01267  Uiso   1.00
O93    O     0.89613   0.41655   0.37747   0.01267  Uiso   1.00
O94    O     0.98107   0.66572   0.56101   0.01267  Uiso   1.00
O95    O     0.84280   0.58125   0.58329   0.01267  Uiso   1.00
O96    O     0.54342   0.53138   0.44227   0.01267  Uiso   1.00
O97    O     0.71620   0.15512   0.97012   0.01267  Uiso   1.00
O98    O     0.64565   0.05394   0.96648   0.01267  Uiso   1.00
O99    O     0.82767   0.27272   0.13098   0.01267  Uiso   1.00
O100   O     0.69566   0.18674   0.16270   0.01267  Uiso   1.00
O101   O     0.60737   0.49185   0.36849   0.01267  Uiso   1.00
O102   O     0.38700   0.32224   0.23160   0.01267  Uiso   1.00
O103   O     0.59741   0.33743   0.22385   0.01267  Uiso   1.00
O104   O     0.33725   0.27912   0.42110   0.01267  Uiso   1.00
