data_FIHRIZ_clean
_audit_creation_date              2014-07-02
_audit_creation_method            'Materials Studio'
_symmetry_space_group_name_H-M    'P1'
_symmetry_Int_Tables_number       1
_symmetry_cell_setting            triclinic
loop_
_symmetry_equiv_pos_as_xyz
  x,y,z
_cell_length_a                    13.2146
_cell_length_b                    14.4265
_cell_length_c                    14.4265
_cell_angle_alpha                 100.8200
_cell_angle_beta                  92.2806
_cell_angle_gamma                 92.2806
loop_
_atom_site_label
_atom_site_type_symbol
_atom_site_fract_x
_atom_site_fract_y
_atom_site_fract_z
_atom_site_U_iso_or_equiv
_atom_site_adp_type
_atom_site_occupancy
Ni1    Ni    0.25499   0.58944   0.02488   0.01267  Uiso   1.00
Ni2    Ni    0.24501   0.97512   0.41056   0.01267  Uiso   1.00
Ni3    Ni    0.74501   0.41056   0.97512   0.01267  Uiso   1.00
Ni4    Ni    0.75499   0.02488   0.58944   0.01267  Uiso   1.00
Ni5    Ni    0.50000   0.50000  -0.00000   0.01267  Uiso   1.00
Ni6    Ni    0.00000   0.00000   0.50000   0.01267  Uiso   1.00
H1     H     0.08020   0.52750   0.14410   0.01267  Uiso   1.00
H2     H     0.07850   0.54610   0.87890   0.01267  Uiso   1.00
H3     H     0.38940   0.17570   0.24170   0.01267  Uiso   1.00
H4     H     0.24610   0.80950   0.06650   0.01267  Uiso   1.00
H5     H     0.43540   0.29850   0.16670   0.01267  Uiso   1.00
H6     H     0.16020   0.40270   0.20150   0.01267  Uiso   1.00
H7     H     0.11260   0.27820   0.27400   0.01267  Uiso   1.00
H8     H     0.42300   0.31470   0.74450   0.01267  Uiso   1.00
H9     H     0.13870   0.37760   0.80560   0.01267  Uiso   1.00
H10    H     0.24050   0.63610   0.24150   0.01267  Uiso   1.00
H11    H     0.41980   0.85590   0.47250   0.01267  Uiso   1.00
H12    H     0.42150   0.12110   0.45390   0.01267  Uiso   1.00
H13    H     0.11060   0.75830   0.82430   0.01267  Uiso   1.00
H14    H     0.25390   0.93350   0.19050   0.01267  Uiso   1.00
H15    H     0.06460   0.83330   0.70150   0.01267  Uiso   1.00
H16    H     0.33980   0.79850   0.59730   0.01267  Uiso   1.00
H17    H     0.38740   0.72600   0.72180   0.01267  Uiso   1.00
H18    H     0.07700   0.25550   0.68530   0.01267  Uiso   1.00
H19    H     0.36130   0.19440   0.62240   0.01267  Uiso   1.00
H20    H     0.25950   0.75850   0.36390   0.01267  Uiso   1.00
H21    H     0.91980   0.47250   0.85590   0.01267  Uiso   1.00
H22    H     0.92150   0.45390   0.12110   0.01267  Uiso   1.00
H23    H     0.61060   0.82430   0.75830   0.01267  Uiso   1.00
H24    H     0.75390   0.19050   0.93350   0.01267  Uiso   1.00
H25    H     0.56460   0.70150   0.83330   0.01267  Uiso   1.00
H26    H     0.83980   0.59730   0.79850   0.01267  Uiso   1.00
H27    H     0.88740   0.72180   0.72600   0.01267  Uiso   1.00
H28    H     0.57700   0.68530   0.25550   0.01267  Uiso   1.00
H29    H     0.86130   0.62240   0.19440   0.01267  Uiso   1.00
H30    H     0.75950   0.36390   0.75850   0.01267  Uiso   1.00
H31    H     0.58020   0.14410   0.52750   0.01267  Uiso   1.00
H32    H     0.57850   0.87890   0.54610   0.01267  Uiso   1.00
H33    H     0.88940   0.24170   0.17570   0.01267  Uiso   1.00
H34    H     0.74610   0.06650   0.80950   0.01267  Uiso   1.00
H35    H     0.93540   0.16670   0.29850   0.01267  Uiso   1.00
H36    H     0.66020   0.20150   0.40270   0.01267  Uiso   1.00
H37    H     0.61260   0.27400   0.27820   0.01267  Uiso   1.00
H38    H     0.92300   0.74450   0.31470   0.01267  Uiso   1.00
H39    H     0.63870   0.80560   0.37760   0.01267  Uiso   1.00
H40    H     0.74050   0.24150   0.63610   0.01267  Uiso   1.00
C1     C     0.04860   0.51700   0.08400   0.01267  Uiso   1.00
C2     C     0.04760   0.52780   0.92980   0.01267  Uiso   1.00
C3     C     0.34260   0.21990   0.23230   0.01267  Uiso   1.00
C4     C     0.32560   0.43350   0.86910   0.01267  Uiso   1.00
C5     C     0.33070   0.43650   0.11910   0.01267  Uiso   1.00
C6     C     0.28610   0.35630   0.78830   0.01267  Uiso   1.00
C7     C     0.30220   0.36060   0.17340   0.01267  Uiso   1.00
C8     C     0.20970   0.13160   0.30820   0.01267  Uiso   1.00
C9     C     0.24740   0.79690   0.12750   0.01267  Uiso   1.00
C10    C     0.37000   0.29390   0.18750   0.01267  Uiso   1.00
C11    C     0.24480   0.21280   0.26260   0.01267  Uiso   1.00
C12    C     0.20550   0.35640   0.20780   0.01267  Uiso   1.00
C13    C     0.17750   0.28190   0.25170   0.01267  Uiso   1.00
C14    C     0.35350   0.30270   0.73310   0.01267  Uiso   1.00
C15    C     0.18370   0.33980   0.76960   0.01267  Uiso   1.00
C16    C     0.24560   0.69690   0.22870   0.01267  Uiso   1.00
C17    C     0.45140   0.91600   0.48300   0.01267  Uiso   1.00
C18    C     0.45240   0.07020   0.47220   0.01267  Uiso   1.00
C19    C     0.15740   0.76770   0.78010   0.01267  Uiso   1.00
C20    C     0.17440   0.13090   0.56650   0.01267  Uiso   1.00
C21    C     0.16930   0.88090   0.56350   0.01267  Uiso   1.00
C22    C     0.21390   0.21170   0.64370   0.01267  Uiso   1.00
C23    C     0.19780   0.82660   0.63940   0.01267  Uiso   1.00
C24    C     0.29030   0.69180   0.86840   0.01267  Uiso   1.00
C25    C     0.25260   0.87250   0.20310   0.01267  Uiso   1.00
C26    C     0.13000   0.81250   0.70610   0.01267  Uiso   1.00
C27    C     0.25520   0.73740   0.78720   0.01267  Uiso   1.00
C28    C     0.29450   0.79220   0.64360   0.01267  Uiso   1.00
C29    C     0.32250   0.74830   0.71810   0.01267  Uiso   1.00
C30    C     0.14650   0.26690   0.69730   0.01267  Uiso   1.00
C31    C     0.31630   0.23040   0.66020   0.01267  Uiso   1.00
C32    C     0.25440   0.77130   0.30310   0.01267  Uiso   1.00
C33    C     0.95140   0.48300   0.91600   0.01267  Uiso   1.00
C34    C     0.95240   0.47220   0.07020   0.01267  Uiso   1.00
C35    C     0.65740   0.78010   0.76770   0.01267  Uiso   1.00
C36    C     0.67440   0.56650   0.13090   0.01267  Uiso   1.00
C37    C     0.66930   0.56350   0.88090   0.01267  Uiso   1.00
C38    C     0.71390   0.64370   0.21170   0.01267  Uiso   1.00
C39    C     0.69780   0.63940   0.82660   0.01267  Uiso   1.00
C40    C     0.79030   0.86840   0.69180   0.01267  Uiso   1.00
C41    C     0.75260   0.20310   0.87250   0.01267  Uiso   1.00
C42    C     0.63000   0.70610   0.81250   0.01267  Uiso   1.00
C43    C     0.75520   0.78720   0.73740   0.01267  Uiso   1.00
C44    C     0.79450   0.64360   0.79220   0.01267  Uiso   1.00
C45    C     0.82250   0.71810   0.74830   0.01267  Uiso   1.00
C46    C     0.64650   0.69730   0.26690   0.01267  Uiso   1.00
C47    C     0.81630   0.66020   0.23040   0.01267  Uiso   1.00
C48    C     0.75440   0.30310   0.77130   0.01267  Uiso   1.00
C49    C     0.54860   0.08400   0.51700   0.01267  Uiso   1.00
C50    C     0.54760   0.92980   0.52780   0.01267  Uiso   1.00
C51    C     0.84260   0.23230   0.21990   0.01267  Uiso   1.00
C52    C     0.82560   0.86910   0.43350   0.01267  Uiso   1.00
C53    C     0.83070   0.11910   0.43650   0.01267  Uiso   1.00
C54    C     0.78610   0.78830   0.35630   0.01267  Uiso   1.00
C55    C     0.80220   0.17340   0.36060   0.01267  Uiso   1.00
C56    C     0.70970   0.30820   0.13160   0.01267  Uiso   1.00
C57    C     0.74740   0.12750   0.79690   0.01267  Uiso   1.00
C58    C     0.87000   0.18750   0.29390   0.01267  Uiso   1.00
C59    C     0.74480   0.26260   0.21280   0.01267  Uiso   1.00
C60    C     0.70550   0.20780   0.35640   0.01267  Uiso   1.00
C61    C     0.67750   0.25170   0.28190   0.01267  Uiso   1.00
C62    C     0.85350   0.73310   0.30270   0.01267  Uiso   1.00
C63    C     0.68370   0.76960   0.33980   0.01267  Uiso   1.00
C64    C     0.74560   0.22870   0.69690   0.01267  Uiso   1.00
N1     N     0.24400   0.70700   0.13820   0.01267  Uiso   1.00
N2     N     0.09650   0.54500   0.01480   0.01267  Uiso   1.00
N3     N     0.25600   0.86180   0.29300   0.01267  Uiso   1.00
N4     N     0.40350   0.98520   0.45500   0.01267  Uiso   1.00
N5     N     0.75600   0.29300   0.86180   0.01267  Uiso   1.00
N6     N     0.90350   0.45500   0.98520   0.01267  Uiso   1.00
N7     N     0.74400   0.13820   0.70700   0.01267  Uiso   1.00
N8     N     0.59650   0.01480   0.54500   0.01267  Uiso   1.00
O1     O     0.26130   0.47900   0.91480   0.01267  Uiso   1.00
O2     O     0.27170   0.50350   0.12110   0.01267  Uiso   1.00
O3     O     0.27430   0.07330   0.32410   0.01267  Uiso   1.00
O4     O     0.41980   0.44300   0.88120   0.01267  Uiso   1.00
O5     O     0.41180   0.62040   0.02320   0.01267  Uiso   1.00
O6     O     0.41170   0.42640   0.07620   0.01267  Uiso   1.00
O7     O     0.11810   0.12930   0.32650   0.01267  Uiso   1.00
O8     O     0.23870   0.08520   0.52100   0.01267  Uiso   1.00
O9     O     0.22830   0.87890   0.49650   0.01267  Uiso   1.00
O10    O     0.22570   0.67590   0.92670   0.01267  Uiso   1.00
O11    O     0.08020   0.11880   0.55700   0.01267  Uiso   1.00
O12    O     0.08820   0.97680   0.37960   0.01267  Uiso   1.00
O13    O     0.08830   0.92380   0.57360   0.01267  Uiso   1.00
O14    O     0.38190   0.67350   0.87070   0.01267  Uiso   1.00
O15    O     0.73870   0.52100   0.08520   0.01267  Uiso   1.00
O16    O     0.72830   0.49650   0.87890   0.01267  Uiso   1.00
O17    O     0.72570   0.92670   0.67590   0.01267  Uiso   1.00
O18    O     0.58020   0.55700   0.11880   0.01267  Uiso   1.00
O19    O     0.58820   0.37960   0.97680   0.01267  Uiso   1.00
O20    O     0.58830   0.57360   0.92380   0.01267  Uiso   1.00
O21    O     0.88190   0.87070   0.67350   0.01267  Uiso   1.00
O22    O     0.76130   0.91480   0.47900   0.01267  Uiso   1.00
O23    O     0.77170   0.12110   0.50350   0.01267  Uiso   1.00
O24    O     0.77430   0.32410   0.07330   0.01267  Uiso   1.00
O25    O     0.91980   0.88120   0.44300   0.01267  Uiso   1.00
O26    O     0.91180   0.02320   0.62040   0.01267  Uiso   1.00
O27    O     0.91170   0.07620   0.42640   0.01267  Uiso   1.00
O28    O     0.61810   0.32650   0.12930   0.01267  Uiso   1.00
