data_FIJDIM09_clean
_audit_creation_date              2014-07-02
_audit_creation_method            'Materials Studio'
_symmetry_space_group_name_H-M    'P1'
_symmetry_Int_Tables_number       1
_symmetry_cell_setting            triclinic
loop_
_symmetry_equiv_pos_as_xyz
  x,y,z
_cell_length_a                    10.8542
_cell_length_b                    13.5021
_cell_length_c                    14.4512
_cell_angle_alpha                 76.3767
_cell_angle_beta                  67.9420
_cell_angle_gamma                 66.3003
loop_
_atom_site_label
_atom_site_type_symbol
_atom_site_fract_x
_atom_site_fract_y
_atom_site_fract_z
_atom_site_U_iso_or_equiv
_atom_site_adp_type
_atom_site_occupancy
Mn1    Mn    0.86098   0.03794   0.11138   0.01267  Uiso   1.00
Mn2    Mn    0.51030   0.46206   0.38862   0.01267  Uiso   1.00
Mn3    Mn    0.13902   0.96206   0.88862   0.01267  Uiso   1.00
Mn4    Mn    0.48970   0.53794   0.61138   0.01267  Uiso   1.00
Mn5    Mn    0.78621   0.25000   0.25000   0.01267  Uiso   1.00
Mn6    Mn    0.21379   0.75000   0.75000   0.01267  Uiso   1.00
H1     H     0.20140   0.18010   0.84830   0.01267  Uiso   1.00
H2     H     0.29500   0.31220   0.75320   0.01267  Uiso   1.00
H3     H     0.95590   0.54080   0.90740   0.01267  Uiso   1.00
H4     H     0.86830   0.40780   0.00880   0.01267  Uiso   1.00
H5     H     0.55070   0.15900   0.45160   0.01267  Uiso   1.00
H6     H     0.57850   0.87820   0.38380   0.01267  Uiso   1.00
H7     H     0.72980   0.31990   0.65170   0.01267  Uiso   1.00
H8     H     0.86040   0.18780   0.74680   0.01267  Uiso   1.00
H9     H     0.90410   0.95920   0.59260   0.01267  Uiso   1.00
H10    H     0.78490   0.09220   0.49120   0.01267  Uiso   1.00
H11    H     0.66130   0.34100   0.04840   0.01267  Uiso   1.00
H12    H     0.34050   0.62180   0.11620   0.01267  Uiso   1.00
H13    H     0.79860   0.81990   0.15170   0.01267  Uiso   1.00
H14    H     0.70500   0.68780   0.24680   0.01267  Uiso   1.00
H15    H     0.04410   0.45920   0.09260   0.01267  Uiso   1.00
H16    H     0.13170   0.59220   0.99120   0.01267  Uiso   1.00
H17    H     0.44930   0.84100   0.54840   0.01267  Uiso   1.00
H18    H     0.42150   0.12180   0.61620   0.01267  Uiso   1.00
H19    H     0.27020   0.68010   0.34830   0.01267  Uiso   1.00
H20    H     0.13960   0.81220   0.25320   0.01267  Uiso   1.00
H21    H     0.09590   0.04080   0.40740   0.01267  Uiso   1.00
H22    H     0.21510   0.90780   0.50880   0.01267  Uiso   1.00
H23    H     0.33870   0.65900   0.95160   0.01267  Uiso   1.00
H24    H     0.65950   0.37820   0.88380   0.01267  Uiso   1.00
C1     C     0.96936   0.19480   0.00396   0.01267  Uiso   1.00
C2     C     0.02615   0.28071   0.93919   0.01267  Uiso   1.00
C3     C     0.15316   0.25229   0.86159   0.01267  Uiso   1.00
C4     C     0.20821   0.33181   0.80377   0.01267  Uiso   1.00
C5     C     0.13535   0.43995   0.82055   0.01267  Uiso   1.00
C6     C     0.00680   0.46812   0.89648   0.01267  Uiso   1.00
C7     C     0.95334   0.38845   0.95667   0.01267  Uiso   1.00
C8     C     0.19895   0.52467   0.75943   0.01267  Uiso   1.00
C9     C     0.66597   0.04414   0.29632   0.01267  Uiso   1.00
C10    C     0.57851   0.02161   0.40177   0.01267  Uiso   1.00
C11    C     0.53068   0.09500   0.47104   0.01267  Uiso   1.00
C12    C     0.54732   0.92709   0.43047   0.01267  Uiso   1.00
C13    C     0.66812   0.30520   0.49604   0.01267  Uiso   1.00
C14    C     0.74605   0.21929   0.56081   0.01267  Uiso   1.00
C15    C     0.76704   0.24771   0.63841   0.01267  Uiso   1.00
C16    C     0.84379   0.16819   0.69623   0.01267  Uiso   1.00
C17    C     0.89585   0.06005   0.67945   0.01267  Uiso   1.00
C18    C     0.87140   0.03188   0.60352   0.01267  Uiso   1.00
C19    C     0.79846   0.11155   0.54333   0.01267  Uiso   1.00
C20    C     0.98305   0.97533   0.74057   0.01267  Uiso   1.00
C21    C     0.50643   0.45586   0.20368   0.01267  Uiso   1.00
C22    C     0.50189   0.47839   0.09823   0.01267  Uiso   1.00
C23    C     0.59672   0.40500   0.02896   0.01267  Uiso   1.00
C24    C     0.40488   0.57291   0.06953   0.01267  Uiso   1.00
C25    C     0.03064   0.80520   0.99604   0.01267  Uiso   1.00
C26    C     0.97385   0.71929   0.06081   0.01267  Uiso   1.00
C27    C     0.84684   0.74771   0.13841   0.01267  Uiso   1.00
C28    C     0.79179   0.66819   0.19623   0.01267  Uiso   1.00
C29    C     0.86465   0.56005   0.17945   0.01267  Uiso   1.00
C30    C     0.99320   0.53188   0.10352   0.01267  Uiso   1.00
C31    C     0.04666   0.61155   0.04333   0.01267  Uiso   1.00
C32    C     0.80105   0.47533   0.24057   0.01267  Uiso   1.00
C33    C     0.33403   0.95586   0.70368   0.01267  Uiso   1.00
C34    C     0.42149   0.97839   0.59823   0.01267  Uiso   1.00
C35    C     0.46932   0.90500   0.52896   0.01267  Uiso   1.00
C36    C     0.45268   0.07291   0.56953   0.01267  Uiso   1.00
C37    C     0.33188   0.69480   0.50396   0.01267  Uiso   1.00
C38    C     0.25395   0.78071   0.43919   0.01267  Uiso   1.00
C39    C     0.23296   0.75229   0.36159   0.01267  Uiso   1.00
C40    C     0.15621   0.83181   0.30377   0.01267  Uiso   1.00
C41    C     0.10415   0.93995   0.32055   0.01267  Uiso   1.00
C42    C     0.12860   0.96812   0.39648   0.01267  Uiso   1.00
C43    C     0.20154   0.88845   0.45667   0.01267  Uiso   1.00
C44    C     0.01695   0.02467   0.25943   0.01267  Uiso   1.00
C45    C     0.49357   0.54414   0.79632   0.01267  Uiso   1.00
C46    C     0.49811   0.52161   0.90177   0.01267  Uiso   1.00
C47    C     0.40328   0.59500   0.97104   0.01267  Uiso   1.00
C48    C     0.59512   0.42709   0.93047   0.01267  Uiso   1.00
O1     O     0.01753   0.10138   0.97542   0.01267  Uiso   1.00
O2     O     0.87180   0.21568   0.08626   0.01267  Uiso   1.00
O3     O     0.13590   0.62048   0.78248   0.01267  Uiso   1.00
O4     O     0.31349   0.49099   0.69123   0.01267  Uiso   1.00
O5     O     0.68626   0.13311   0.26891   0.01267  Uiso   1.00
O6     O     0.71706   0.97227   0.23761   0.01267  Uiso   1.00
O7     O     0.59433   0.39862   0.52458   0.01267  Uiso   1.00
O8     O     0.67374   0.28432   0.41374   0.01267  Uiso   1.00
O9     O     0.03886   0.87952   0.71752   0.01267  Uiso   1.00
O10    O     0.99571   0.00901   0.80877   0.01267  Uiso   1.00
O11    O     0.58828   0.36689   0.23109   0.01267  Uiso   1.00
O12    O     0.42694   0.52773   0.26239   0.01267  Uiso   1.00
O13    O     0.98247   0.89862   0.02458   0.01267  Uiso   1.00
O14    O     0.12820   0.78432   0.91374   0.01267  Uiso   1.00
O15    O     0.86410   0.37952   0.21752   0.01267  Uiso   1.00
O16    O     0.68651   0.50901   0.30877   0.01267  Uiso   1.00
O17    O     0.31374   0.86689   0.73109   0.01267  Uiso   1.00
O18    O     0.28294   0.02773   0.76239   0.01267  Uiso   1.00
O19    O     0.40567   0.60138   0.47542   0.01267  Uiso   1.00
O20    O     0.32626   0.71568   0.58626   0.01267  Uiso   1.00
O21    O     0.96114   0.12048   0.28248   0.01267  Uiso   1.00
O22    O     0.00429   0.99099   0.19123   0.01267  Uiso   1.00
O23    O     0.41172   0.63311   0.76891   0.01267  Uiso   1.00
O24    O     0.57306   0.47227   0.73761   0.01267  Uiso   1.00
