data_FIJDIM05_clean
_audit_creation_date              2014-07-02
_audit_creation_method            'Materials Studio'
_symmetry_space_group_name_H-M    'P1'
_symmetry_Int_Tables_number       1
_symmetry_cell_setting            triclinic
loop_
_symmetry_equiv_pos_as_xyz
  x,y,z
_cell_length_a                    10.7531
_cell_length_b                    13.5032
_cell_length_c                    14.4102
_cell_angle_alpha                 76.6377
_cell_angle_beta                  68.0927
_cell_angle_gamma                 66.5362
loop_
_atom_site_label
_atom_site_type_symbol
_atom_site_fract_x
_atom_site_fract_y
_atom_site_fract_z
_atom_site_U_iso_or_equiv
_atom_site_adp_type
_atom_site_occupancy
Mn1    Mn    0.85832   0.03879   0.11004   0.01267  Uiso   1.00
Mn2    Mn    0.50715   0.46121   0.38996   0.01267  Uiso   1.00
Mn3    Mn    0.14168   0.96121   0.88996   0.01267  Uiso   1.00
Mn4    Mn    0.49285   0.53879   0.61004   0.01267  Uiso   1.00
Mn5    Mn    0.78346   0.25000   0.25000   0.01267  Uiso   1.00
Mn6    Mn    0.21654   0.75000   0.75000   0.01267  Uiso   1.00
H1     H     0.20160   0.18080   0.84680   0.01267  Uiso   1.00
H2     H     0.29650   0.31300   0.75280   0.01267  Uiso   1.00
H3     H     0.95530   0.54120   0.90780   0.01267  Uiso   1.00
H4     H     0.86550   0.40830   0.00910   0.01267  Uiso   1.00
H5     H     0.54670   0.16080   0.44940   0.01267  Uiso   1.00
H6     H     0.57820   0.87680   0.38440   0.01267  Uiso   1.00
H7     H     0.72920   0.31920   0.65320   0.01267  Uiso   1.00
H8     H     0.86230   0.18700   0.74720   0.01267  Uiso   1.00
H9     H     0.90430   0.95880   0.59220   0.01267  Uiso   1.00
H10    H     0.78290   0.09170   0.49090   0.01267  Uiso   1.00
H11    H     0.65690   0.33920   0.05060   0.01267  Uiso   1.00
H12    H     0.33940   0.62320   0.11560   0.01267  Uiso   1.00
H13    H     0.79840   0.81920   0.15320   0.01267  Uiso   1.00
H14    H     0.70350   0.68700   0.24720   0.01267  Uiso   1.00
H15    H     0.04470   0.45880   0.09220   0.01267  Uiso   1.00
H16    H     0.13450   0.59170   0.99090   0.01267  Uiso   1.00
H17    H     0.45330   0.83920   0.55060   0.01267  Uiso   1.00
H18    H     0.42180   0.12320   0.61560   0.01267  Uiso   1.00
H19    H     0.27080   0.68080   0.34680   0.01267  Uiso   1.00
H20    H     0.13770   0.81300   0.25280   0.01267  Uiso   1.00
H21    H     0.09570   0.04120   0.40780   0.01267  Uiso   1.00
H22    H     0.21710   0.90830   0.50910   0.01267  Uiso   1.00
H23    H     0.34310   0.66080   0.94940   0.01267  Uiso   1.00
H24    H     0.66060   0.37680   0.88440   0.01267  Uiso   1.00
C1     C     0.96875   0.19517   0.00393   0.01267  Uiso   1.00
C2     C     0.02559   0.28098   0.93904   0.01267  Uiso   1.00
C3     C     0.15341   0.25283   0.86075   0.01267  Uiso   1.00
C4     C     0.20890   0.33248   0.80332   0.01267  Uiso   1.00
C5     C     0.13534   0.44042   0.82050   0.01267  Uiso   1.00
C6     C     0.00615   0.46864   0.89666   0.01267  Uiso   1.00
C7     C     0.95139   0.38903   0.95699   0.01267  Uiso   1.00
C8     C     0.20016   0.52513   0.75995   0.01267  Uiso   1.00
C9     C     0.66223   0.04425   0.29449   0.01267  Uiso   1.00
C10    C     0.57684   0.02183   0.40069   0.01267  Uiso   1.00
C11    C     0.52839   0.09604   0.46978   0.01267  Uiso   1.00
C12    C     0.54732   0.92614   0.43082   0.01267  Uiso   1.00
C13    C     0.66785   0.30483   0.49607   0.01267  Uiso   1.00
C14    C     0.74561   0.21902   0.56096   0.01267  Uiso   1.00
C15    C     0.76699   0.24717   0.63925   0.01267  Uiso   1.00
C16    C     0.84470   0.16752   0.69668   0.01267  Uiso   1.00
C17    C     0.89626   0.05958   0.67950   0.01267  Uiso   1.00
C18    C     0.87145   0.03136   0.60334   0.01267  Uiso   1.00
C19    C     0.79741   0.11097   0.54301   0.01267  Uiso   1.00
C20    C     0.98524   0.97487   0.74005   0.01267  Uiso   1.00
C21    C     0.50097   0.45575   0.20551   0.01267  Uiso   1.00
C22    C     0.49936   0.47817   0.09931   0.01267  Uiso   1.00
C23    C     0.59421   0.40396   0.03022   0.01267  Uiso   1.00
C24    C     0.40428   0.57386   0.06918   0.01267  Uiso   1.00
C25    C     0.03125   0.80483   0.99607   0.01267  Uiso   1.00
C26    C     0.97441   0.71902   0.06096   0.01267  Uiso   1.00
C27    C     0.84659   0.74717   0.13925   0.01267  Uiso   1.00
C28    C     0.79110   0.66752   0.19668   0.01267  Uiso   1.00
C29    C     0.86466   0.55958   0.17950   0.01267  Uiso   1.00
C30    C     0.99385   0.53136   0.10334   0.01267  Uiso   1.00
C31    C     0.04861   0.61097   0.04301   0.01267  Uiso   1.00
C32    C     0.79984   0.47487   0.24005   0.01267  Uiso   1.00
C33    C     0.33777   0.95575   0.70551   0.01267  Uiso   1.00
C34    C     0.42316   0.97817   0.59931   0.01267  Uiso   1.00
C35    C     0.47161   0.90396   0.53022   0.01267  Uiso   1.00
C36    C     0.45268   0.07386   0.56918   0.01267  Uiso   1.00
C37    C     0.33215   0.69517   0.50393   0.01267  Uiso   1.00
C38    C     0.25439   0.78098   0.43904   0.01267  Uiso   1.00
C39    C     0.23301   0.75283   0.36075   0.01267  Uiso   1.00
C40    C     0.15530   0.83248   0.30332   0.01267  Uiso   1.00
C41    C     0.10374   0.94042   0.32050   0.01267  Uiso   1.00
C42    C     0.12855   0.96864   0.39666   0.01267  Uiso   1.00
C43    C     0.20259   0.88903   0.45699   0.01267  Uiso   1.00
C44    C     0.01476   0.02513   0.25995   0.01267  Uiso   1.00
C45    C     0.49903   0.54425   0.79449   0.01267  Uiso   1.00
C46    C     0.50064   0.52183   0.90069   0.01267  Uiso   1.00
C47    C     0.40579   0.59604   0.96978   0.01267  Uiso   1.00
C48    C     0.59572   0.42614   0.93082   0.01267  Uiso   1.00
O1     O     0.01821   0.10117   0.97581   0.01267  Uiso   1.00
O2     O     0.86954   0.21632   0.08628   0.01267  Uiso   1.00
O3     O     0.13668   0.62112   0.78312   0.01267  Uiso   1.00
O4     O     0.31611   0.49145   0.69173   0.01267  Uiso   1.00
O5     O     0.68243   0.13353   0.26661   0.01267  Uiso   1.00
O6     O     0.71172   0.97275   0.23541   0.01267  Uiso   1.00
O7     O     0.59519   0.39883   0.52419   0.01267  Uiso   1.00
O8     O     0.67214   0.28368   0.41372   0.01267  Uiso   1.00
O9     O     0.04092   0.87888   0.71688   0.01267  Uiso   1.00
O10    O     0.99929   0.00855   0.80827   0.01267  Uiso   1.00
O11    O     0.58257   0.36647   0.23339   0.01267  Uiso   1.00
O12    O     0.41988   0.52725   0.26459   0.01267  Uiso   1.00
O13    O     0.98179   0.89883   0.02419   0.01267  Uiso   1.00
O14    O     0.13046   0.78368   0.91372   0.01267  Uiso   1.00
O15    O     0.86332   0.37888   0.21688   0.01267  Uiso   1.00
O16    O     0.68389   0.50855   0.30827   0.01267  Uiso   1.00
O17    O     0.31757   0.86647   0.73339   0.01267  Uiso   1.00
O18    O     0.28828   0.02725   0.76459   0.01267  Uiso   1.00
O19    O     0.40481   0.60117   0.47581   0.01267  Uiso   1.00
O20    O     0.32786   0.71632   0.58628   0.01267  Uiso   1.00
O21    O     0.95908   0.12112   0.28312   0.01267  Uiso   1.00
O22    O     0.00071   0.99145   0.19173   0.01267  Uiso   1.00
O23    O     0.41743   0.63353   0.76661   0.01267  Uiso   1.00
O24    O     0.58012   0.47275   0.73541   0.01267  Uiso   1.00
