data_FIJDIM02_clean
_audit_creation_date              2014-07-02
_audit_creation_method            'Materials Studio'
_symmetry_space_group_name_H-M    'P1'
_symmetry_Int_Tables_number       1
_symmetry_cell_setting            triclinic
loop_
_symmetry_equiv_pos_as_xyz
  x,y,z
_cell_length_a                    10.6843
_cell_length_b                    13.4841
_cell_length_c                    14.3789
_cell_angle_alpha                 76.8804
_cell_angle_beta                  68.1901
_cell_angle_gamma                 66.6603
loop_
_atom_site_label
_atom_site_type_symbol
_atom_site_fract_x
_atom_site_fract_y
_atom_site_fract_z
_atom_site_U_iso_or_equiv
_atom_site_adp_type
_atom_site_occupancy
Mn1    Mn    0.85665   0.03921   0.10933   0.01267  Uiso   1.00
Mn2    Mn    0.50519   0.46079   0.39067   0.01267  Uiso   1.00
Mn3    Mn    0.14335   0.96079   0.89067   0.01267  Uiso   1.00
Mn4    Mn    0.49481   0.53921   0.60933   0.01267  Uiso   1.00
Mn5    Mn    0.78139   0.25000   0.25000   0.01267  Uiso   1.00
Mn6    Mn    0.21861   0.75000   0.75000   0.01267  Uiso   1.00
H1     H     0.20120   0.18130   0.84670   0.01267  Uiso   1.00
H2     H     0.29710   0.31350   0.75250   0.01267  Uiso   1.00
H3     H     0.95320   0.54220   0.90760   0.01267  Uiso   1.00
H4     H     0.86420   0.40900   0.00940   0.01267  Uiso   1.00
H5     H     0.54370   0.16210   0.44790   0.01267  Uiso   1.00
H6     H     0.58000   0.87470   0.38530   0.01267  Uiso   1.00
H7     H     0.72920   0.31870   0.65330   0.01267  Uiso   1.00
H8     H     0.86310   0.18650   0.74750   0.01267  Uiso   1.00
H9     H     0.90300   0.95780   0.59240   0.01267  Uiso   1.00
H10    H     0.78260   0.09100   0.49060   0.01267  Uiso   1.00
H11    H     0.65370   0.33790   0.05210   0.01267  Uiso   1.00
H12    H     0.34000   0.62530   0.11470   0.01267  Uiso   1.00
H13    H     0.79880   0.81870   0.15330   0.01267  Uiso   1.00
H14    H     0.70290   0.68650   0.24750   0.01267  Uiso   1.00
H15    H     0.04680   0.45780   0.09240   0.01267  Uiso   1.00
H16    H     0.13580   0.59100   0.99060   0.01267  Uiso   1.00
H17    H     0.45630   0.83790   0.55210   0.01267  Uiso   1.00
H18    H     0.42000   0.12530   0.61470   0.01267  Uiso   1.00
H19    H     0.27080   0.68130   0.34670   0.01267  Uiso   1.00
H20    H     0.13690   0.81350   0.25250   0.01267  Uiso   1.00
H21    H     0.09700   0.04220   0.40760   0.01267  Uiso   1.00
H22    H     0.21740   0.90900   0.50940   0.01267  Uiso   1.00
H23    H     0.34630   0.66210   0.94790   0.01267  Uiso   1.00
H24    H     0.66000   0.37470   0.88530   0.01267  Uiso   1.00
C1     C     0.96780   0.19554   0.00426   0.01267  Uiso   1.00
C2     C     0.02445   0.28174   0.93916   0.01267  Uiso   1.00
C3     C     0.15290   0.25332   0.86068   0.01267  Uiso   1.00
C4     C     0.20920   0.33292   0.80308   0.01267  Uiso   1.00
C5     C     0.13492   0.44093   0.82063   0.01267  Uiso   1.00
C6     C     0.00468   0.46954   0.89670   0.01267  Uiso   1.00
C7     C     0.95034   0.38965   0.95707   0.01267  Uiso   1.00
C8     C     0.20073   0.52562   0.76032   0.01267  Uiso   1.00
C9     C     0.65990   0.04398   0.29342   0.01267  Uiso   1.00
C10    C     0.57555   0.02170   0.40020   0.01267  Uiso   1.00
C11    C     0.52646   0.09687   0.46881   0.01267  Uiso   1.00
C12    C     0.54822   0.92487   0.43129   0.01267  Uiso   1.00
C13    C     0.66760   0.30446   0.49574   0.01267  Uiso   1.00
C14    C     0.74535   0.21826   0.56084   0.01267  Uiso   1.00
C15    C     0.76690   0.24668   0.63932   0.01267  Uiso   1.00
C16    C     0.84520   0.16708   0.69692   0.01267  Uiso   1.00
C17    C     0.89648   0.05907   0.67937   0.01267  Uiso   1.00
C18    C     0.87092   0.03046   0.60330   0.01267  Uiso   1.00
C19    C     0.79706   0.11035   0.54293   0.01267  Uiso   1.00
C20    C     0.98667   0.97438   0.73968   0.01267  Uiso   1.00
C21    C     0.49730   0.45602   0.20658   0.01267  Uiso   1.00
C22    C     0.49745   0.47830   0.09980   0.01267  Uiso   1.00
C23    C     0.59214   0.40313   0.03119   0.01267  Uiso   1.00
C24    C     0.40438   0.57513   0.06871   0.01267  Uiso   1.00
C25    C     0.03220   0.80446   0.99574   0.01267  Uiso   1.00
C26    C     0.97555   0.71826   0.06084   0.01267  Uiso   1.00
C27    C     0.84710   0.74668   0.13932   0.01267  Uiso   1.00
C28    C     0.79080   0.66708   0.19692   0.01267  Uiso   1.00
C29    C     0.86508   0.55907   0.17937   0.01267  Uiso   1.00
C30    C     0.99532   0.53046   0.10330   0.01267  Uiso   1.00
C31    C     0.04966   0.61035   0.04293   0.01267  Uiso   1.00
C32    C     0.79927   0.47438   0.23968   0.01267  Uiso   1.00
C33    C     0.34010   0.95602   0.70658   0.01267  Uiso   1.00
C34    C     0.42445   0.97830   0.59980   0.01267  Uiso   1.00
C35    C     0.47354   0.90313   0.53119   0.01267  Uiso   1.00
C36    C     0.45178   0.07513   0.56871   0.01267  Uiso   1.00
C37    C     0.33240   0.69554   0.50426   0.01267  Uiso   1.00
C38    C     0.25465   0.78174   0.43916   0.01267  Uiso   1.00
C39    C     0.23310   0.75332   0.36068   0.01267  Uiso   1.00
C40    C     0.15480   0.83292   0.30308   0.01267  Uiso   1.00
C41    C     0.10352   0.94093   0.32063   0.01267  Uiso   1.00
C42    C     0.12908   0.96954   0.39670   0.01267  Uiso   1.00
C43    C     0.20294   0.88965   0.45707   0.01267  Uiso   1.00
C44    C     0.01333   0.02562   0.26032   0.01267  Uiso   1.00
C45    C     0.50270   0.54398   0.79342   0.01267  Uiso   1.00
C46    C     0.50255   0.52170   0.90020   0.01267  Uiso   1.00
C47    C     0.40786   0.59687   0.96881   0.01267  Uiso   1.00
C48    C     0.59562   0.42487   0.93129   0.01267  Uiso   1.00
O1     O     0.01830   0.10116   0.97604   0.01267  Uiso   1.00
O2     O     0.86766   0.21675   0.08633   0.01267  Uiso   1.00
O3     O     0.13695   0.62165   0.78385   0.01267  Uiso   1.00
O4     O     0.31762   0.49168   0.69208   0.01267  Uiso   1.00
O5     O     0.67995   0.13353   0.26517   0.01267  Uiso   1.00
O6     O     0.70920   0.97253   0.23427   0.01267  Uiso   1.00
O7     O     0.59550   0.39884   0.52396   0.01267  Uiso   1.00
O8     O     0.67074   0.28325   0.41367   0.01267  Uiso   1.00
O9     O     0.04245   0.87835   0.71615   0.01267  Uiso   1.00
O10    O     0.00138   0.00832   0.80792   0.01267  Uiso   1.00
O11    O     0.57865   0.36647   0.23483   0.01267  Uiso   1.00
O12    O     0.41600   0.52747   0.26573   0.01267  Uiso   1.00
O13    O     0.98170   0.89884   0.02396   0.01267  Uiso   1.00
O14    O     0.13234   0.78325   0.91367   0.01267  Uiso   1.00
O15    O     0.86305   0.37835   0.21615   0.01267  Uiso   1.00
O16    O     0.68238   0.50832   0.30792   0.01267  Uiso   1.00
O17    O     0.32005   0.86647   0.73483   0.01267  Uiso   1.00
O18    O     0.29080   0.02747   0.76573   0.01267  Uiso   1.00
O19    O     0.40450   0.60116   0.47604   0.01267  Uiso   1.00
O20    O     0.32926   0.71675   0.58633   0.01267  Uiso   1.00
O21    O     0.95755   0.12165   0.28385   0.01267  Uiso   1.00
O22    O     0.99862   0.99168   0.19208   0.01267  Uiso   1.00
O23    O     0.42135   0.63353   0.76517   0.01267  Uiso   1.00
O24    O     0.58400   0.47253   0.73427   0.01267  Uiso   1.00
