data_FIJDIM08_clean
_audit_creation_date              2014-07-02
_audit_creation_method            'Materials Studio'
_symmetry_space_group_name_H-M    'P1'
_symmetry_Int_Tables_number       1
_symmetry_cell_setting            triclinic
loop_
_symmetry_equiv_pos_as_xyz
  x,y,z
_cell_length_a                    10.8267
_cell_length_b                    13.5046
_cell_length_c                    14.4436
_cell_angle_alpha                 76.4566
_cell_angle_beta                  67.9886
_cell_angle_gamma                 66.3685
loop_
_atom_site_label
_atom_site_type_symbol
_atom_site_fract_x
_atom_site_fract_y
_atom_site_fract_z
_atom_site_U_iso_or_equiv
_atom_site_adp_type
_atom_site_occupancy
Mn1    Mn    0.86036   0.03813   0.11107   0.01267  Uiso   1.00
Mn2    Mn    0.50956   0.46187   0.38893   0.01267  Uiso   1.00
Mn3    Mn    0.13964   0.96187   0.88893   0.01267  Uiso   1.00
Mn4    Mn    0.49044   0.53813   0.61107   0.01267  Uiso   1.00
Mn5    Mn    0.78555   0.25000   0.25000   0.01267  Uiso   1.00
Mn6    Mn    0.21445   0.75000   0.75000   0.01267  Uiso   1.00
H1     H     0.20160   0.18030   0.84790   0.01267  Uiso   1.00
H2     H     0.29530   0.31240   0.75320   0.01267  Uiso   1.00
H3     H     0.95540   0.54100   0.90760   0.01267  Uiso   1.00
H4     H     0.86770   0.40790   0.00910   0.01267  Uiso   1.00
H5     H     0.54950   0.15940   0.45120   0.01267  Uiso   1.00
H6     H     0.57870   0.87780   0.38400   0.01267  Uiso   1.00
H7     H     0.72980   0.31970   0.65210   0.01267  Uiso   1.00
H8     H     0.86090   0.18760   0.74680   0.01267  Uiso   1.00
H9     H     0.90400   0.95900   0.59240   0.01267  Uiso   1.00
H10    H     0.78470   0.09210   0.49090   0.01267  Uiso   1.00
H11    H     0.66010   0.34060   0.04880   0.01267  Uiso   1.00
H12    H     0.34050   0.62220   0.11600   0.01267  Uiso   1.00
H13    H     0.79840   0.81970   0.15210   0.01267  Uiso   1.00
H14    H     0.70470   0.68760   0.24680   0.01267  Uiso   1.00
H15    H     0.04460   0.45900   0.09240   0.01267  Uiso   1.00
H16    H     0.13230   0.59210   0.99090   0.01267  Uiso   1.00
H17    H     0.45050   0.84060   0.54880   0.01267  Uiso   1.00
H18    H     0.42130   0.12220   0.61600   0.01267  Uiso   1.00
H19    H     0.27020   0.68030   0.34790   0.01267  Uiso   1.00
H20    H     0.13910   0.81240   0.25320   0.01267  Uiso   1.00
H21    H     0.09600   0.04100   0.40760   0.01267  Uiso   1.00
H22    H     0.21530   0.90790   0.50910   0.01267  Uiso   1.00
H23    H     0.33990   0.65940   0.95120   0.01267  Uiso   1.00
H24    H     0.65950   0.37780   0.88400   0.01267  Uiso   1.00
C1     C     0.96920   0.19486   0.00394   0.01267  Uiso   1.00
C2     C     0.02587   0.28079   0.93927   0.01267  Uiso   1.00
C3     C     0.15330   0.25242   0.86138   0.01267  Uiso   1.00
C4     C     0.20825   0.33196   0.80374   0.01267  Uiso   1.00
C5     C     0.13504   0.44016   0.82056   0.01267  Uiso   1.00
C6     C     0.00641   0.46837   0.89661   0.01267  Uiso   1.00
C7     C     0.95289   0.38856   0.95686   0.01267  Uiso   1.00
C8     C     0.19918   0.52484   0.75960   0.01267  Uiso   1.00
C9     C     0.66515   0.04405   0.29585   0.01267  Uiso   1.00
C10    C     0.57796   0.02189   0.40159   0.01267  Uiso   1.00
C11    C     0.52992   0.09515   0.47081   0.01267  Uiso   1.00
C12    C     0.54747   0.92686   0.43060   0.01267  Uiso   1.00
C13    C     0.66800   0.30514   0.49606   0.01267  Uiso   1.00
C14    C     0.74593   0.21921   0.56073   0.01267  Uiso   1.00
C15    C     0.76710   0.24758   0.63862   0.01267  Uiso   1.00
C16    C     0.84395   0.16804   0.69626   0.01267  Uiso   1.00
C17    C     0.89576   0.05984   0.67944   0.01267  Uiso   1.00
C18    C     0.87139   0.03163   0.60339   0.01267  Uiso   1.00
C19    C     0.79831   0.11144   0.54314   0.01267  Uiso   1.00
C20    C     0.98362   0.97516   0.74040   0.01267  Uiso   1.00
C21    C     0.50505   0.45595   0.20415   0.01267  Uiso   1.00
C22    C     0.50144   0.47811   0.09841   0.01267  Uiso   1.00
C23    C     0.59588   0.40485   0.02919   0.01267  Uiso   1.00
C24    C     0.40493   0.57314   0.06940   0.01267  Uiso   1.00
C25    C     0.03080   0.80514   0.99606   0.01267  Uiso   1.00
C26    C     0.97413   0.71921   0.06073   0.01267  Uiso   1.00
C27    C     0.84670   0.74758   0.13862   0.01267  Uiso   1.00
C28    C     0.79175   0.66804   0.19626   0.01267  Uiso   1.00
C29    C     0.86496   0.55984   0.17944   0.01267  Uiso   1.00
C30    C     0.99359   0.53163   0.10339   0.01267  Uiso   1.00
C31    C     0.04711   0.61144   0.04314   0.01267  Uiso   1.00
C32    C     0.80082   0.47516   0.24040   0.01267  Uiso   1.00
C33    C     0.33485   0.95595   0.70415   0.01267  Uiso   1.00
C34    C     0.42204   0.97811   0.59841   0.01267  Uiso   1.00
C35    C     0.47008   0.90485   0.52919   0.01267  Uiso   1.00
C36    C     0.45253   0.07314   0.56940   0.01267  Uiso   1.00
C37    C     0.33200   0.69486   0.50394   0.01267  Uiso   1.00
C38    C     0.25407   0.78079   0.43927   0.01267  Uiso   1.00
C39    C     0.23290   0.75242   0.36138   0.01267  Uiso   1.00
C40    C     0.15605   0.83196   0.30374   0.01267  Uiso   1.00
C41    C     0.10424   0.94016   0.32056   0.01267  Uiso   1.00
C42    C     0.12861   0.96837   0.39661   0.01267  Uiso   1.00
C43    C     0.20169   0.88856   0.45686   0.01267  Uiso   1.00
C44    C     0.01638   0.02484   0.25960   0.01267  Uiso   1.00
C45    C     0.49495   0.54405   0.79585   0.01267  Uiso   1.00
C46    C     0.49856   0.52189   0.90159   0.01267  Uiso   1.00
C47    C     0.40412   0.59515   0.97081   0.01267  Uiso   1.00
C48    C     0.59507   0.42686   0.93060   0.01267  Uiso   1.00
O1     O     0.01764   0.10131   0.97555   0.01267  Uiso   1.00
O2     O     0.87113   0.21589   0.08627   0.01267  Uiso   1.00
O3     O     0.13617   0.62069   0.78257   0.01267  Uiso   1.00
O4     O     0.31398   0.49115   0.69129   0.01267  Uiso   1.00
O5     O     0.68523   0.13324   0.26830   0.01267  Uiso   1.00
O6     O     0.71567   0.97246   0.23720   0.01267  Uiso   1.00
O7     O     0.59450   0.39869   0.52445   0.01267  Uiso   1.00
O8     O     0.67329   0.28411   0.41373   0.01267  Uiso   1.00
O9     O     0.03943   0.87931   0.71743   0.01267  Uiso   1.00
O10    O     0.99642   0.00885   0.80871   0.01267  Uiso   1.00
O11    O     0.58677   0.36676   0.23170   0.01267  Uiso   1.00
O12    O     0.42533   0.52754   0.26280   0.01267  Uiso   1.00
O13    O     0.98236   0.89869   0.02445   0.01267  Uiso   1.00
O14    O     0.12887   0.78411   0.91373   0.01267  Uiso   1.00
O15    O     0.86383   0.37931   0.21743   0.01267  Uiso   1.00
O16    O     0.68602   0.50885   0.30871   0.01267  Uiso   1.00
O17    O     0.31477   0.86676   0.73170   0.01267  Uiso   1.00
O18    O     0.28433   0.02754   0.76280   0.01267  Uiso   1.00
O19    O     0.40550   0.60131   0.47555   0.01267  Uiso   1.00
O20    O     0.32671   0.71589   0.58627   0.01267  Uiso   1.00
O21    O     0.96057   0.12069   0.28257   0.01267  Uiso   1.00
O22    O     0.00358   0.99115   0.19129   0.01267  Uiso   1.00
O23    O     0.41323   0.63324   0.76830   0.01267  Uiso   1.00
O24    O     0.57467   0.47246   0.73720   0.01267  Uiso   1.00
