data_FIJDIM04_clean
_audit_creation_date              2014-07-02
_audit_creation_method            'Materials Studio'
_symmetry_space_group_name_H-M    'P1'
_symmetry_Int_Tables_number       1
_symmetry_cell_setting            triclinic
loop_
_symmetry_equiv_pos_as_xyz
  x,y,z
_cell_length_a                    10.7280
_cell_length_b                    13.5001
_cell_length_c                    14.3997
_cell_angle_alpha                 76.7042
_cell_angle_beta                  68.1297
_cell_angle_gamma                 66.5887
loop_
_atom_site_label
_atom_site_type_symbol
_atom_site_fract_x
_atom_site_fract_y
_atom_site_fract_z
_atom_site_U_iso_or_equiv
_atom_site_adp_type
_atom_site_occupancy
Mn1    Mn    0.85768   0.03897   0.10975   0.01267  Uiso   1.00
Mn2    Mn    0.50640   0.46103   0.39025   0.01267  Uiso   1.00
Mn3    Mn    0.14232   0.96103   0.89025   0.01267  Uiso   1.00
Mn4    Mn    0.49360   0.53897   0.60975   0.01267  Uiso   1.00
Mn5    Mn    0.78271   0.25000   0.25000   0.01267  Uiso   1.00
Mn6    Mn    0.21729   0.75000   0.75000   0.01267  Uiso   1.00
H1     H     0.20120   0.18130   0.84690   0.01267  Uiso   1.00
H2     H     0.29700   0.31310   0.75270   0.01267  Uiso   1.00
H3     H     0.95450   0.54150   0.90810   0.01267  Uiso   1.00
H4     H     0.86530   0.40850   0.00910   0.01267  Uiso   1.00
H5     H     0.54650   0.16110   0.44870   0.01267  Uiso   1.00
H6     H     0.57910   0.87610   0.38470   0.01267  Uiso   1.00
H7     H     0.72940   0.31870   0.65310   0.01267  Uiso   1.00
H8     H     0.86280   0.18690   0.74730   0.01267  Uiso   1.00
H9     H     0.90410   0.95850   0.59190   0.01267  Uiso   1.00
H10    H     0.78290   0.09150   0.49090   0.01267  Uiso   1.00
H11    H     0.65630   0.33890   0.05130   0.01267  Uiso   1.00
H12    H     0.33990   0.62390   0.11530   0.01267  Uiso   1.00
H13    H     0.79880   0.81870   0.15310   0.01267  Uiso   1.00
H14    H     0.70300   0.68690   0.24730   0.01267  Uiso   1.00
H15    H     0.04550   0.45850   0.09190   0.01267  Uiso   1.00
H16    H     0.13470   0.59150   0.99090   0.01267  Uiso   1.00
H17    H     0.45350   0.83890   0.55130   0.01267  Uiso   1.00
H18    H     0.42090   0.12390   0.61530   0.01267  Uiso   1.00
H19    H     0.27060   0.68130   0.34690   0.01267  Uiso   1.00
H20    H     0.13720   0.81310   0.25270   0.01267  Uiso   1.00
H21    H     0.09590   0.04150   0.40810   0.01267  Uiso   1.00
H22    H     0.21710   0.90850   0.50910   0.01267  Uiso   1.00
H23    H     0.34370   0.66110   0.94870   0.01267  Uiso   1.00
H24    H     0.66010   0.37610   0.88470   0.01267  Uiso   1.00
C1     C     0.96833   0.19530   0.00404   0.01267  Uiso   1.00
C2     C     0.02512   0.28128   0.93908   0.01267  Uiso   1.00
C3     C     0.15303   0.25333   0.86081   0.01267  Uiso   1.00
C4     C     0.20934   0.33262   0.80310   0.01267  Uiso   1.00
C5     C     0.13515   0.44062   0.82048   0.01267  Uiso   1.00
C6     C     0.00547   0.46899   0.89687   0.01267  Uiso   1.00
C7     C     0.95121   0.38926   0.95692   0.01267  Uiso   1.00
C8     C     0.20063   0.52535   0.76019   0.01267  Uiso   1.00
C9     C     0.66110   0.04429   0.29411   0.01267  Uiso   1.00
C10    C     0.57621   0.02209   0.40049   0.01267  Uiso   1.00
C11    C     0.52810   0.09634   0.46926   0.01267  Uiso   1.00
C12    C     0.54765   0.92574   0.43096   0.01267  Uiso   1.00
C13    C     0.66767   0.30470   0.49596   0.01267  Uiso   1.00
C14    C     0.74548   0.21872   0.56092   0.01267  Uiso   1.00
C15    C     0.76717   0.24667   0.63919   0.01267  Uiso   1.00
C16    C     0.84506   0.16738   0.69690   0.01267  Uiso   1.00
C17    C     0.89625   0.05938   0.67952   0.01267  Uiso   1.00
C18    C     0.87133   0.03101   0.60313   0.01267  Uiso   1.00
C19    C     0.79739   0.11074   0.54308   0.01267  Uiso   1.00
C20    C     0.98617   0.97465   0.73981   0.01267  Uiso   1.00
C21    C     0.49950   0.45571   0.20589   0.01267  Uiso   1.00
C22    C     0.49879   0.47791   0.09951   0.01267  Uiso   1.00
C23    C     0.59370   0.40366   0.03074   0.01267  Uiso   1.00
C24    C     0.40435   0.57426   0.06904   0.01267  Uiso   1.00
C25    C     0.03167   0.80470   0.99596   0.01267  Uiso   1.00
C26    C     0.97488   0.71872   0.06092   0.01267  Uiso   1.00
C27    C     0.84697   0.74667   0.13919   0.01267  Uiso   1.00
C28    C     0.79066   0.66738   0.19690   0.01267  Uiso   1.00
C29    C     0.86485   0.55938   0.17952   0.01267  Uiso   1.00
C30    C     0.99453   0.53101   0.10313   0.01267  Uiso   1.00
C31    C     0.04879   0.61074   0.04308   0.01267  Uiso   1.00
C32    C     0.79937   0.47465   0.23981   0.01267  Uiso   1.00
C33    C     0.33890   0.95571   0.70589   0.01267  Uiso   1.00
C34    C     0.42379   0.97791   0.59951   0.01267  Uiso   1.00
C35    C     0.47190   0.90366   0.53074   0.01267  Uiso   1.00
C36    C     0.45235   0.07426   0.56904   0.01267  Uiso   1.00
C37    C     0.33233   0.69530   0.50404   0.01267  Uiso   1.00
C38    C     0.25452   0.78128   0.43908   0.01267  Uiso   1.00
C39    C     0.23283   0.75333   0.36081   0.01267  Uiso   1.00
C40    C     0.15494   0.83262   0.30310   0.01267  Uiso   1.00
C41    C     0.10375   0.94062   0.32048   0.01267  Uiso   1.00
C42    C     0.12867   0.96899   0.39687   0.01267  Uiso   1.00
C43    C     0.20261   0.88926   0.45692   0.01267  Uiso   1.00
C44    C     0.01383   0.02535   0.26019   0.01267  Uiso   1.00
C45    C     0.50050   0.54429   0.79411   0.01267  Uiso   1.00
C46    C     0.50121   0.52209   0.90049   0.01267  Uiso   1.00
C47    C     0.40630   0.59634   0.96926   0.01267  Uiso   1.00
C48    C     0.59565   0.42574   0.93096   0.01267  Uiso   1.00
O1     O     0.01825   0.10115   0.97595   0.01267  Uiso   1.00
O2     O     0.86896   0.21641   0.08627   0.01267  Uiso   1.00
O3     O     0.13683   0.62127   0.78347   0.01267  Uiso   1.00
O4     O     0.31690   0.49152   0.69188   0.01267  Uiso   1.00
O5     O     0.68150   0.13357   0.26603   0.01267  Uiso   1.00
O6     O     0.71063   0.97284   0.23490   0.01267  Uiso   1.00
O7     O     0.59535   0.39885   0.52405   0.01267  Uiso   1.00
O8     O     0.67164   0.28359   0.41373   0.01267  Uiso   1.00
O9     O     0.04157   0.87873   0.71653   0.01267  Uiso   1.00
O10    O     0.00030   0.00848   0.80812   0.01267  Uiso   1.00
O11    O     0.58110   0.36643   0.23397   0.01267  Uiso   1.00
O12    O     0.41837   0.52716   0.26510   0.01267  Uiso   1.00
O13    O     0.98175   0.89885   0.02405   0.01267  Uiso   1.00
O14    O     0.13104   0.78359   0.91373   0.01267  Uiso   1.00
O15    O     0.86317   0.37873   0.21653   0.01267  Uiso   1.00
O16    O     0.68310   0.50848   0.30812   0.01267  Uiso   1.00
O17    O     0.31850   0.86643   0.73397   0.01267  Uiso   1.00
O18    O     0.28937   0.02716   0.76510   0.01267  Uiso   1.00
O19    O     0.40465   0.60115   0.47595   0.01267  Uiso   1.00
O20    O     0.32836   0.71641   0.58627   0.01267  Uiso   1.00
O21    O     0.95843   0.12127   0.28347   0.01267  Uiso   1.00
O22    O     0.99970   0.99152   0.19188   0.01267  Uiso   1.00
O23    O     0.41890   0.63357   0.76603   0.01267  Uiso   1.00
O24    O     0.58163   0.47284   0.73490   0.01267  Uiso   1.00
