data_FIJDIM12_clean
_audit_creation_date              2014-07-02
_audit_creation_method            'Materials Studio'
_symmetry_space_group_name_H-M    'P1'
_symmetry_Int_Tables_number       1
_symmetry_cell_setting            triclinic
loop_
_symmetry_equiv_pos_as_xyz
  x,y,z
_cell_length_a                    10.7115
_cell_length_b                    13.5090
_cell_length_c                    14.3920
_cell_angle_alpha                 76.7345
_cell_angle_beta                  68.1528
_cell_angle_gamma                 66.6431
loop_
_atom_site_label
_atom_site_type_symbol
_atom_site_fract_x
_atom_site_fract_y
_atom_site_fract_z
_atom_site_U_iso_or_equiv
_atom_site_adp_type
_atom_site_occupancy
Mn1    Mn    0.99428   0.03912   0.60938   0.01267  Uiso   1.00
Mn2    Mn    0.64278   0.46088   0.89062   0.01267  Uiso   1.00
Mn3    Mn    0.00572   0.96088   0.39062   0.01267  Uiso   1.00
Mn4    Mn    0.35722   0.53912   0.10938   0.01267  Uiso   1.00
Mn5    Mn    0.71754   0.25000   0.75000   0.01267  Uiso   1.00
Mn6    Mn    0.28246   0.75000   0.25000   0.01267  Uiso   1.00
H1     H     0.79840   0.81300   0.75160   0.01267  Uiso   1.00
H2     H     0.45320   0.04260   0.90760   0.01267  Uiso   1.00
H3     H     0.70240   0.68020   0.84620   0.01267  Uiso   1.00
H4     H     0.36390   0.90980   0.01060   0.01267  Uiso   1.00
H5     H     0.16120   0.87430   0.88470   0.01267  Uiso   1.00
H6     H     0.84370   0.16190   0.94850   0.01267  Uiso   1.00
H7     H     0.36300   0.68700   0.74840   0.01267  Uiso   1.00
H8     H     0.40340   0.45740   0.59240   0.01267  Uiso   1.00
H9     H     0.22880   0.81980   0.65380   0.01267  Uiso   1.00
H10    H     0.28430   0.59020   0.48940   0.01267  Uiso   1.00
H11    H     0.92020   0.62570   0.61530   0.01267  Uiso   1.00
H12    H     0.95410   0.33810   0.55150   0.01267  Uiso   1.00
H13    H     0.20160   0.18700   0.24840   0.01267  Uiso   1.00
H14    H     0.54680   0.95740   0.09240   0.01267  Uiso   1.00
H15    H     0.29760   0.31980   0.15380   0.01267  Uiso   1.00
H16    H     0.63610   0.09020   0.98940   0.01267  Uiso   1.00
H17    H     0.83880   0.12570   0.11530   0.01267  Uiso   1.00
H18    H     0.15630   0.83810   0.05150   0.01267  Uiso   1.00
H19    H     0.63700   0.31300   0.25160   0.01267  Uiso   1.00
H20    H     0.59660   0.54260   0.40760   0.01267  Uiso   1.00
H21    H     0.77120   0.18020   0.34620   0.01267  Uiso   1.00
H22    H     0.71570   0.40980   0.51060   0.01267  Uiso   1.00
H23    H     0.07980   0.37430   0.38470   0.01267  Uiso   1.00
H24    H     0.04590   0.66190   0.44850   0.01267  Uiso   1.00
C1     C     0.70170   0.02510   0.75950   0.01267  Uiso   1.00
C2     C     0.63560   0.94090   0.82010   0.01267  Uiso   1.00
C3     C     0.70870   0.83300   0.80320   0.01267  Uiso   1.00
C4     C     0.50550   0.96860   0.89660   0.01267  Uiso   1.00
C5     C     0.65290   0.75360   0.86040   0.01267  Uiso   1.00
C6     C     0.45120   0.88990   0.95690   0.01267  Uiso   1.00
C7     C     0.52470   0.78150   0.93850   0.01267  Uiso   1.00
C8     C     0.46850   0.69480   0.00400   0.01267  Uiso   1.00
C9     C     0.00070   0.04430   0.79370   0.01267  Uiso   1.00
C10    C     0.00200   0.02290   0.89970   0.01267  Uiso   1.00
C11    C     0.09560   0.92560   0.93140   0.01267  Uiso   1.00
C12    C     0.90770   0.09570   0.96930   0.01267  Uiso   1.00
C13    C     0.48630   0.47490   0.74050   0.01267  Uiso   1.00
C14    C     0.39660   0.55910   0.67990   0.01267  Uiso   1.00
C15    C     0.34490   0.66700   0.69680   0.01267  Uiso   1.00
C16    C     0.37070   0.53140   0.60340   0.01267  Uiso   1.00
C17    C     0.26690   0.74640   0.63960   0.01267  Uiso   1.00
C18    C     0.29800   0.61010   0.54310   0.01267  Uiso   1.00
C19    C     0.24470   0.71850   0.56150   0.01267  Uiso   1.00
C20    C     0.16730   0.80520   0.49600   0.01267  Uiso   1.00
C21    C     0.83870   0.45570   0.70630   0.01267  Uiso   1.00
C22    C     0.92460   0.47710   0.60030   0.01267  Uiso   1.00
C23    C     0.95260   0.57440   0.56860   0.01267  Uiso   1.00
C24    C     0.97270   0.40430   0.53070   0.01267  Uiso   1.00
C25    C     0.29830   0.97490   0.24050   0.01267  Uiso   1.00
C26    C     0.36440   0.05910   0.17990   0.01267  Uiso   1.00
C27    C     0.29130   0.16700   0.19680   0.01267  Uiso   1.00
C28    C     0.49450   0.03140   0.10340   0.01267  Uiso   1.00
C29    C     0.34710   0.24640   0.13960   0.01267  Uiso   1.00
C30    C     0.54880   0.11010   0.04310   0.01267  Uiso   1.00
C31    C     0.47530   0.21850   0.06150   0.01267  Uiso   1.00
C32    C     0.53150   0.30520   0.99600   0.01267  Uiso   1.00
C33    C     0.99930   0.95570   0.20630   0.01267  Uiso   1.00
C34    C     0.99800   0.97710   0.10030   0.01267  Uiso   1.00
C35    C     0.90440   0.07440   0.06860   0.01267  Uiso   1.00
C36    C     0.09230   0.90430   0.03070   0.01267  Uiso   1.00
C37    C     0.51370   0.52510   0.25950   0.01267  Uiso   1.00
C38    C     0.60340   0.44090   0.32010   0.01267  Uiso   1.00
C39    C     0.65510   0.33300   0.30320   0.01267  Uiso   1.00
C40    C     0.62930   0.46860   0.39660   0.01267  Uiso   1.00
C41    C     0.73310   0.25360   0.36040   0.01267  Uiso   1.00
C42    C     0.70200   0.38990   0.45690   0.01267  Uiso   1.00
C43    C     0.75530   0.28150   0.43850   0.01267  Uiso   1.00
C44    C     0.83270   0.19480   0.50400   0.01267  Uiso   1.00
C45    C     0.16130   0.54430   0.29370   0.01267  Uiso   1.00
C46    C     0.07540   0.52290   0.39970   0.01267  Uiso   1.00
C47    C     0.04740   0.42560   0.43140   0.01267  Uiso   1.00
C48    C     0.02730   0.59570   0.46930   0.01267  Uiso   1.00
O1     O     0.81701   0.99188   0.69190   0.01267  Uiso   1.00
O2     O     0.63669   0.12132   0.78330   0.01267  Uiso   1.00
O3     O     0.51865   0.60157   0.97553   0.01267  Uiso   1.00
O4     O     0.36875   0.71650   0.08600   0.01267  Uiso   1.00
O5     O     0.08141   0.97308   0.73470   0.01267  Uiso   1.00
O6     O     0.91948   0.13384   0.76580   0.01267  Uiso   1.00
O7     O     0.50079   0.50812   0.80810   0.01267  Uiso   1.00
O8     O     0.54131   0.37868   0.71670   0.01267  Uiso   1.00
O9     O     0.09575   0.89843   0.52447   0.01267  Uiso   1.00
O10    O     0.17125   0.78350   0.41400   0.01267  Uiso   1.00
O11    O     0.78919   0.52692   0.76530   0.01267  Uiso   1.00
O12    O     0.81912   0.36616   0.73420   0.01267  Uiso   1.00
O13    O     0.18299   0.00812   0.30810   0.01267  Uiso   1.00
O14    O     0.36331   0.87868   0.21670   0.01267  Uiso   1.00
O15    O     0.48135   0.39843   0.02447   0.01267  Uiso   1.00
O16    O     0.63125   0.28350   0.91400   0.01267  Uiso   1.00
O17    O     0.91859   0.02692   0.26530   0.01267  Uiso   1.00
O18    O     0.08052   0.86616   0.23420   0.01267  Uiso   1.00
O19    O     0.49921   0.49188   0.19190   0.01267  Uiso   1.00
O20    O     0.45869   0.62132   0.28330   0.01267  Uiso   1.00
O21    O     0.90425   0.10157   0.47553   0.01267  Uiso   1.00
O22    O     0.82875   0.21650   0.58600   0.01267  Uiso   1.00
O23    O     0.21081   0.47308   0.23470   0.01267  Uiso   1.00
O24    O     0.18088   0.63384   0.26580   0.01267  Uiso   1.00
