data_FIJDIM06_clean
_audit_creation_date              2014-07-02
_audit_creation_method            'Materials Studio'
_symmetry_space_group_name_H-M    'P1'
_symmetry_Int_Tables_number       1
_symmetry_cell_setting            triclinic
loop_
_symmetry_equiv_pos_as_xyz
  x,y,z
_cell_length_a                    10.7768
_cell_length_b                    13.5057
_cell_length_c                    14.4248
_cell_angle_alpha                 76.5872
_cell_angle_beta                  68.0652
_cell_angle_gamma                 66.4861
loop_
_atom_site_label
_atom_site_type_symbol
_atom_site_fract_x
_atom_site_fract_y
_atom_site_fract_z
_atom_site_U_iso_or_equiv
_atom_site_adp_type
_atom_site_occupancy
Mn1    Mn    0.85899   0.03856   0.11038   0.01267  Uiso   1.00
Mn2    Mn    0.50793   0.46144   0.38962   0.01267  Uiso   1.00
Mn3    Mn    0.14101   0.96144   0.88962   0.01267  Uiso   1.00
Mn4    Mn    0.49207   0.53856   0.61038   0.01267  Uiso   1.00
Mn5    Mn    0.78416   0.25000   0.25000   0.01267  Uiso   1.00
Mn6    Mn    0.21584   0.75000   0.75000   0.01267  Uiso   1.00
H1     H     0.20150   0.18060   0.84720   0.01267  Uiso   1.00
H2     H     0.29610   0.31290   0.75290   0.01267  Uiso   1.00
H3     H     0.95500   0.54120   0.90780   0.01267  Uiso   1.00
H4     H     0.86640   0.40800   0.00900   0.01267  Uiso   1.00
H5     H     0.54770   0.16030   0.45010   0.01267  Uiso   1.00
H6     H     0.57850   0.87710   0.38430   0.01267  Uiso   1.00
H7     H     0.72930   0.31940   0.65280   0.01267  Uiso   1.00
H8     H     0.86190   0.18710   0.74710   0.01267  Uiso   1.00
H9     H     0.90400   0.95880   0.59220   0.01267  Uiso   1.00
H10    H     0.78340   0.09200   0.49100   0.01267  Uiso   1.00
H11    H     0.65810   0.33970   0.04990   0.01267  Uiso   1.00
H12    H     0.33990   0.62290   0.11570   0.01267  Uiso   1.00
H13    H     0.79850   0.81940   0.15280   0.01267  Uiso   1.00
H14    H     0.70390   0.68710   0.24710   0.01267  Uiso   1.00
H15    H     0.04500   0.45880   0.09220   0.01267  Uiso   1.00
H16    H     0.13360   0.59200   0.99100   0.01267  Uiso   1.00
H17    H     0.45230   0.83970   0.54990   0.01267  Uiso   1.00
H18    H     0.42150   0.12290   0.61570   0.01267  Uiso   1.00
H19    H     0.27070   0.68060   0.34720   0.01267  Uiso   1.00
H20    H     0.13810   0.81290   0.25290   0.01267  Uiso   1.00
H21    H     0.09600   0.04120   0.40780   0.01267  Uiso   1.00
H22    H     0.21660   0.90800   0.50900   0.01267  Uiso   1.00
H23    H     0.34190   0.66030   0.95010   0.01267  Uiso   1.00
H24    H     0.66010   0.37710   0.88430   0.01267  Uiso   1.00
C1     C     0.96883   0.19501   0.00393   0.01267  Uiso   1.00
C2     C     0.02563   0.28097   0.93917   0.01267  Uiso   1.00
C3     C     0.15329   0.25266   0.86096   0.01267  Uiso   1.00
C4     C     0.20868   0.33240   0.80344   0.01267  Uiso   1.00
C5     C     0.13523   0.44046   0.82048   0.01267  Uiso   1.00
C6     C     0.00593   0.46865   0.89669   0.01267  Uiso   1.00
C7     C     0.95199   0.38875   0.95687   0.01267  Uiso   1.00
C8     C     0.19990   0.52516   0.75984   0.01267  Uiso   1.00
C9     C     0.66311   0.04406   0.29492   0.01267  Uiso   1.00
C10    C     0.57722   0.02192   0.40104   0.01267  Uiso   1.00
C11    C     0.52899   0.09573   0.47009   0.01267  Uiso   1.00
C12    C     0.54748   0.92635   0.43069   0.01267  Uiso   1.00
C13    C     0.66777   0.30499   0.49607   0.01267  Uiso   1.00
C14    C     0.74577   0.21903   0.56083   0.01267  Uiso   1.00
C15    C     0.76691   0.24734   0.63904   0.01267  Uiso   1.00
C16    C     0.84452   0.16760   0.69656   0.01267  Uiso   1.00
C17    C     0.89617   0.05954   0.67952   0.01267  Uiso   1.00
C18    C     0.87127   0.03135   0.60331   0.01267  Uiso   1.00
C19    C     0.79761   0.11125   0.54313   0.01267  Uiso   1.00
C20    C     0.98490   0.97484   0.74016   0.01267  Uiso   1.00
C21    C     0.50209   0.45594   0.20508   0.01267  Uiso   1.00
C22    C     0.50018   0.47808   0.09896   0.01267  Uiso   1.00
C23    C     0.59481   0.40427   0.02991   0.01267  Uiso   1.00
C24    C     0.40452   0.57365   0.06931   0.01267  Uiso   1.00
C25    C     0.03117   0.80499   0.99607   0.01267  Uiso   1.00
C26    C     0.97437   0.71903   0.06083   0.01267  Uiso   1.00
C27    C     0.84671   0.74734   0.13904   0.01267  Uiso   1.00
C28    C     0.79132   0.66760   0.19656   0.01267  Uiso   1.00
C29    C     0.86477   0.55954   0.17952   0.01267  Uiso   1.00
C30    C     0.99407   0.53135   0.10331   0.01267  Uiso   1.00
C31    C     0.04801   0.61125   0.04313   0.01267  Uiso   1.00
C32    C     0.80010   0.47484   0.24016   0.01267  Uiso   1.00
C33    C     0.33689   0.95594   0.70508   0.01267  Uiso   1.00
C34    C     0.42278   0.97808   0.59896   0.01267  Uiso   1.00
C35    C     0.47101   0.90427   0.52991   0.01267  Uiso   1.00
C36    C     0.45252   0.07365   0.56931   0.01267  Uiso   1.00
C37    C     0.33223   0.69501   0.50393   0.01267  Uiso   1.00
C38    C     0.25423   0.78097   0.43917   0.01267  Uiso   1.00
C39    C     0.23309   0.75266   0.36096   0.01267  Uiso   1.00
C40    C     0.15548   0.83240   0.30344   0.01267  Uiso   1.00
C41    C     0.10383   0.94046   0.32048   0.01267  Uiso   1.00
C42    C     0.12873   0.96865   0.39669   0.01267  Uiso   1.00
C43    C     0.20239   0.88875   0.45687   0.01267  Uiso   1.00
C44    C     0.01510   0.02516   0.25984   0.01267  Uiso   1.00
C45    C     0.49791   0.54406   0.79492   0.01267  Uiso   1.00
C46    C     0.49982   0.52192   0.90104   0.01267  Uiso   1.00
C47    C     0.40519   0.59573   0.97009   0.01267  Uiso   1.00
C48    C     0.59548   0.42635   0.93069   0.01267  Uiso   1.00
O1     O     0.01785   0.10123   0.97585   0.01267  Uiso   1.00
O2     O     0.87004   0.21623   0.08627   0.01267  Uiso   1.00
O3     O     0.13646   0.62091   0.78297   0.01267  Uiso   1.00
O4     O     0.31530   0.49143   0.69157   0.01267  Uiso   1.00
O5     O     0.68330   0.13346   0.26714   0.01267  Uiso   1.00
O6     O     0.71295   0.97263   0.23607   0.01267  Uiso   1.00
O7     O     0.59493   0.39877   0.52415   0.01267  Uiso   1.00
O8     O     0.67254   0.28377   0.41373   0.01267  Uiso   1.00
O9     O     0.04034   0.87909   0.71703   0.01267  Uiso   1.00
O10    O     0.99830   0.00857   0.80843   0.01267  Uiso   1.00
O11    O     0.58390   0.36654   0.23286   0.01267  Uiso   1.00
O12    O     0.42165   0.52737   0.26393   0.01267  Uiso   1.00
O13    O     0.98215   0.89877   0.02415   0.01267  Uiso   1.00
O14    O     0.12996   0.78377   0.91373   0.01267  Uiso   1.00
O15    O     0.86354   0.37909   0.21703   0.01267  Uiso   1.00
O16    O     0.68470   0.50857   0.30843   0.01267  Uiso   1.00
O17    O     0.31670   0.86654   0.73286   0.01267  Uiso   1.00
O18    O     0.28705   0.02737   0.76393   0.01267  Uiso   1.00
O19    O     0.40507   0.60123   0.47585   0.01267  Uiso   1.00
O20    O     0.32746   0.71623   0.58627   0.01267  Uiso   1.00
O21    O     0.95966   0.12091   0.28297   0.01267  Uiso   1.00
O22    O     0.00170   0.99143   0.19157   0.01267  Uiso   1.00
O23    O     0.41610   0.63346   0.76714   0.01267  Uiso   1.00
O24    O     0.57835   0.47263   0.73607   0.01267  Uiso   1.00
