data_FIJDIM11_clean
_audit_creation_date              2014-07-02
_audit_creation_method            'Materials Studio'
_symmetry_space_group_name_H-M    'P1'
_symmetry_Int_Tables_number       1
_symmetry_cell_setting            triclinic
loop_
_symmetry_equiv_pos_as_xyz
  x,y,z
_cell_length_a                    10.6570
_cell_length_b                    13.5369
_cell_length_c                    14.4173
_cell_angle_alpha                 76.9816
_cell_angle_beta                  68.3095
_cell_angle_gamma                 66.8195
loop_
_atom_site_label
_atom_site_type_symbol
_atom_site_fract_x
_atom_site_fract_y
_atom_site_fract_z
_atom_site_U_iso_or_equiv
_atom_site_adp_type
_atom_site_occupancy
Mn1    Mn    0.35576   0.53916   0.60916   0.01267  Uiso   1.00
Mn2    Mn    0.00407   0.96085   0.89084   0.01267  Uiso   1.00
Mn3    Mn    0.64424   0.46085   0.39084   0.01267  Uiso   1.00
Mn4    Mn    0.99593   0.03915   0.10916   0.01267  Uiso   1.00
Mn5    Mn    0.28017   0.75000   0.75000   0.01267  Uiso   1.00
Mn6    Mn    0.71983   0.25000   0.25000   0.01267  Uiso   1.00
H1     H     0.70090   0.68200   0.34720   0.01267  Uiso   1.00
H2     H     0.79730   0.81350   0.25290   0.01267  Uiso   1.00
H3     H     0.45060   0.04240   0.40760   0.01267  Uiso   1.00
H4     H     0.36110   0.90960   0.50900   0.01267  Uiso   1.00
H5     H     0.04230   0.66270   0.94690   0.01267  Uiso   1.00
H6     H     0.08260   0.37340   0.88600   0.01267  Uiso   1.00
H7     H     0.23010   0.81800   0.15280   0.01267  Uiso   1.00
H8     H     0.36370   0.68650   0.24710   0.01267  Uiso   1.00
H9     H     0.40060   0.45760   0.09240   0.01267  Uiso   1.00
H10    H     0.27970   0.59040   0.99100   0.01267  Uiso   1.00
H11    H     0.15190   0.83730   0.55310   0.01267  Uiso   1.00
H12    H     0.84200   0.12660   0.61400   0.01267  Uiso   1.00
H13    H     0.29910   0.31800   0.65280   0.01267  Uiso   1.00
H14    H     0.20270   0.18650   0.74710   0.01267  Uiso   1.00
H15    H     0.54940   0.95760   0.59240   0.01267  Uiso   1.00
H16    H     0.63890   0.09040   0.49100   0.01267  Uiso   1.00
H17    H     0.95770   0.33730   0.05310   0.01267  Uiso   1.00
H18    H     0.91740   0.62660   0.11400   0.01267  Uiso   1.00
H19    H     0.76990   0.18200   0.84720   0.01267  Uiso   1.00
H20    H     0.63630   0.31350   0.75290   0.01267  Uiso   1.00
H21    H     0.59940   0.54240   0.90760   0.01267  Uiso   1.00
H22    H     0.72030   0.40960   0.00900   0.01267  Uiso   1.00
H23    H     0.84810   0.16270   0.44690   0.01267  Uiso   1.00
H24    H     0.15800   0.87340   0.38600   0.01267  Uiso   1.00
C1     C     0.46672   0.69564   0.50454   0.01267  Uiso   1.00
C2     C     0.52330   0.78198   0.43946   0.01267  Uiso   1.00
C3     C     0.65258   0.75375   0.36101   0.01267  Uiso   1.00
C4     C     0.70924   0.83304   0.30330   0.01267  Uiso   1.00
C5     C     0.63443   0.94170   0.32080   0.01267  Uiso   1.00
C6     C     0.50233   0.97015   0.39697   0.01267  Uiso   1.00
C7     C     0.44765   0.89045   0.45719   0.01267  Uiso   1.00
C8     C     0.70073   0.02582   0.26034   0.01267  Uiso   1.00
C9     C     0.15857   0.54382   0.79302   0.01267  Uiso   1.00
C10    C     0.07494   0.52165   0.89989   0.01267  Uiso   1.00
C11    C     0.02539   0.59763   0.96817   0.01267  Uiso   1.00
C12    C     0.04964   0.42400   0.93154   0.01267  Uiso   1.00
C13    C     0.16690   0.80436   0.99546   0.01267  Uiso   1.00
C14    C     0.24474   0.71802   0.06054   0.01267  Uiso   1.00
C15    C     0.26734   0.74625   0.13899   0.01267  Uiso   1.00
C16    C     0.34558   0.66696   0.19670   0.01267  Uiso   1.00
C17    C     0.39693   0.55830   0.17920   0.01267  Uiso   1.00
C18    C     0.36945   0.52985   0.10303   0.01267  Uiso   1.00
C19    C     0.29529   0.60955   0.04281   0.01267  Uiso   1.00
C20    C     0.48689   0.47418   0.23966   0.01267  Uiso   1.00
C21    C     0.99541   0.95618   0.70698   0.01267  Uiso   1.00
C22    C     0.99648   0.97835   0.60011   0.01267  Uiso   1.00
C23    C     0.09119   0.90237   0.53183   0.01267  Uiso   1.00
C24    C     0.90518   0.07600   0.56846   0.01267  Uiso   1.00
C25    C     0.53328   0.30436   0.49546   0.01267  Uiso   1.00
C26    C     0.47670   0.21802   0.56054   0.01267  Uiso   1.00
C27    C     0.34742   0.24625   0.63899   0.01267  Uiso   1.00
C28    C     0.29076   0.16696   0.69670   0.01267  Uiso   1.00
C29    C     0.36557   0.05830   0.67920   0.01267  Uiso   1.00
C30    C     0.49767   0.02985   0.60303   0.01267  Uiso   1.00
C31    C     0.55235   0.10955   0.54281   0.01267  Uiso   1.00
C32    C     0.29927   0.97418   0.73966   0.01267  Uiso   1.00
C33    C     0.84143   0.45618   0.20698   0.01267  Uiso   1.00
C34    C     0.92506   0.47835   0.10011   0.01267  Uiso   1.00
C35    C     0.97461   0.40237   0.03183   0.01267  Uiso   1.00
C36    C     0.95036   0.57600   0.06846   0.01267  Uiso   1.00
C37    C     0.83310   0.19564   0.00454   0.01267  Uiso   1.00
C38    C     0.75526   0.28198   0.93946   0.01267  Uiso   1.00
C39    C     0.73266   0.25375   0.86101   0.01267  Uiso   1.00
C40    C     0.65442   0.33304   0.80330   0.01267  Uiso   1.00
C41    C     0.60307   0.44170   0.82080   0.01267  Uiso   1.00
C42    C     0.63055   0.47015   0.89697   0.01267  Uiso   1.00
C43    C     0.70471   0.39045   0.95719   0.01267  Uiso   1.00
C44    C     0.51311   0.52582   0.76034   0.01267  Uiso   1.00
C45    C     0.00459   0.04382   0.29302   0.01267  Uiso   1.00
C46    C     0.00352   0.02165   0.39989   0.01267  Uiso   1.00
C47    C     0.90881   0.09763   0.46817   0.01267  Uiso   1.00
C48    C     0.09482   0.92400   0.43154   0.01267  Uiso   1.00
O1     O     0.51842   0.60141   0.47607   0.01267  Uiso   1.00
O2     O     0.36594   0.71693   0.58661   0.01267  Uiso   1.00
O3     O     0.63671   0.12183   0.28441   0.01267  Uiso   1.00
O4     O     0.81754   0.99204   0.19192   0.01267  Uiso   1.00
O5     O     0.17812   0.63382   0.76390   0.01267  Uiso   1.00
O6     O     0.20829   0.47169   0.73403   0.01267  Uiso   1.00
O7     O     0.09590   0.89859   0.02393   0.01267  Uiso   1.00
O8     O     0.16948   0.78307   0.91339   0.01267  Uiso   1.00
O9     O     0.54295   0.37817   0.21559   0.01267  Uiso   1.00
O10    O     0.50150   0.50796   0.30808   0.01267  Uiso   1.00
O11    O     0.07584   0.86618   0.73610   0.01267  Uiso   1.00
O12    O     0.91401   0.02831   0.76597   0.01267  Uiso   1.00
O13    O     0.48158   0.39859   0.52393   0.01267  Uiso   1.00
O14    O     0.63406   0.28307   0.41339   0.01267  Uiso   1.00
O15    O     0.36329   0.87817   0.71559   0.01267  Uiso   1.00
O16    O     0.18246   0.00796   0.80808   0.01267  Uiso   1.00
O17    O     0.82188   0.36618   0.23610   0.01267  Uiso   1.00
O18    O     0.79171   0.52831   0.26597   0.01267  Uiso   1.00
O19    O     0.90410   0.10141   0.97607   0.01267  Uiso   1.00
O20    O     0.83052   0.21693   0.08661   0.01267  Uiso   1.00
O21    O     0.45705   0.62183   0.78441   0.01267  Uiso   1.00
O22    O     0.49850   0.49204   0.69192   0.01267  Uiso   1.00
O23    O     0.92416   0.13382   0.26390   0.01267  Uiso   1.00
O24    O     0.08599   0.97169   0.23403   0.01267  Uiso   1.00
