data_FIJDIM01_clean
_audit_creation_date              2014-07-02
_audit_creation_method            'Materials Studio'
_symmetry_space_group_name_H-M    'P1'
_symmetry_Int_Tables_number       1
_symmetry_cell_setting            triclinic
loop_
_symmetry_equiv_pos_as_xyz
  x,y,z
_cell_length_a                    10.6570
_cell_length_b                    13.4830
_cell_length_c                    14.3650
_cell_angle_alpha                 76.8656
_cell_angle_beta                  68.2267
_cell_angle_gamma                 66.7215
loop_
_atom_site_label
_atom_site_type_symbol
_atom_site_fract_x
_atom_site_fract_y
_atom_site_fract_z
_atom_site_U_iso_or_equiv
_atom_site_adp_type
_atom_site_occupancy
Mn1    Mn    0.85624   0.03925   0.10921   0.01267  Uiso   1.00
Mn2    Mn    0.50470   0.46075   0.39079   0.01267  Uiso   1.00
Mn3    Mn    0.14376   0.96075   0.89079   0.01267  Uiso   1.00
Mn4    Mn    0.49530   0.53925   0.60921   0.01267  Uiso   1.00
Mn5    Mn    0.78086   0.25000   0.25000   0.01267  Uiso   1.00
Mn6    Mn    0.21914   0.75000   0.75000   0.01267  Uiso   1.00
H1     H     0.20120   0.18170   0.84630   0.01267  Uiso   1.00
H2     H     0.29730   0.31370   0.75250   0.01267  Uiso   1.00
H3     H     0.95300   0.54210   0.90770   0.01267  Uiso   1.00
H4     H     0.86330   0.40910   0.00930   0.01267  Uiso   1.00
H5     H     0.54320   0.16240   0.44740   0.01267  Uiso   1.00
H6     H     0.58080   0.87440   0.38540   0.01267  Uiso   1.00
H7     H     0.72920   0.31830   0.65370   0.01267  Uiso   1.00
H8     H     0.86350   0.18630   0.74750   0.01267  Uiso   1.00
H9     H     0.90280   0.95790   0.59230   0.01267  Uiso   1.00
H10    H     0.78170   0.09090   0.49070   0.01267  Uiso   1.00
H11    H     0.65300   0.33760   0.05260   0.01267  Uiso   1.00
H12    H     0.34060   0.62560   0.11460   0.01267  Uiso   1.00
H13    H     0.79880   0.81830   0.15370   0.01267  Uiso   1.00
H14    H     0.70270   0.68630   0.24750   0.01267  Uiso   1.00
H15    H     0.04700   0.45790   0.09230   0.01267  Uiso   1.00
H16    H     0.13670   0.59090   0.99070   0.01267  Uiso   1.00
H17    H     0.45680   0.83760   0.55260   0.01267  Uiso   1.00
H18    H     0.41920   0.12560   0.61460   0.01267  Uiso   1.00
H19    H     0.27080   0.68170   0.34630   0.01267  Uiso   1.00
H20    H     0.13650   0.81370   0.25250   0.01267  Uiso   1.00
H21    H     0.09720   0.04210   0.40770   0.01267  Uiso   1.00
H22    H     0.21830   0.90910   0.50930   0.01267  Uiso   1.00
H23    H     0.34700   0.66240   0.94740   0.01267  Uiso   1.00
H24    H     0.65940   0.37440   0.88540   0.01267  Uiso   1.00
C1     C     0.96764   0.19552   0.00420   0.01267  Uiso   1.00
C2     C     0.02417   0.28174   0.93932   0.01267  Uiso   1.00
C3     C     0.15282   0.25365   0.86051   0.01267  Uiso   1.00
C4     C     0.20906   0.33321   0.80307   0.01267  Uiso   1.00
C5     C     0.13488   0.44114   0.82050   0.01267  Uiso   1.00
C6     C     0.00435   0.46954   0.89676   0.01267  Uiso   1.00
C7     C     0.94972   0.38984   0.95712   0.01267  Uiso   1.00
C8     C     0.20052   0.52581   0.76055   0.01267  Uiso   1.00
C9     C     0.65918   0.04388   0.29316   0.01267  Uiso   1.00
C10    C     0.57513   0.02185   0.40009   0.01267  Uiso   1.00
C11    C     0.52612   0.09706   0.46850   0.01267  Uiso   1.00
C12    C     0.54866   0.92473   0.43135   0.01267  Uiso   1.00
C13    C     0.66736   0.30448   0.49580   0.01267  Uiso   1.00
C14    C     0.74523   0.21826   0.56068   0.01267  Uiso   1.00
C15    C     0.76698   0.24635   0.63949   0.01267  Uiso   1.00
C16    C     0.84534   0.16679   0.69693   0.01267  Uiso   1.00
C17    C     0.89652   0.05886   0.67950   0.01267  Uiso   1.00
C18    C     0.87065   0.03046   0.60324   0.01267  Uiso   1.00
C19    C     0.79668   0.11016   0.54288   0.01267  Uiso   1.00
C20    C     0.98688   0.97419   0.73945   0.01267  Uiso   1.00
C21    C     0.49622   0.45612   0.20684   0.01267  Uiso   1.00
C22    C     0.49707   0.47815   0.09991   0.01267  Uiso   1.00
C23    C     0.59168   0.40294   0.03150   0.01267  Uiso   1.00
C24    C     0.40474   0.57527   0.06865   0.01267  Uiso   1.00
C25    C     0.03236   0.80448   0.99580   0.01267  Uiso   1.00
C26    C     0.97583   0.71826   0.06068   0.01267  Uiso   1.00
C27    C     0.84718   0.74635   0.13949   0.01267  Uiso   1.00
C28    C     0.79094   0.66679   0.19693   0.01267  Uiso   1.00
C29    C     0.86512   0.55886   0.17950   0.01267  Uiso   1.00
C30    C     0.99565   0.53046   0.10324   0.01267  Uiso   1.00
C31    C     0.05028   0.61016   0.04288   0.01267  Uiso   1.00
C32    C     0.79948   0.47419   0.23945   0.01267  Uiso   1.00
C33    C     0.34082   0.95612   0.70684   0.01267  Uiso   1.00
C34    C     0.42487   0.97815   0.59991   0.01267  Uiso   1.00
C35    C     0.47388   0.90294   0.53150   0.01267  Uiso   1.00
C36    C     0.45134   0.07527   0.56865   0.01267  Uiso   1.00
C37    C     0.33264   0.69552   0.50420   0.01267  Uiso   1.00
C38    C     0.25477   0.78174   0.43932   0.01267  Uiso   1.00
C39    C     0.23302   0.75365   0.36051   0.01267  Uiso   1.00
C40    C     0.15466   0.83321   0.30307   0.01267  Uiso   1.00
C41    C     0.10348   0.94114   0.32050   0.01267  Uiso   1.00
C42    C     0.12935   0.96954   0.39676   0.01267  Uiso   1.00
C43    C     0.20332   0.88984   0.45712   0.01267  Uiso   1.00
C44    C     0.01312   0.02581   0.26055   0.01267  Uiso   1.00
C45    C     0.50378   0.54388   0.79316   0.01267  Uiso   1.00
C46    C     0.50293   0.52185   0.90009   0.01267  Uiso   1.00
C47    C     0.40832   0.59706   0.96850   0.01267  Uiso   1.00
C48    C     0.59526   0.42473   0.93135   0.01267  Uiso   1.00
O1     O     0.01838   0.10121   0.97623   0.01267  Uiso   1.00
O2     O     0.86705   0.21685   0.08645   0.01267  Uiso   1.00
O3     O     0.13717   0.62180   0.78386   0.01267  Uiso   1.00
O4     O     0.31774   0.49184   0.69208   0.01267  Uiso   1.00
O5     O     0.67917   0.13377   0.26469   0.01267  Uiso   1.00
O6     O     0.70881   0.97211   0.23407   0.01267  Uiso   1.00
O7     O     0.59582   0.39879   0.52377   0.01267  Uiso   1.00
O8     O     0.67035   0.28315   0.41355   0.01267  Uiso   1.00
O9     O     0.04283   0.87820   0.71614   0.01267  Uiso   1.00
O10    O     0.00166   0.00816   0.80792   0.01267  Uiso   1.00
O11    O     0.57763   0.36623   0.23531   0.01267  Uiso   1.00
O12    O     0.41499   0.52789   0.26593   0.01267  Uiso   1.00
O13    O     0.98162   0.89879   0.02377   0.01267  Uiso   1.00
O14    O     0.13295   0.78315   0.91355   0.01267  Uiso   1.00
O15    O     0.86283   0.37820   0.21614   0.01267  Uiso   1.00
O16    O     0.68226   0.50816   0.30792   0.01267  Uiso   1.00
O17    O     0.32083   0.86623   0.73531   0.01267  Uiso   1.00
O18    O     0.29119   0.02789   0.76593   0.01267  Uiso   1.00
O19    O     0.40418   0.60121   0.47623   0.01267  Uiso   1.00
O20    O     0.32965   0.71685   0.58645   0.01267  Uiso   1.00
O21    O     0.95717   0.12180   0.28386   0.01267  Uiso   1.00
O22    O     0.99834   0.99184   0.19208   0.01267  Uiso   1.00
O23    O     0.42237   0.63377   0.76469   0.01267  Uiso   1.00
O24    O     0.58501   0.47211   0.73407   0.01267  Uiso   1.00
