data_FIJDIM07_clean
_audit_creation_date              2014-07-02
_audit_creation_method            'Materials Studio'
_symmetry_space_group_name_H-M    'P1'
_symmetry_Int_Tables_number       1
_symmetry_cell_setting            triclinic
loop_
_symmetry_equiv_pos_as_xyz
  x,y,z
_cell_length_a                    10.7964
_cell_length_b                    13.4996
_cell_length_c                    14.4274
_cell_angle_alpha                 76.5263
_cell_angle_beta                  68.0275
_cell_angle_gamma                 66.4295
loop_
_atom_site_label
_atom_site_type_symbol
_atom_site_fract_x
_atom_site_fract_y
_atom_site_fract_z
_atom_site_U_iso_or_equiv
_atom_site_adp_type
_atom_site_occupancy
Mn1    Mn    0.85968   0.03834   0.11070   0.01267  Uiso   1.00
Mn2    Mn    0.50872   0.46166   0.38930   0.01267  Uiso   1.00
Mn3    Mn    0.14032   0.96166   0.88930   0.01267  Uiso   1.00
Mn4    Mn    0.49128   0.53834   0.61070   0.01267  Uiso   1.00
Mn5    Mn    0.78488   0.25000   0.25000   0.01267  Uiso   1.00
Mn6    Mn    0.21512   0.75000   0.75000   0.01267  Uiso   1.00
H1     H     0.20130   0.18030   0.84750   0.01267  Uiso   1.00
H2     H     0.29590   0.31260   0.75300   0.01267  Uiso   1.00
H3     H     0.95500   0.54100   0.90760   0.01267  Uiso   1.00
H4     H     0.86710   0.40780   0.00920   0.01267  Uiso   1.00
H5     H     0.54800   0.16020   0.45040   0.01267  Uiso   1.00
H6     H     0.57860   0.87730   0.38410   0.01267  Uiso   1.00
H7     H     0.72910   0.31970   0.65250   0.01267  Uiso   1.00
H8     H     0.86150   0.18740   0.74700   0.01267  Uiso   1.00
H9     H     0.90360   0.95900   0.59240   0.01267  Uiso   1.00
H10    H     0.78410   0.09220   0.49080   0.01267  Uiso   1.00
H11    H     0.65860   0.33980   0.04960   0.01267  Uiso   1.00
H12    H     0.34000   0.62270   0.11590   0.01267  Uiso   1.00
H13    H     0.79870   0.81970   0.15250   0.01267  Uiso   1.00
H14    H     0.70410   0.68740   0.24700   0.01267  Uiso   1.00
H15    H     0.04500   0.45900   0.09240   0.01267  Uiso   1.00
H16    H     0.13290   0.59220   0.99080   0.01267  Uiso   1.00
H17    H     0.45200   0.83980   0.54960   0.01267  Uiso   1.00
H18    H     0.42140   0.12270   0.61590   0.01267  Uiso   1.00
H19    H     0.27090   0.68030   0.34750   0.01267  Uiso   1.00
H20    H     0.13850   0.81260   0.25300   0.01267  Uiso   1.00
H21    H     0.09640   0.04100   0.40760   0.01267  Uiso   1.00
H22    H     0.21590   0.90780   0.50920   0.01267  Uiso   1.00
H23    H     0.34140   0.66020   0.95040   0.01267  Uiso   1.00
H24    H     0.66000   0.37730   0.88410   0.01267  Uiso   1.00
C1     C     0.96886   0.19495   0.00393   0.01267  Uiso   1.00
C2     C     0.02569   0.28102   0.93920   0.01267  Uiso   1.00
C3     C     0.15318   0.25250   0.86114   0.01267  Uiso   1.00
C4     C     0.20860   0.33212   0.80348   0.01267  Uiso   1.00
C5     C     0.13494   0.44017   0.82055   0.01267  Uiso   1.00
C6     C     0.00605   0.46842   0.89668   0.01267  Uiso   1.00
C7     C     0.95241   0.38862   0.95696   0.01267  Uiso   1.00
C8     C     0.19972   0.52496   0.75960   0.01267  Uiso   1.00
C9     C     0.66413   0.04406   0.29548   0.01267  Uiso   1.00
C10    C     0.57761   0.02173   0.40125   0.01267  Uiso   1.00
C11    C     0.52907   0.09568   0.47038   0.01267  Uiso   1.00
C12    C     0.54750   0.92648   0.43072   0.01267  Uiso   1.00
C13    C     0.66774   0.30505   0.49607   0.01267  Uiso   1.00
C14    C     0.74591   0.21898   0.56080   0.01267  Uiso   1.00
C15    C     0.76682   0.24750   0.63886   0.01267  Uiso   1.00
C16    C     0.84420   0.16788   0.69652   0.01267  Uiso   1.00
C17    C     0.89566   0.05983   0.67945   0.01267  Uiso   1.00
C18    C     0.87115   0.03158   0.60332   0.01267  Uiso   1.00
C19    C     0.79799   0.11138   0.54304   0.01267  Uiso   1.00
C20    C     0.98428   0.97504   0.74040   0.01267  Uiso   1.00
C21    C     0.50367   0.45594   0.20452   0.01267  Uiso   1.00
C22    C     0.50059   0.47827   0.09875   0.01267  Uiso   1.00
C23    C     0.59513   0.40432   0.02962   0.01267  Uiso   1.00
C24    C     0.40470   0.57352   0.06928   0.01267  Uiso   1.00
C25    C     0.03114   0.80505   0.99607   0.01267  Uiso   1.00
C26    C     0.97431   0.71898   0.06080   0.01267  Uiso   1.00
C27    C     0.84682   0.74750   0.13886   0.01267  Uiso   1.00
C28    C     0.79140   0.66788   0.19652   0.01267  Uiso   1.00
C29    C     0.86506   0.55983   0.17945   0.01267  Uiso   1.00
C30    C     0.99395   0.53158   0.10332   0.01267  Uiso   1.00
C31    C     0.04759   0.61138   0.04304   0.01267  Uiso   1.00
C32    C     0.80028   0.47504   0.24040   0.01267  Uiso   1.00
C33    C     0.33587   0.95594   0.70452   0.01267  Uiso   1.00
C34    C     0.42239   0.97827   0.59875   0.01267  Uiso   1.00
C35    C     0.47093   0.90432   0.52962   0.01267  Uiso   1.00
C36    C     0.45250   0.07352   0.56928   0.01267  Uiso   1.00
C37    C     0.33226   0.69495   0.50393   0.01267  Uiso   1.00
C38    C     0.25409   0.78102   0.43920   0.01267  Uiso   1.00
C39    C     0.23318   0.75250   0.36114   0.01267  Uiso   1.00
C40    C     0.15580   0.83212   0.30348   0.01267  Uiso   1.00
C41    C     0.10434   0.94017   0.32055   0.01267  Uiso   1.00
C42    C     0.12885   0.96842   0.39668   0.01267  Uiso   1.00
C43    C     0.20201   0.88862   0.45696   0.01267  Uiso   1.00
C44    C     0.01572   0.02496   0.25960   0.01267  Uiso   1.00
C45    C     0.49633   0.54406   0.79548   0.01267  Uiso   1.00
C46    C     0.49941   0.52173   0.90125   0.01267  Uiso   1.00
C47    C     0.40487   0.59568   0.97038   0.01267  Uiso   1.00
C48    C     0.59530   0.42648   0.93072   0.01267  Uiso   1.00
O1     O     0.01783   0.10129   0.97569   0.01267  Uiso   1.00
O2     O     0.87065   0.21591   0.08631   0.01267  Uiso   1.00
O3     O     0.13614   0.62085   0.78279   0.01267  Uiso   1.00
O4     O     0.31451   0.49133   0.69145   0.01267  Uiso   1.00
O5     O     0.68431   0.13331   0.26769   0.01267  Uiso   1.00
O6     O     0.71448   0.97247   0.23657   0.01267  Uiso   1.00
O7     O     0.59481   0.39871   0.52431   0.01267  Uiso   1.00
O8     O     0.67287   0.28409   0.41369   0.01267  Uiso   1.00
O9     O     0.03978   0.87915   0.71721   0.01267  Uiso   1.00
O10    O     0.99729   0.00867   0.80855   0.01267  Uiso   1.00
O11    O     0.58531   0.36669   0.23231   0.01267  Uiso   1.00
O12    O     0.42352   0.52753   0.26343   0.01267  Uiso   1.00
O13    O     0.98217   0.89871   0.02431   0.01267  Uiso   1.00
O14    O     0.12935   0.78409   0.91369   0.01267  Uiso   1.00
O15    O     0.86386   0.37915   0.21721   0.01267  Uiso   1.00
O16    O     0.68549   0.50867   0.30855   0.01267  Uiso   1.00
O17    O     0.31569   0.86669   0.73231   0.01267  Uiso   1.00
O18    O     0.28552   0.02753   0.76343   0.01267  Uiso   1.00
O19    O     0.40519   0.60129   0.47569   0.01267  Uiso   1.00
O20    O     0.32713   0.71591   0.58631   0.01267  Uiso   1.00
O21    O     0.96022   0.12085   0.28279   0.01267  Uiso   1.00
O22    O     0.00271   0.99133   0.19145   0.01267  Uiso   1.00
O23    O     0.41469   0.63331   0.76769   0.01267  Uiso   1.00
O24    O     0.57648   0.47247   0.73657   0.01267  Uiso   1.00
