data_FIJDIM10_clean
_audit_creation_date              2014-07-02
_audit_creation_method            'Materials Studio'
_symmetry_space_group_name_H-M    'P1'
_symmetry_Int_Tables_number       1
_symmetry_cell_setting            triclinic
loop_
_symmetry_equiv_pos_as_xyz
  x,y,z
_cell_length_a                    10.6527
_cell_length_b                    13.5339
_cell_length_c                    14.3994
_cell_angle_alpha                 76.9404
_cell_angle_beta                  68.2904
_cell_angle_gamma                 66.8240
loop_
_atom_site_label
_atom_site_type_symbol
_atom_site_fract_x
_atom_site_fract_y
_atom_site_fract_z
_atom_site_U_iso_or_equiv
_atom_site_adp_type
_atom_site_occupancy
Mn1    Mn    0.00328   0.96031   0.89137   0.01267  Uiso   1.00
Mn2    Mn    0.35496   0.53969   0.60863   0.01267  Uiso   1.00
Mn3    Mn    0.99672   0.03969   0.10863   0.01267  Uiso   1.00
Mn4    Mn    0.64504   0.46031   0.39137   0.01267  Uiso   1.00
Mn5    Mn    0.27979   0.75000   0.75000   0.01267  Uiso   1.00
Mn6    Mn    0.72021   0.25000   0.25000   0.01267  Uiso   1.00
H1     H     0.22436   0.83002   0.15566   0.01267  Uiso   1.00
H2     H     0.36580   0.68948   0.25656   0.01267  Uiso   1.00
H3     H     0.40577   0.44573   0.09061   0.01267  Uiso   1.00
H4     H     0.27921   0.58720   0.98172   0.01267  Uiso   1.00
H5     H     0.16137   0.82613   0.55683   0.01267  Uiso   1.00
H6     H     0.83054   0.13484   0.62170   0.01267  Uiso   1.00
H7     H     0.71004   0.66998   0.34434   0.01267  Uiso   1.00
H8     H     0.81184   0.81052   0.24344   0.01267  Uiso   1.00
H9     H     0.44211   0.05427   0.40939   0.01267  Uiso   1.00
H10    H     0.34813   0.91280   0.51828   0.01267  Uiso   1.00
H11    H     0.04433   0.67387   0.94317   0.01267  Uiso   1.00
H12    H     0.08708   0.36516   0.87830   0.01267  Uiso   1.00
H13    H     0.77564   0.16998   0.84434   0.01267  Uiso   1.00
H14    H     0.63420   0.31052   0.74344   0.01267  Uiso   1.00
H15    H     0.59423   0.55427   0.90939   0.01267  Uiso   1.00
H16    H     0.72079   0.41280   0.01828   0.01267  Uiso   1.00
H17    H     0.83863   0.17387   0.44317   0.01267  Uiso   1.00
H18    H     0.16946   0.86516   0.37830   0.01267  Uiso   1.00
H19    H     0.28996   0.33002   0.65566   0.01267  Uiso   1.00
H20    H     0.18816   0.18948   0.75656   0.01267  Uiso   1.00
H21    H     0.55789   0.94573   0.59061   0.01267  Uiso   1.00
H22    H     0.65187   0.08720   0.48172   0.01267  Uiso   1.00
H23    H     0.95567   0.32613   0.05683   0.01267  Uiso   1.00
H24    H     0.91292   0.63484   0.12170   0.01267  Uiso   1.00
C1     C     0.16735   0.80449   0.99555   0.01267  Uiso   1.00
C2     C     0.24507   0.71811   0.06065   0.01267  Uiso   1.00
C3     C     0.26771   0.74644   0.13950   0.01267  Uiso   1.00
C4     C     0.34591   0.66691   0.19707   0.01267  Uiso   1.00
C5     C     0.39744   0.55820   0.17930   0.01267  Uiso   1.00
C6     C     0.36966   0.52992   0.10308   0.01267  Uiso   1.00
C7     C     0.29618   0.60966   0.04262   0.01267  Uiso   1.00
C8     C     0.48798   0.47432   0.23944   0.01267  Uiso   1.00
C9     C     0.99420   0.95582   0.70750   0.01267  Uiso   1.00
C10    C     0.99586   0.97825   0.60031   0.01267  Uiso   1.00
C11    C     0.09155   0.90236   0.53172   0.01267  Uiso   1.00
C12    C     0.90411   0.07579   0.56875   0.01267  Uiso   1.00
C13    C     0.46739   0.69551   0.50445   0.01267  Uiso   1.00
C14    C     0.52383   0.78189   0.43935   0.01267  Uiso   1.00
C15    C     0.65365   0.75356   0.36050   0.01267  Uiso   1.00
C16    C     0.70989   0.83309   0.30293   0.01267  Uiso   1.00
C17    C     0.63494   0.94180   0.32070   0.01267  Uiso   1.00
C18    C     0.50266   0.97008   0.39692   0.01267  Uiso   1.00
C19    C     0.44846   0.89034   0.45738   0.01267  Uiso   1.00
C20    C     0.70174   0.02568   0.26056   0.01267  Uiso   1.00
C21    C     0.15752   0.54418   0.79250   0.01267  Uiso   1.00
C22    C     0.07442   0.52175   0.89969   0.01267  Uiso   1.00
C23    C     0.02563   0.59764   0.96828   0.01267  Uiso   1.00
C24    C     0.04865   0.42421   0.93125   0.01267  Uiso   1.00
C25    C     0.83265   0.19551   0.00445   0.01267  Uiso   1.00
C26    C     0.75493   0.28189   0.93935   0.01267  Uiso   1.00
C27    C     0.73229   0.25356   0.86050   0.01267  Uiso   1.00
C28    C     0.65409   0.33309   0.80293   0.01267  Uiso   1.00
C29    C     0.60256   0.44180   0.82070   0.01267  Uiso   1.00
C30    C     0.63034   0.47008   0.89692   0.01267  Uiso   1.00
C31    C     0.70382   0.39034   0.95738   0.01267  Uiso   1.00
C32    C     0.51202   0.52568   0.76056   0.01267  Uiso   1.00
C33    C     0.00580   0.04418   0.29250   0.01267  Uiso   1.00
C34    C     0.00414   0.02175   0.39969   0.01267  Uiso   1.00
C35    C     0.90845   0.09764   0.46828   0.01267  Uiso   1.00
C36    C     0.09589   0.92421   0.43125   0.01267  Uiso   1.00
C37    C     0.53261   0.30449   0.49555   0.01267  Uiso   1.00
C38    C     0.47617   0.21811   0.56065   0.01267  Uiso   1.00
C39    C     0.34635   0.24644   0.63950   0.01267  Uiso   1.00
C40    C     0.29011   0.16691   0.69707   0.01267  Uiso   1.00
C41    C     0.36506   0.05820   0.67930   0.01267  Uiso   1.00
C42    C     0.49734   0.02992   0.60308   0.01267  Uiso   1.00
C43    C     0.55154   0.10966   0.54262   0.01267  Uiso   1.00
C44    C     0.29826   0.97432   0.73944   0.01267  Uiso   1.00
C45    C     0.84248   0.45582   0.20750   0.01267  Uiso   1.00
C46    C     0.92558   0.47825   0.10031   0.01267  Uiso   1.00
C47    C     0.97437   0.40236   0.03172   0.01267  Uiso   1.00
C48    C     0.95135   0.57579   0.06875   0.01267  Uiso   1.00
O1     O     0.09632   0.89862   0.02400   0.01267  Uiso   1.00
O2     O     0.17002   0.78300   0.91350   0.01267  Uiso   1.00
O3     O     0.54349   0.37827   0.21543   0.01267  Uiso   1.00
O4     O     0.50375   0.50815   0.30751   0.01267  Uiso   1.00
O5     O     0.07564   0.86590   0.73626   0.01267  Uiso   1.00
O6     O     0.91137   0.02715   0.76729   0.01267  Uiso   1.00
O7     O     0.51894   0.60138   0.47600   0.01267  Uiso   1.00
O8     O     0.36652   0.71700   0.58650   0.01267  Uiso   1.00
O9     O     0.63719   0.12173   0.28457   0.01267  Uiso   1.00
O10    O     0.81941   0.99185   0.19249   0.01267  Uiso   1.00
O11    O     0.17780   0.63410   0.76374   0.01267  Uiso   1.00
O12    O     0.20581   0.47285   0.73271   0.01267  Uiso   1.00
O13    O     0.90368   0.10138   0.97600   0.01267  Uiso   1.00
O14    O     0.82998   0.21700   0.08650   0.01267  Uiso   1.00
O15    O     0.45651   0.62173   0.78457   0.01267  Uiso   1.00
O16    O     0.49625   0.49185   0.69249   0.01267  Uiso   1.00
O17    O     0.92436   0.13410   0.26374   0.01267  Uiso   1.00
O18    O     0.08863   0.97285   0.23271   0.01267  Uiso   1.00
O19    O     0.48106   0.39862   0.52400   0.01267  Uiso   1.00
O20    O     0.63348   0.28300   0.41350   0.01267  Uiso   1.00
O21    O     0.36281   0.87827   0.71543   0.01267  Uiso   1.00
O22    O     0.18059   0.00815   0.80751   0.01267  Uiso   1.00
O23    O     0.82220   0.36590   0.23626   0.01267  Uiso   1.00
O24    O     0.79419   0.52715   0.26729   0.01267  Uiso   1.00
