data_image0
_cell_length_a       13.686
_cell_length_b       18.252
_cell_length_c       14.906
_cell_angle_alpha    90
_cell_angle_beta     101.07
_cell_angle_gamma    90

_symmetry_space_group_name_H-M    "P 1"
_symmetry_int_tables_number       1

loop_
  _symmetry_equiv_pos_as_xyz
  'x, y, z'

loop_
  _atom_site_label
  _atom_site_occupancy
  _atom_site_fract_x
  _atom_site_fract_y
  _atom_site_fract_z
  _atom_site_thermal_displace_type
  _atom_site_B_iso_or_equiv
  _atom_site_type_symbol
  Cd1      1.0000 0.65877  0.79047  0.57456  Biso   1.000  Cd
  O1       1.0000 0.80129  0.82130  0.49927  Biso   1.000  O
  O2       1.0000 0.65773  0.87914  0.46233  Biso   1.000  O
  O3       1.0000 0.50311  0.23507  0.98676  Biso   1.000  O
  O4       1.0000 0.48083  0.15527  0.09250  Biso   1.000  O
  O5       1.0000 0.61999  0.09049  0.26465  Biso   1.000  O
  O6       1.0000 0.72661  0.11252  0.17079  Biso   1.000  O
  O7       1.0000 0.09896  0.23726  0.70914  Biso   1.000  O
  O8       1.0000 0.25681  0.23101  0.69809  Biso   1.000  O
  C1       1.0000 0.74800  0.87126  0.45668  Biso   1.000  C
  C2       1.0000 0.79200  0.92442  0.39850  Biso   1.000  C
  C3       1.0000 0.89310  0.92445  0.39800  Biso   1.000  C
  H1       1.0000 0.93600  0.89100  0.43550  Biso   1.000  H
  C4       1.0000 0.73050  0.97477  0.34480  Biso   1.000  C
  H2       1.0000 0.66140  0.97540  0.34610  Biso   1.000  H
  C5       1.0000 0.93180  0.97341  0.34260  Biso   1.000  C
  H3       1.0000 0.00110  0.97330  0.34210  Biso   1.000  H
  C6       1.0000 0.86930  0.02260  0.28800  Biso   1.000  C
  H4       1.0000 0.89600  0.05540  0.24950  Biso   1.000  H
  C7       1.0000 0.76850  0.02419  0.28927  Biso   1.000  C
  C8       1.0000 0.69990  0.08083  0.23579  Biso   1.000  C
  C9       1.0000 0.44860  0.19303  0.02180  Biso   1.000  C
  C10      1.0000 0.27570  0.14253  0.01550  Biso   1.000  C
  H5       1.0000 0.29640  0.12320  0.07530  Biso   1.000  H
  C11      1.0000 0.34220  0.18236  0.97496  Biso   1.000  C
  C12      1.0000 0.17910  0.13091  0.96880  Biso   1.000  C
  H6       1.0000 0.13360  0.10430  0.99720  Biso   1.000  H
  C13      1.0000 0.31140  0.20885  0.88720  Biso   1.000  C
  H7       1.0000 0.35650  0.23630  0.85940  Biso   1.000  H
  C14      1.0000 0.14830  0.15783  0.88080  Biso   1.000  C
  H8       1.0000 0.08190  0.15040  0.84920  Biso   1.000  H
  C15      1.0000 0.21620  0.19608  0.83924  Biso   1.000  C
  C16      1.0000 0.18900  0.22306  0.74344  Biso   1.000  C
  Cd2      1.0000 0.15877  0.29047  0.57456  Biso   1.000  Cd
  O9       1.0000 0.30129  0.32130  0.49927  Biso   1.000  O
  O10      1.0000 0.15773  0.37914  0.46233  Biso   1.000  O
  O11      1.0000 0.00311  0.73507  0.98676  Biso   1.000  O
  O12      1.0000 0.98083  0.65527  0.09250  Biso   1.000  O
  O13      1.0000 0.11999  0.59049  0.26465  Biso   1.000  O
  O14      1.0000 0.22661  0.61252  0.17079  Biso   1.000  O
  O15      1.0000 0.59896  0.73726  0.70914  Biso   1.000  O
  O16      1.0000 0.75681  0.73101  0.69809  Biso   1.000  O
  C17      1.0000 0.24800  0.37126  0.45668  Biso   1.000  C
  C18      1.0000 0.29200  0.42442  0.39850  Biso   1.000  C
  C19      1.0000 0.39310  0.42445  0.39800  Biso   1.000  C
  H9       1.0000 0.43600  0.39100  0.43550  Biso   1.000  H
  C20      1.0000 0.23050  0.47477  0.34480  Biso   1.000  C
  H10      1.0000 0.16140  0.47540  0.34610  Biso   1.000  H
  C21      1.0000 0.43180  0.47341  0.34260  Biso   1.000  C
  H11      1.0000 0.50110  0.47330  0.34210  Biso   1.000  H
  C22      1.0000 0.36930  0.52260  0.28800  Biso   1.000  C
  H12      1.0000 0.39600  0.55540  0.24950  Biso   1.000  H
  C23      1.0000 0.26850  0.52419  0.28927  Biso   1.000  C
  C24      1.0000 0.19990  0.58083  0.23579  Biso   1.000  C
  C25      1.0000 0.94860  0.69303  0.02180  Biso   1.000  C
  C26      1.0000 0.77570  0.64253  0.01550  Biso   1.000  C
  H13      1.0000 0.79640  0.62320  0.07530  Biso   1.000  H
  C27      1.0000 0.84220  0.68236  0.97496  Biso   1.000  C
  C28      1.0000 0.67910  0.63091  0.96880  Biso   1.000  C
  H14      1.0000 0.63360  0.60430  0.99720  Biso   1.000  H
  C29      1.0000 0.81140  0.70885  0.88720  Biso   1.000  C
  H15      1.0000 0.85650  0.73630  0.85940  Biso   1.000  H
  C30      1.0000 0.64830  0.65783  0.88080  Biso   1.000  C
  H16      1.0000 0.58190  0.65040  0.84920  Biso   1.000  H
  C31      1.0000 0.71620  0.69608  0.83924  Biso   1.000  C
  C32      1.0000 0.68900  0.72306  0.74344  Biso   1.000  C
  Cd3      1.0000 0.34123  0.79047  0.92544  Biso   1.000  Cd
  O17      1.0000 0.19871  0.82130  0.00073  Biso   1.000  O
  O18      1.0000 0.34227  0.87914  0.03767  Biso   1.000  O
  O19      1.0000 0.49689  0.23507  0.51324  Biso   1.000  O
  O20      1.0000 0.51917  0.15527  0.40750  Biso   1.000  O
  O21      1.0000 0.38001  0.09049  0.23535  Biso   1.000  O
  O22      1.0000 0.27339  0.11252  0.32921  Biso   1.000  O
  O23      1.0000 0.90104  0.23726  0.79086  Biso   1.000  O
  O24      1.0000 0.74319  0.23101  0.80191  Biso   1.000  O
  C33      1.0000 0.25200  0.87126  0.04332  Biso   1.000  C
  C34      1.0000 0.20800  0.92442  0.10150  Biso   1.000  C
  C35      1.0000 0.10690  0.92445  0.10200  Biso   1.000  C
  H17      1.0000 0.06400  0.89100  0.06450  Biso   1.000  H
  C36      1.0000 0.26950  0.97477  0.15520  Biso   1.000  C
  H18      1.0000 0.33860  0.97540  0.15390  Biso   1.000  H
  C37      1.0000 0.06820  0.97341  0.15740  Biso   1.000  C
  H19      1.0000 0.99890  0.97330  0.15790  Biso   1.000  H
  C38      1.0000 0.13070  0.02260  0.21200  Biso   1.000  C
  H20      1.0000 0.10400  0.05540  0.25050  Biso   1.000  H
  C39      1.0000 0.23150  0.02419  0.21073  Biso   1.000  C
  C40      1.0000 0.30010  0.08083  0.26421  Biso   1.000  C
  C41      1.0000 0.55140  0.19303  0.47820  Biso   1.000  C
  C42      1.0000 0.72430  0.14253  0.48450  Biso   1.000  C
  H21      1.0000 0.70360  0.12320  0.42470  Biso   1.000  H
  C43      1.0000 0.65780  0.18236  0.52504  Biso   1.000  C
  C44      1.0000 0.82090  0.13091  0.53120  Biso   1.000  C
  H22      1.0000 0.86640  0.10430  0.50280  Biso   1.000  H
  C45      1.0000 0.68860  0.20885  0.61280  Biso   1.000  C
  H23      1.0000 0.64350  0.23630  0.64060  Biso   1.000  H
  C46      1.0000 0.85170  0.15783  0.61920  Biso   1.000  C
  H24      1.0000 0.91810  0.15040  0.65080  Biso   1.000  H
  C47      1.0000 0.78380  0.19608  0.66076  Biso   1.000  C
  C48      1.0000 0.81100  0.22306  0.75656  Biso   1.000  C
  Cd4      1.0000 0.84123  0.29047  0.92544  Biso   1.000  Cd
  O25      1.0000 0.69871  0.32130  0.00073  Biso   1.000  O
  O26      1.0000 0.84227  0.37914  0.03767  Biso   1.000  O
  O27      1.0000 0.99689  0.73507  0.51324  Biso   1.000  O
  O28      1.0000 0.01917  0.65527  0.40750  Biso   1.000  O
  O29      1.0000 0.88001  0.59049  0.23535  Biso   1.000  O
  O30      1.0000 0.77339  0.61252  0.32921  Biso   1.000  O
  O31      1.0000 0.40104  0.73726  0.79086  Biso   1.000  O
  O32      1.0000 0.24319  0.73101  0.80191  Biso   1.000  O
  C49      1.0000 0.75200  0.37126  0.04332  Biso   1.000  C
  C50      1.0000 0.70800  0.42442  0.10150  Biso   1.000  C
  C51      1.0000 0.60690  0.42445  0.10200  Biso   1.000  C
  H25      1.0000 0.56400  0.39100  0.06450  Biso   1.000  H
  C52      1.0000 0.76950  0.47477  0.15520  Biso   1.000  C
  H26      1.0000 0.83860  0.47540  0.15390  Biso   1.000  H
  C53      1.0000 0.56820  0.47341  0.15740  Biso   1.000  C
  H27      1.0000 0.49890  0.47330  0.15790  Biso   1.000  H
  C54      1.0000 0.63070  0.52260  0.21200  Biso   1.000  C
  H28      1.0000 0.60400  0.55540  0.25050  Biso   1.000  H
  C55      1.0000 0.73150  0.52419  0.21073  Biso   1.000  C
  C56      1.0000 0.80010  0.58083  0.26421  Biso   1.000  C
  C57      1.0000 0.05140  0.69303  0.47820  Biso   1.000  C
  C58      1.0000 0.22430  0.64253  0.48450  Biso   1.000  C
  H29      1.0000 0.20360  0.62320  0.42470  Biso   1.000  H
  C59      1.0000 0.15780  0.68236  0.52504  Biso   1.000  C
  C60      1.0000 0.32090  0.63091  0.53120  Biso   1.000  C
  H30      1.0000 0.36640  0.60430  0.50280  Biso   1.000  H
  C61      1.0000 0.18860  0.70885  0.61280  Biso   1.000  C
  H31      1.0000 0.14350  0.73630  0.64060  Biso   1.000  H
  C62      1.0000 0.35170  0.65783  0.61920  Biso   1.000  C
  H32      1.0000 0.41810  0.65040  0.65080  Biso   1.000  H
  C63      1.0000 0.28380  0.69608  0.66076  Biso   1.000  C
  C64      1.0000 0.31100  0.72306  0.75656  Biso   1.000  C
  Cd5      1.0000 0.34123  0.20953  0.42544  Biso   1.000  Cd
  O33      1.0000 0.19871  0.17870  0.50073  Biso   1.000  O
  O34      1.0000 0.34227  0.12086  0.53767  Biso   1.000  O
  O35      1.0000 0.49689  0.76493  0.01324  Biso   1.000  O
  O36      1.0000 0.51917  0.84473  0.90750  Biso   1.000  O
  O37      1.0000 0.38001  0.90951  0.73535  Biso   1.000  O
  O38      1.0000 0.27339  0.88748  0.82921  Biso   1.000  O
  O39      1.0000 0.90104  0.76274  0.29086  Biso   1.000  O
  O40      1.0000 0.74319  0.76899  0.30191  Biso   1.000  O
  C65      1.0000 0.25200  0.12874  0.54332  Biso   1.000  C
  C66      1.0000 0.20800  0.07558  0.60150  Biso   1.000  C
  C67      1.0000 0.10690  0.07555  0.60200  Biso   1.000  C
  H33      1.0000 0.06400  0.10900  0.56450  Biso   1.000  H
  C68      1.0000 0.26950  0.02523  0.65520  Biso   1.000  C
  H34      1.0000 0.33860  0.02460  0.65390  Biso   1.000  H
  C69      1.0000 0.06820  0.02659  0.65740  Biso   1.000  C
  H35      1.0000 0.99890  0.02670  0.65790  Biso   1.000  H
  C70      1.0000 0.13070  0.97740  0.71200  Biso   1.000  C
  H36      1.0000 0.10400  0.94460  0.75050  Biso   1.000  H
  C71      1.0000 0.23150  0.97581  0.71073  Biso   1.000  C
  C72      1.0000 0.30010  0.91917  0.76421  Biso   1.000  C
  C73      1.0000 0.55140  0.80697  0.97820  Biso   1.000  C
  C74      1.0000 0.72430  0.85747  0.98450  Biso   1.000  C
  H37      1.0000 0.70360  0.87680  0.92470  Biso   1.000  H
  C75      1.0000 0.65780  0.81764  0.02504  Biso   1.000  C
  C76      1.0000 0.82090  0.86909  0.03120  Biso   1.000  C
  H38      1.0000 0.86640  0.89570  0.00280  Biso   1.000  H
  C77      1.0000 0.68860  0.79115  0.11280  Biso   1.000  C
  H39      1.0000 0.64350  0.76370  0.14060  Biso   1.000  H
  C78      1.0000 0.85170  0.84217  0.11920  Biso   1.000  C
  H40      1.0000 0.91810  0.84960  0.15080  Biso   1.000  H
  C79      1.0000 0.78380  0.80392  0.16076  Biso   1.000  C
  C80      1.0000 0.81100  0.77694  0.25656  Biso   1.000  C
  Cd6      1.0000 0.84123  0.70953  0.42544  Biso   1.000  Cd
  O41      1.0000 0.69871  0.67870  0.50073  Biso   1.000  O
  O42      1.0000 0.84227  0.62086  0.53767  Biso   1.000  O
  O43      1.0000 0.99689  0.26493  0.01324  Biso   1.000  O
  O44      1.0000 0.01917  0.34473  0.90750  Biso   1.000  O
  O45      1.0000 0.88001  0.40951  0.73535  Biso   1.000  O
  O46      1.0000 0.77339  0.38748  0.82921  Biso   1.000  O
  O47      1.0000 0.40104  0.26274  0.29086  Biso   1.000  O
  O48      1.0000 0.24319  0.26899  0.30191  Biso   1.000  O
  C81      1.0000 0.75200  0.62874  0.54332  Biso   1.000  C
  C82      1.0000 0.70800  0.57558  0.60150  Biso   1.000  C
  C83      1.0000 0.60690  0.57555  0.60200  Biso   1.000  C
  H41      1.0000 0.56400  0.60900  0.56450  Biso   1.000  H
  C84      1.0000 0.76950  0.52523  0.65520  Biso   1.000  C
  H42      1.0000 0.83860  0.52460  0.65390  Biso   1.000  H
  C85      1.0000 0.56820  0.52659  0.65740  Biso   1.000  C
  H43      1.0000 0.49890  0.52670  0.65790  Biso   1.000  H
  C86      1.0000 0.63070  0.47740  0.71200  Biso   1.000  C
  H44      1.0000 0.60400  0.44460  0.75050  Biso   1.000  H
  C87      1.0000 0.73150  0.47581  0.71073  Biso   1.000  C
  C88      1.0000 0.80010  0.41917  0.76421  Biso   1.000  C
  C89      1.0000 0.05140  0.30697  0.97820  Biso   1.000  C
  C90      1.0000 0.22430  0.35747  0.98450  Biso   1.000  C
  H45      1.0000 0.20360  0.37680  0.92470  Biso   1.000  H
  C91      1.0000 0.15780  0.31764  0.02504  Biso   1.000  C
  C92      1.0000 0.32090  0.36909  0.03120  Biso   1.000  C
  H46      1.0000 0.36640  0.39570  0.00280  Biso   1.000  H
  C93      1.0000 0.18860  0.29115  0.11280  Biso   1.000  C
  H47      1.0000 0.14350  0.26370  0.14060  Biso   1.000  H
  C94      1.0000 0.35170  0.34217  0.11920  Biso   1.000  C
  H48      1.0000 0.41810  0.34960  0.15080  Biso   1.000  H
  C95      1.0000 0.28380  0.30392  0.16076  Biso   1.000  C
  C96      1.0000 0.31100  0.27694  0.25656  Biso   1.000  C
  Cd7      1.0000 0.65877  0.20953  0.07456  Biso   1.000  Cd
  O49      1.0000 0.80129  0.17870  0.99927  Biso   1.000  O
  O50      1.0000 0.65773  0.12086  0.96233  Biso   1.000  O
  O51      1.0000 0.50311  0.76493  0.48676  Biso   1.000  O
  O52      1.0000 0.48083  0.84473  0.59250  Biso   1.000  O
  O53      1.0000 0.61999  0.90951  0.76465  Biso   1.000  O
  O54      1.0000 0.72661  0.88748  0.67079  Biso   1.000  O
  O55      1.0000 0.09896  0.76274  0.20914  Biso   1.000  O
  O56      1.0000 0.25681  0.76899  0.19809  Biso   1.000  O
  C97      1.0000 0.74800  0.12874  0.95668  Biso   1.000  C
  C98      1.0000 0.79200  0.07558  0.89850  Biso   1.000  C
  C99      1.0000 0.89310  0.07555  0.89800  Biso   1.000  C
  H49      1.0000 0.93600  0.10900  0.93550  Biso   1.000  H
  C100     1.0000 0.73050  0.02523  0.84480  Biso   1.000  C
  H50      1.0000 0.66140  0.02460  0.84610  Biso   1.000  H
  C101     1.0000 0.93180  0.02659  0.84260  Biso   1.000  C
  H51      1.0000 0.00110  0.02670  0.84210  Biso   1.000  H
  C102     1.0000 0.86930  0.97740  0.78800  Biso   1.000  C
  H52      1.0000 0.89600  0.94460  0.74950  Biso   1.000  H
  C103     1.0000 0.76850  0.97581  0.78927  Biso   1.000  C
  C104     1.0000 0.69990  0.91917  0.73579  Biso   1.000  C
  C105     1.0000 0.44860  0.80697  0.52180  Biso   1.000  C
  C106     1.0000 0.27570  0.85747  0.51550  Biso   1.000  C
  H53      1.0000 0.29640  0.87680  0.57530  Biso   1.000  H
  C107     1.0000 0.34220  0.81764  0.47496  Biso   1.000  C
  C108     1.0000 0.17910  0.86909  0.46880  Biso   1.000  C
  H54      1.0000 0.13360  0.89570  0.49720  Biso   1.000  H
  C109     1.0000 0.31140  0.79115  0.38720  Biso   1.000  C
  H55      1.0000 0.35650  0.76370  0.35940  Biso   1.000  H
  C110     1.0000 0.14830  0.84217  0.38080  Biso   1.000  C
  H56      1.0000 0.08190  0.84960  0.34920  Biso   1.000  H
  C111     1.0000 0.21620  0.80392  0.33924  Biso   1.000  C
  C112     1.0000 0.18900  0.77694  0.24344  Biso   1.000  C
  Cd8      1.0000 0.15877  0.70953  0.07456  Biso   1.000  Cd
  O57      1.0000 0.30129  0.67870  0.99927  Biso   1.000  O
  O58      1.0000 0.15773  0.62086  0.96233  Biso   1.000  O
  O59      1.0000 0.00311  0.26493  0.48676  Biso   1.000  O
  O60      1.0000 0.98083  0.34473  0.59250  Biso   1.000  O
  O61      1.0000 0.11999  0.40951  0.76465  Biso   1.000  O
  O62      1.0000 0.22661  0.38748  0.67079  Biso   1.000  O
  O63      1.0000 0.59896  0.26274  0.20914  Biso   1.000  O
  O64      1.0000 0.75681  0.26899  0.19809  Biso   1.000  O
  C113     1.0000 0.24800  0.62874  0.95668  Biso   1.000  C
  C114     1.0000 0.29200  0.57558  0.89850  Biso   1.000  C
  C115     1.0000 0.39310  0.57555  0.89800  Biso   1.000  C
  H57      1.0000 0.43600  0.60900  0.93550  Biso   1.000  H
  C116     1.0000 0.23050  0.52523  0.84480  Biso   1.000  C
  H58      1.0000 0.16140  0.52460  0.84610  Biso   1.000  H
  C117     1.0000 0.43180  0.52659  0.84260  Biso   1.000  C
  H59      1.0000 0.50110  0.52670  0.84210  Biso   1.000  H
  C118     1.0000 0.36930  0.47740  0.78800  Biso   1.000  C
  H60      1.0000 0.39600  0.44460  0.74950  Biso   1.000  H
  C119     1.0000 0.26850  0.47581  0.78927  Biso   1.000  C
  C120     1.0000 0.19990  0.41917  0.73579  Biso   1.000  C
  C121     1.0000 0.94860  0.30697  0.52180  Biso   1.000  C
  C122     1.0000 0.77570  0.35747  0.51550  Biso   1.000  C
  H61      1.0000 0.79640  0.37680  0.57530  Biso   1.000  H
  C123     1.0000 0.84220  0.31764  0.47496  Biso   1.000  C
  C124     1.0000 0.67910  0.36909  0.46880  Biso   1.000  C
  H62      1.0000 0.63360  0.39570  0.49720  Biso   1.000  H
  C125     1.0000 0.81140  0.29115  0.38720  Biso   1.000  C
  H63      1.0000 0.85650  0.26370  0.35940  Biso   1.000  H
  C126     1.0000 0.64830  0.34217  0.38080  Biso   1.000  C
  H64      1.0000 0.58190  0.34960  0.34920  Biso   1.000  H
  C127     1.0000 0.71620  0.30392  0.33924  Biso   1.000  C
  C128     1.0000 0.68900  0.27694  0.24344  Biso   1.000  C
  Cd9      1.0000 0.50000  0.17252  0.25000  Biso   1.000  Cd
  Cd10     1.0000 0.00000  0.67252  0.25000  Biso   1.000  Cd
  Cd11     1.0000 0.50000  0.82748  0.75000  Biso   1.000  Cd
  Cd12     1.0000 0.00000  0.32748  0.75000  Biso   1.000  Cd
