data_FIJDUY_clean
_audit_creation_date              2014-07-02
_audit_creation_method            'Materials Studio'
_symmetry_space_group_name_H-M    'P1'
_symmetry_Int_Tables_number       1
_symmetry_cell_setting            triclinic
loop_
_symmetry_equiv_pos_as_xyz
  x,y,z
_cell_length_a                    10.6727
_cell_length_b                    10.6926
_cell_length_c                    15.7533
_cell_angle_alpha                 95.8650
_cell_angle_beta                  90.0000
_cell_angle_gamma                 90.0000
loop_
_atom_site_label
_atom_site_type_symbol
_atom_site_fract_x
_atom_site_fract_y
_atom_site_fract_z
_atom_site_U_iso_or_equiv
_atom_site_adp_type
_atom_site_occupancy
Tb1    Tb    0.03209   0.74935   0.98150   0.01267  Uiso   1.00
Tb2    Tb    0.53209   0.75065   0.51850   0.01267  Uiso   1.00
Tb3    Tb    0.96791   0.25065   0.01850   0.01267  Uiso   1.00
Tb4    Tb    0.46791   0.24935   0.48150   0.01267  Uiso   1.00
H1     H     0.80360   0.25390   0.80230   0.01267  Uiso   1.00
H2     H     0.65440   0.26270   0.68290   0.01267  Uiso   1.00
H3     H     0.30360   0.24610   0.69770   0.01267  Uiso   1.00
H4     H     0.15440   0.23730   0.81710   0.01267  Uiso   1.00
H5     H     0.19640   0.74610   0.19770   0.01267  Uiso   1.00
H6     H     0.34560   0.73730   0.31710   0.01267  Uiso   1.00
H7     H     0.69640   0.75390   0.30230   0.01267  Uiso   1.00
H8     H     0.84560   0.76270   0.18290   0.01267  Uiso   1.00
C1     C     0.92000   0.47590   0.87480   0.01267  Uiso   1.00
C2     C     0.82790   0.44490   0.80600   0.01267  Uiso   1.00
C3     C     0.78140   0.32900   0.77860   0.01267  Uiso   1.00
C4     C     0.69570   0.33450   0.71030   0.01267  Uiso   1.00
C5     C     0.67860   0.45260   0.68810   0.01267  Uiso   1.00
C6     C     0.59550   0.49310   0.62110   0.01267  Uiso   1.00
C7     C     0.42000   0.02410   0.62520   0.01267  Uiso   1.00
C8     C     0.32790   0.05510   0.69400   0.01267  Uiso   1.00
C9     C     0.28140   0.17100   0.72140   0.01267  Uiso   1.00
C10    C     0.19570   0.16550   0.78970   0.01267  Uiso   1.00
C11    C     0.17860   0.04740   0.81190   0.01267  Uiso   1.00
C12    C     0.09550   0.00690   0.87890   0.01267  Uiso   1.00
C13    C     0.08000   0.52410   0.12520   0.01267  Uiso   1.00
C14    C     0.17210   0.55510   0.19400   0.01267  Uiso   1.00
C15    C     0.21860   0.67100   0.22140   0.01267  Uiso   1.00
C16    C     0.30430   0.66550   0.28970   0.01267  Uiso   1.00
C17    C     0.32140   0.54740   0.31190   0.01267  Uiso   1.00
C18    C     0.40450   0.50690   0.37890   0.01267  Uiso   1.00
C19    C     0.58000   0.97590   0.37480   0.01267  Uiso   1.00
C20    C     0.67210   0.94490   0.30600   0.01267  Uiso   1.00
C21    C     0.71860   0.82900   0.27860   0.01267  Uiso   1.00
C22    C     0.80430   0.83450   0.21030   0.01267  Uiso   1.00
C23    C     0.82140   0.95260   0.18810   0.01267  Uiso   1.00
C24    C     0.90450   0.99310   0.12110   0.01267  Uiso   1.00
S1     S     0.76745   0.55975   0.74985   0.01267  Uiso   1.00
S2     S     0.26745   0.94025   0.75015   0.01267  Uiso   1.00
S3     S     0.23255   0.44025   0.25015   0.01267  Uiso   1.00
S4     S     0.73255   0.05975   0.24985   0.01267  Uiso   1.00
N1     N     0.76040   0.75080   0.96280   0.01267  Uiso   1.00
N2     N     0.26040   0.74920   0.53720   0.01267  Uiso   1.00
N3     N     0.23960   0.24920   0.03720   0.01267  Uiso   1.00
N4     N     0.73960   0.25080   0.46280   0.01267  Uiso   1.00
O1     O     0.96290   0.58590   0.88320   0.01267  Uiso   1.00
O2     O     0.53420   0.40990   0.57690   0.01267  Uiso   1.00
O3     O     0.81230   0.68910   0.01790   0.01267  Uiso   1.00
O4     O     0.83080   0.81520   0.92070   0.01267  Uiso   1.00
O5     O     0.64590   0.74700   0.95160   0.01267  Uiso   1.00
O6     O     0.94980   0.39030   0.92020   0.01267  Uiso   1.00
O7     O     0.59140   0.60860   0.61260   0.01267  Uiso   1.00
O8     O     0.46290   0.91410   0.61680   0.01267  Uiso   1.00
O9     O     0.03420   0.09010   0.92310   0.01267  Uiso   1.00
O10    O     0.31230   0.81090   0.48210   0.01267  Uiso   1.00
O11    O     0.33080   0.68480   0.57930   0.01267  Uiso   1.00
O12    O     0.14590   0.75300   0.54840   0.01267  Uiso   1.00
O13    O     0.44980   0.10970   0.57980   0.01267  Uiso   1.00
O14    O     0.09140   0.89140   0.88740   0.01267  Uiso   1.00
O15    O     0.03710   0.41410   0.11680   0.01267  Uiso   1.00
O16    O     0.46580   0.59010   0.42310   0.01267  Uiso   1.00
O17    O     0.18770   0.31090   0.98210   0.01267  Uiso   1.00
O18    O     0.16920   0.18480   0.07930   0.01267  Uiso   1.00
O19    O     0.35410   0.25300   0.04840   0.01267  Uiso   1.00
O20    O     0.05020   0.60970   0.07980   0.01267  Uiso   1.00
O21    O     0.40860   0.39140   0.38740   0.01267  Uiso   1.00
O22    O     0.53710   0.08590   0.38320   0.01267  Uiso   1.00
O23    O     0.96580   0.90990   0.07690   0.01267  Uiso   1.00
O24    O     0.68770   0.18910   0.51790   0.01267  Uiso   1.00
O25    O     0.66920   0.31520   0.42070   0.01267  Uiso   1.00
O26    O     0.85410   0.24700   0.45160   0.01267  Uiso   1.00
O27    O     0.55020   0.89030   0.42020   0.01267  Uiso   1.00
O28    O     0.90860   0.10860   0.11260   0.01267  Uiso   1.00
