data_FIJFUA_clean
_audit_creation_date              2014-07-02
_audit_creation_method            'Materials Studio'
_symmetry_space_group_name_H-M    'P1'
_symmetry_Int_Tables_number       1
_symmetry_cell_setting            triclinic
loop_
_symmetry_equiv_pos_as_xyz
  x,y,z
_cell_length_a                    9.8294
_cell_length_b                    12.1098
_cell_length_c                    14.6279
_cell_angle_alpha                 109.7500
_cell_angle_beta                  103.6130
_cell_angle_gamma                 100.1400
loop_
_atom_site_label
_atom_site_type_symbol
_atom_site_fract_x
_atom_site_fract_y
_atom_site_fract_z
_atom_site_U_iso_or_equiv
_atom_site_adp_type
_atom_site_occupancy
Tb1    Tb    0.23970   0.97874   0.00469   0.01267  Uiso   1.00
Tb2    Tb    0.76030   0.02126   0.99531   0.01267  Uiso   1.00
H1     H     0.56520   0.87200   0.71980   0.01267  Uiso   1.00
H2     H     0.20390   0.63980   0.70920   0.01267  Uiso   1.00
H3     H     0.08430   0.43970   0.55780   0.01267  Uiso   1.00
H4     H     0.06260   0.31580   0.39550   0.01267  Uiso   1.00
H5     H     0.15770   0.26600   0.24600   0.01267  Uiso   1.00
H6     H     0.50670   0.50580   0.25170   0.01267  Uiso   1.00
H7     H     0.62810   0.70390   0.40390   0.01267  Uiso   1.00
H8     H     0.64670   0.83100   0.56490   0.01267  Uiso   1.00
H9     H     0.12630   0.92510   0.73800   0.01267  Uiso   1.00
H10    H     0.79090   0.07330   0.69670   0.01267  Uiso   1.00
H11    H     0.24530   0.86600   0.60270   0.01267  Uiso   1.00
H12    H     0.71480   0.12320   0.54220   0.01267  Uiso   1.00
H13    H     0.43480   0.12800   0.28020   0.01267  Uiso   1.00
H14    H     0.79610   0.36020   0.29080   0.01267  Uiso   1.00
H15    H     0.91570   0.56030   0.44220   0.01267  Uiso   1.00
H16    H     0.93740   0.68420   0.60450   0.01267  Uiso   1.00
H17    H     0.84230   0.73400   0.75400   0.01267  Uiso   1.00
H18    H     0.49330   0.49420   0.74830   0.01267  Uiso   1.00
H19    H     0.37190   0.29610   0.59610   0.01267  Uiso   1.00
H20    H     0.35330   0.16900   0.43510   0.01267  Uiso   1.00
H21    H     0.87370   0.07490   0.26200   0.01267  Uiso   1.00
H22    H     0.20910   0.92670   0.30330   0.01267  Uiso   1.00
H23    H     0.75470   0.13400   0.39730   0.01267  Uiso   1.00
H24    H     0.28520   0.87680   0.45780   0.01267  Uiso   1.00
C1     C     0.48670   0.79950   0.68320   0.01267  Uiso   1.00
C2     C     0.38620   0.76770   0.72970   0.01267  Uiso   1.00
C3     C     0.27310   0.65960   0.67740   0.01267  Uiso   1.00
C4     C     0.14990   0.46430   0.52530   0.01267  Uiso   1.00
C5     C     0.13840   0.39030   0.42960   0.01267  Uiso   1.00
C6     C     0.23090   0.34210   0.28040   0.01267  Uiso   1.00
C7     C     0.32950   0.37370   0.23370   0.01267  Uiso   1.00
C8     C     0.43880   0.48510   0.28400   0.01267  Uiso   1.00
C9     C     0.56070   0.68080   0.43570   0.01267  Uiso   1.00
C10    C     0.57180   0.75590   0.53100   0.01267  Uiso   1.00
C11    C     0.47210   0.72440   0.58250   0.01267  Uiso   1.00
C12    C     0.35940   0.61280   0.53030   0.01267  Uiso   1.00
C13    C     0.26020   0.58030   0.57940   0.01267  Uiso   1.00
C14    C     0.23730   0.42050   0.37760   0.01267  Uiso   1.00
C15    C     0.34770   0.53470   0.42940   0.01267  Uiso   1.00
C16    C     0.44890   0.56650   0.38150   0.01267  Uiso   1.00
C17    C     0.39930   0.85360   0.83540   0.01267  Uiso   1.00
C18    C     0.32800   0.28650   0.13030   0.01267  Uiso   1.00
C19    C     0.95620   0.99950   0.73200   0.01267  Uiso   1.00
C20    C     0.06390   0.95480   0.69790   0.01267  Uiso   1.00
C21    C     0.08180   0.95290   0.60580   0.01267  Uiso   1.00
C22    C     0.99080   0.99960   0.54730   0.01267  Uiso   1.00
C23    C     0.88130   0.04560   0.58140   0.01267  Uiso   1.00
C24    C     0.86520   0.04380   0.67360   0.01267  Uiso   1.00
C25    C     0.93600   0.99950   0.83060   0.01267  Uiso   1.00
C26    C     0.18820   0.90280   0.56640   0.01267  Uiso   1.00
C27    C     0.79030   0.09380   0.52080   0.01267  Uiso   1.00
C28    C     0.51330   0.20050   0.31680   0.01267  Uiso   1.00
C29    C     0.61380   0.23230   0.27030   0.01267  Uiso   1.00
C30    C     0.72690   0.34040   0.32260   0.01267  Uiso   1.00
C31    C     0.85010   0.53570   0.47470   0.01267  Uiso   1.00
C32    C     0.86160   0.60970   0.57040   0.01267  Uiso   1.00
C33    C     0.76910   0.65790   0.71960   0.01267  Uiso   1.00
C34    C     0.67050   0.62630   0.76630   0.01267  Uiso   1.00
C35    C     0.56120   0.51490   0.71600   0.01267  Uiso   1.00
C36    C     0.43930   0.31920   0.56430   0.01267  Uiso   1.00
C37    C     0.42820   0.24410   0.46900   0.01267  Uiso   1.00
C38    C     0.52790   0.27560   0.41750   0.01267  Uiso   1.00
C39    C     0.64060   0.38720   0.46970   0.01267  Uiso   1.00
C40    C     0.73980   0.41970   0.42060   0.01267  Uiso   1.00
C41    C     0.76270   0.57950   0.62240   0.01267  Uiso   1.00
C42    C     0.65230   0.46530   0.57060   0.01267  Uiso   1.00
C43    C     0.55110   0.43350   0.61850   0.01267  Uiso   1.00
C44    C     0.60070   0.14640   0.16460   0.01267  Uiso   1.00
C45    C     0.67200   0.71350   0.86970   0.01267  Uiso   1.00
C46    C     0.04380   0.00050   0.26800   0.01267  Uiso   1.00
C47    C     0.93610   0.04520   0.30210   0.01267  Uiso   1.00
C48    C     0.91820   0.04710   0.39420   0.01267  Uiso   1.00
C49    C     0.00920   0.00040   0.45270   0.01267  Uiso   1.00
C50    C     0.11870   0.95440   0.41860   0.01267  Uiso   1.00
C51    C     0.13480   0.95620   0.32640   0.01267  Uiso   1.00
C52    C     0.06400   0.00050   0.16940   0.01267  Uiso   1.00
C53    C     0.81180   0.09720   0.43360   0.01267  Uiso   1.00
C54    C     0.20970   0.90620   0.47920   0.01267  Uiso   1.00
O1     O     0.28760   0.84600   0.86310   0.01267  Uiso   1.00
O2     O     0.52020   0.93160   0.88920   0.01267  Uiso   1.00
O3     O     0.23060   0.18210   0.09010   0.01267  Uiso   1.00
O4     O     0.41640   0.31840   0.08950   0.01267  Uiso   1.00
O5     O     0.03560   0.98380   0.89250   0.01267  Uiso   1.00
O6     O     0.81800   0.01520   0.84550   0.01267  Uiso   1.00
O7     O     0.71240   0.15400   0.13690   0.01267  Uiso   1.00
O8     O     0.47980   0.06840   0.11080   0.01267  Uiso   1.00
O9     O     0.76940   0.81790   0.90990   0.01267  Uiso   1.00
O10    O     0.58360   0.68160   0.91050   0.01267  Uiso   1.00
O11    O     0.96440   0.01620   0.10750   0.01267  Uiso   1.00
O12    O     0.18200   0.98480   0.15450   0.01267  Uiso   1.00
