data_image0
_cell_length_a       21.6971
_cell_length_b       19.7886
_cell_length_c       17.5075
_cell_angle_alpha    90
_cell_angle_beta     98.12
_cell_angle_gamma    90

_symmetry_space_group_name_H-M    "P 1"
_symmetry_int_tables_number       1

loop_
  _symmetry_equiv_pos_as_xyz
  'x, y, z'

loop_
  _atom_site_label
  _atom_site_occupancy
  _atom_site_fract_x
  _atom_site_fract_y
  _atom_site_fract_z
  _atom_site_thermal_displace_type
  _atom_site_B_iso_or_equiv
  _atom_site_type_symbol
  Cu1      1.0000 0.33270  0.00150  0.99860  Biso   1.000  Cu
  Cu2      1.0000 0.34190  0.25200  0.99040  Biso   1.000  Cu
  Cu3      1.0000 0.34800  0.36940  0.73610  Biso   1.000  Cu
  Cu4      1.0000 0.32250  0.37760  0.23490  Biso   1.000  Cu
  Cu5      1.0000 0.32340  0.75210  0.98260  Biso   1.000  Cu
  Cu6      1.0000 0.44430  0.00020  0.11160  Biso   1.000  Cu
  Cu7      1.0000 0.43480  0.36830  0.62460  Biso   1.000  Cu
  N1       1.0000 0.42520  0.93150  0.19260  Biso   1.000  N
  N2       1.0000 0.42190  0.06510  0.19350  Biso   1.000  N
  N3       1.0000 0.46240  0.32000  0.52910  Biso   1.000  N
  N4       1.0000 0.42060  0.44410  0.54720  Biso   1.000  N
  C1       1.0000 0.32630  0.84920  0.99210  Biso   1.000  C
  N5       1.0000 0.32890  0.90840  0.99550  Biso   1.000  N
  C2       1.0000 0.33620  0.09510  0.99880  Biso   1.000  C
  N6       1.0000 0.33870  0.15340  0.99710  Biso   1.000  N
  C3       1.0000 0.33500  0.29590  0.08700  Biso   1.000  C
  N7       1.0000 0.34720  0.29450  0.89310  Biso   1.000  N
  C4       1.0000 0.34920  0.32020  0.83330  Biso   1.000  C
  N8       1.0000 0.33570  0.68110  0.13950  Biso   1.000  N
  C5       1.0000 0.34040  0.46740  0.74280  Biso   1.000  C
  N9       1.0000 0.33410  0.52480  0.74280  Biso   1.000  N
  N10      1.0000 0.32850  0.32530  0.14200  Biso   1.000  N
  N11      1.0000 0.32090  0.67250  0.83080  Biso   1.000  N
  C6       1.0000 0.32080  0.70310  0.88790  Biso   1.000  C
  C7       1.0000 0.32690  0.71020  0.08280  Biso   1.000  C
  C8       1.0000 0.48590  0.00020  0.02590  Biso   1.000  C
  N12      1.0000 0.48240  0.36190  0.72170  Biso   1.000  N
  C9       1.0000 0.41700  0.13280  0.18890  Biso   1.000  C
  C10      1.0000 0.40540  0.17260  0.25050  Biso   1.000  C
  C11      1.0000 0.39800  0.14260  0.31970  Biso   1.000  C
  C12      1.0000 0.40260  0.07230  0.32530  Biso   1.000  C
  C13      1.0000 0.41430  0.03450  0.26090  Biso   1.000  C
  C14      1.0000 0.41740  0.95950  0.26050  Biso   1.000  C
  C15      1.0000 0.41070  0.92010  0.32500  Biso   1.000  C
  C16      1.0000 0.41220  0.85030  0.31860  Biso   1.000  C
  C17      1.0000 0.41970  0.82130  0.24790  Biso   1.000  C
  C18      1.0000 0.42570  0.86360  0.18640  Biso   1.000  C
  C19      1.0000 0.48420  0.25710  0.52430  Biso   1.000  C
  C20      1.0000 0.50490  0.23090  0.45910  Biso   1.000  C
  C21      1.0000 0.50350  0.27310  0.39600  Biso   1.000  C
  C22      1.0000 0.48200  0.34000  0.39940  Biso   1.000  C
  C23      1.0000 0.46130  0.36140  0.46710  Biso   1.000  C
  C24      1.0000 0.43790  0.43010  0.47720  Biso   1.000  C
  C25      1.0000 0.43450  0.47850  0.41870  Biso   1.000  C
  C26      1.0000 0.41450  0.54240  0.43280  Biso   1.000  C
  C27      1.0000 0.39710  0.55780  0.50480  Biso   1.000  C
  C28      1.0000 0.40040  0.50780  0.55980  Biso   1.000  C
  H1       1.0000 0.42160  0.15380  0.14250  Biso   1.000  H
  H2       1.0000 0.40250  0.21930  0.24510  Biso   1.000  H
  H3       1.0000 0.39020  0.16860  0.36160  Biso   1.000  H
  H4       1.0000 0.39780  0.05070  0.37130  Biso   1.000  H
  H5       1.0000 0.40520  0.94040  0.37150  Biso   1.000  H
  H6       1.0000 0.40830  0.82310  0.36100  Biso   1.000  H
  H7       1.0000 0.42080  0.77460  0.24220  Biso   1.000  H
  H8       1.0000 0.43010  0.84450  0.13900  Biso   1.000  H
  H9       1.0000 0.48560  0.22930  0.56740  Biso   1.000  H
  H10      1.0000 0.51910  0.18660  0.45780  Biso   1.000  H
  H11      1.0000 0.51690  0.25720  0.35110  Biso   1.000  H
  H12      1.0000 0.48160  0.36910  0.35770  Biso   1.000  H
  H13      1.0000 0.44570  0.46750  0.37090  Biso   1.000  H
  H14      1.0000 0.41250  0.57540  0.39470  Biso   1.000  H
  H15      1.0000 0.38350  0.60100  0.51530  Biso   1.000  H
  H16      1.0000 0.38850  0.51780  0.60750  Biso   1.000  H
  Cu8      1.0000 0.66730  0.00150  0.50140  Biso   1.000  Cu
  Cu9      1.0000 0.65810  0.25200  0.50960  Biso   1.000  Cu
  Cu10     1.0000 0.65200  0.36940  0.76390  Biso   1.000  Cu
  Cu11     1.0000 0.67750  0.37760  0.26510  Biso   1.000  Cu
  Cu12     1.0000 0.67660  0.75210  0.51740  Biso   1.000  Cu
  Cu13     1.0000 0.55570  0.00020  0.38840  Biso   1.000  Cu
  Cu14     1.0000 0.56520  0.36830  0.87540  Biso   1.000  Cu
  N13      1.0000 0.57480  0.93150  0.30740  Biso   1.000  N
  N14      1.0000 0.57810  0.06510  0.30650  Biso   1.000  N
  N15      1.0000 0.53760  0.32000  0.97090  Biso   1.000  N
  N16      1.0000 0.57940  0.44410  0.95280  Biso   1.000  N
  C29      1.0000 0.67370  0.84920  0.50790  Biso   1.000  C
  N17      1.0000 0.67110  0.90840  0.50450  Biso   1.000  N
  C30      1.0000 0.66380  0.09510  0.50120  Biso   1.000  C
  N18      1.0000 0.66130  0.15340  0.50290  Biso   1.000  N
  C31      1.0000 0.66500  0.29590  0.41300  Biso   1.000  C
  N19      1.0000 0.65280  0.29450  0.60690  Biso   1.000  N
  C32      1.0000 0.65080  0.32020  0.66670  Biso   1.000  C
  N20      1.0000 0.66430  0.68110  0.36050  Biso   1.000  N
  C33      1.0000 0.65960  0.46740  0.75720  Biso   1.000  C
  N21      1.0000 0.66590  0.52480  0.75720  Biso   1.000  N
  N22      1.0000 0.67150  0.32530  0.35800  Biso   1.000  N
  N23      1.0000 0.67910  0.67250  0.66920  Biso   1.000  N
  C34      1.0000 0.67920  0.70310  0.61210  Biso   1.000  C
  C35      1.0000 0.67310  0.71020  0.41720  Biso   1.000  C
  C36      1.0000 0.51410  0.00020  0.47410  Biso   1.000  C
  N24      1.0000 0.51760  0.36190  0.77830  Biso   1.000  N
  C37      1.0000 0.58300  0.13280  0.31110  Biso   1.000  C
  C38      1.0000 0.59460  0.17260  0.24950  Biso   1.000  C
  C39      1.0000 0.60200  0.14260  0.18030  Biso   1.000  C
  C40      1.0000 0.59740  0.07230  0.17470  Biso   1.000  C
  C41      1.0000 0.58570  0.03450  0.23910  Biso   1.000  C
  C42      1.0000 0.58260  0.95950  0.23950  Biso   1.000  C
  C43      1.0000 0.58930  0.92010  0.17500  Biso   1.000  C
  C44      1.0000 0.58780  0.85030  0.18140  Biso   1.000  C
  C45      1.0000 0.58030  0.82130  0.25210  Biso   1.000  C
  C46      1.0000 0.57430  0.86360  0.31360  Biso   1.000  C
  C47      1.0000 0.51580  0.25710  0.97570  Biso   1.000  C
  C48      1.0000 0.49510  0.23090  0.04090  Biso   1.000  C
  C49      1.0000 0.49650  0.27310  0.10400  Biso   1.000  C
  C50      1.0000 0.51800  0.34000  0.10060  Biso   1.000  C
  C51      1.0000 0.53870  0.36140  0.03290  Biso   1.000  C
  C52      1.0000 0.56210  0.43010  0.02280  Biso   1.000  C
  C53      1.0000 0.56550  0.47850  0.08130  Biso   1.000  C
  C54      1.0000 0.58550  0.54240  0.06720  Biso   1.000  C
  C55      1.0000 0.60290  0.55780  0.99520  Biso   1.000  C
  C56      1.0000 0.59960  0.50780  0.94020  Biso   1.000  C
  H17      1.0000 0.57840  0.15380  0.35750  Biso   1.000  H
  H18      1.0000 0.59750  0.21930  0.25490  Biso   1.000  H
  H19      1.0000 0.60980  0.16860  0.13840  Biso   1.000  H
  H20      1.0000 0.60220  0.05070  0.12870  Biso   1.000  H
  H21      1.0000 0.59480  0.94040  0.12850  Biso   1.000  H
  H22      1.0000 0.59170  0.82310  0.13900  Biso   1.000  H
  H23      1.0000 0.57920  0.77460  0.25780  Biso   1.000  H
  H24      1.0000 0.56990  0.84450  0.36100  Biso   1.000  H
  H25      1.0000 0.51440  0.22930  0.93260  Biso   1.000  H
  H26      1.0000 0.48090  0.18660  0.04220  Biso   1.000  H
  H27      1.0000 0.48310  0.25720  0.14890  Biso   1.000  H
  H28      1.0000 0.51840  0.36910  0.14230  Biso   1.000  H
  H29      1.0000 0.55430  0.46750  0.12910  Biso   1.000  H
  H30      1.0000 0.58750  0.57540  0.10530  Biso   1.000  H
  H31      1.0000 0.61650  0.60100  0.98470  Biso   1.000  H
  H32      1.0000 0.61150  0.51780  0.89250  Biso   1.000  H
  Cu15     1.0000 0.66730  0.99850  0.00140  Biso   1.000  Cu
  Cu16     1.0000 0.65810  0.74800  0.00960  Biso   1.000  Cu
  Cu17     1.0000 0.65200  0.63060  0.26390  Biso   1.000  Cu
  Cu18     1.0000 0.67750  0.62240  0.76510  Biso   1.000  Cu
  Cu19     1.0000 0.67660  0.24790  0.01740  Biso   1.000  Cu
  Cu20     1.0000 0.55570  0.99980  0.88840  Biso   1.000  Cu
  Cu21     1.0000 0.56520  0.63170  0.37540  Biso   1.000  Cu
  N25      1.0000 0.57480  0.06850  0.80740  Biso   1.000  N
  N26      1.0000 0.57810  0.93490  0.80650  Biso   1.000  N
  N27      1.0000 0.53760  0.68000  0.47090  Biso   1.000  N
  N28      1.0000 0.57940  0.55590  0.45280  Biso   1.000  N
  C57      1.0000 0.67370  0.15080  0.00790  Biso   1.000  C
  N29      1.0000 0.67110  0.09160  0.00450  Biso   1.000  N
  C58      1.0000 0.66380  0.90490  0.00120  Biso   1.000  C
  N30      1.0000 0.66130  0.84660  0.00290  Biso   1.000  N
  C59      1.0000 0.66500  0.70410  0.91300  Biso   1.000  C
  N31      1.0000 0.65280  0.70550  0.10690  Biso   1.000  N
  C60      1.0000 0.65080  0.67980  0.16670  Biso   1.000  C
  N32      1.0000 0.66430  0.31890  0.86050  Biso   1.000  N
  C61      1.0000 0.65960  0.53260  0.25720  Biso   1.000  C
  N33      1.0000 0.66590  0.47520  0.25720  Biso   1.000  N
  N34      1.0000 0.67150  0.67470  0.85800  Biso   1.000  N
  N35      1.0000 0.67910  0.32750  0.16920  Biso   1.000  N
  C62      1.0000 0.67920  0.29690  0.11210  Biso   1.000  C
  C63      1.0000 0.67310  0.28980  0.91720  Biso   1.000  C
  C64      1.0000 0.51410  0.99980  0.97410  Biso   1.000  C
  N36      1.0000 0.51760  0.63810  0.27830  Biso   1.000  N
  C65      1.0000 0.58300  0.86720  0.81110  Biso   1.000  C
  C66      1.0000 0.59460  0.82740  0.74950  Biso   1.000  C
  C67      1.0000 0.60200  0.85740  0.68030  Biso   1.000  C
  C68      1.0000 0.59740  0.92770  0.67470  Biso   1.000  C
  C69      1.0000 0.58570  0.96550  0.73910  Biso   1.000  C
  C70      1.0000 0.58260  0.04050  0.73950  Biso   1.000  C
  C71      1.0000 0.58930  0.07990  0.67500  Biso   1.000  C
  C72      1.0000 0.58780  0.14970  0.68140  Biso   1.000  C
  C73      1.0000 0.58030  0.17870  0.75210  Biso   1.000  C
  C74      1.0000 0.57430  0.13640  0.81360  Biso   1.000  C
  C75      1.0000 0.51580  0.74290  0.47570  Biso   1.000  C
  C76      1.0000 0.49510  0.76910  0.54090  Biso   1.000  C
  C77      1.0000 0.49650  0.72690  0.60400  Biso   1.000  C
  C78      1.0000 0.51800  0.66000  0.60060  Biso   1.000  C
  C79      1.0000 0.53870  0.63860  0.53290  Biso   1.000  C
  C80      1.0000 0.56210  0.56990  0.52280  Biso   1.000  C
  C81      1.0000 0.56550  0.52150  0.58130  Biso   1.000  C
  C82      1.0000 0.58550  0.45760  0.56720  Biso   1.000  C
  C83      1.0000 0.60290  0.44220  0.49520  Biso   1.000  C
  C84      1.0000 0.59960  0.49220  0.44020  Biso   1.000  C
  H33      1.0000 0.57840  0.84620  0.85750  Biso   1.000  H
  H34      1.0000 0.59750  0.78070  0.75490  Biso   1.000  H
  H35      1.0000 0.60980  0.83140  0.63840  Biso   1.000  H
  H36      1.0000 0.60220  0.94930  0.62870  Biso   1.000  H
  H37      1.0000 0.59480  0.05960  0.62850  Biso   1.000  H
  H38      1.0000 0.59170  0.17690  0.63900  Biso   1.000  H
  H39      1.0000 0.57920  0.22540  0.75780  Biso   1.000  H
  H40      1.0000 0.56990  0.15550  0.86100  Biso   1.000  H
  H41      1.0000 0.51440  0.77070  0.43260  Biso   1.000  H
  H42      1.0000 0.48090  0.81340  0.54220  Biso   1.000  H
  H43      1.0000 0.48310  0.74280  0.64890  Biso   1.000  H
  H44      1.0000 0.51840  0.63090  0.64230  Biso   1.000  H
  H45      1.0000 0.55430  0.53250  0.62910  Biso   1.000  H
  H46      1.0000 0.58750  0.42460  0.60530  Biso   1.000  H
  H47      1.0000 0.61650  0.39900  0.48470  Biso   1.000  H
  H48      1.0000 0.61150  0.48220  0.39250  Biso   1.000  H
  Cu22     1.0000 0.33270  0.99850  0.49860  Biso   1.000  Cu
  Cu23     1.0000 0.34190  0.74800  0.49040  Biso   1.000  Cu
  Cu24     1.0000 0.34800  0.63060  0.23610  Biso   1.000  Cu
  Cu25     1.0000 0.32250  0.62240  0.73490  Biso   1.000  Cu
  Cu26     1.0000 0.32340  0.24790  0.48260  Biso   1.000  Cu
  Cu27     1.0000 0.44430  0.99980  0.61160  Biso   1.000  Cu
  Cu28     1.0000 0.43480  0.63170  0.12460  Biso   1.000  Cu
  N37      1.0000 0.42520  0.06850  0.69260  Biso   1.000  N
  N38      1.0000 0.42190  0.93490  0.69350  Biso   1.000  N
  N39      1.0000 0.46240  0.68000  0.02910  Biso   1.000  N
  N40      1.0000 0.42060  0.55590  0.04720  Biso   1.000  N
  C85      1.0000 0.32630  0.15080  0.49210  Biso   1.000  C
  N41      1.0000 0.32890  0.09160  0.49550  Biso   1.000  N
  C86      1.0000 0.33620  0.90490  0.49880  Biso   1.000  C
  N42      1.0000 0.33870  0.84660  0.49710  Biso   1.000  N
  C87      1.0000 0.33500  0.70410  0.58700  Biso   1.000  C
  N43      1.0000 0.34720  0.70550  0.39310  Biso   1.000  N
  C88      1.0000 0.34920  0.67980  0.33330  Biso   1.000  C
  N44      1.0000 0.33570  0.31890  0.63950  Biso   1.000  N
  C89      1.0000 0.34040  0.53260  0.24280  Biso   1.000  C
  N45      1.0000 0.33410  0.47520  0.24280  Biso   1.000  N
  N46      1.0000 0.32850  0.67470  0.64200  Biso   1.000  N
  N47      1.0000 0.32090  0.32750  0.33080  Biso   1.000  N
  C90      1.0000 0.32080  0.29690  0.38790  Biso   1.000  C
  C91      1.0000 0.32690  0.28980  0.58280  Biso   1.000  C
  C92      1.0000 0.48590  0.99980  0.52590  Biso   1.000  C
  N48      1.0000 0.48240  0.63810  0.22170  Biso   1.000  N
  C93      1.0000 0.41700  0.86720  0.68890  Biso   1.000  C
  C94      1.0000 0.40540  0.82740  0.75050  Biso   1.000  C
  C95      1.0000 0.39800  0.85740  0.81970  Biso   1.000  C
  C96      1.0000 0.40260  0.92770  0.82530  Biso   1.000  C
  C97      1.0000 0.41430  0.96550  0.76090  Biso   1.000  C
  C98      1.0000 0.41740  0.04050  0.76050  Biso   1.000  C
  C99      1.0000 0.41070  0.07990  0.82500  Biso   1.000  C
  C100     1.0000 0.41220  0.14970  0.81860  Biso   1.000  C
  C101     1.0000 0.41970  0.17870  0.74790  Biso   1.000  C
  C102     1.0000 0.42570  0.13640  0.68640  Biso   1.000  C
  C103     1.0000 0.48420  0.74290  0.02430  Biso   1.000  C
  C104     1.0000 0.50490  0.76910  0.95910  Biso   1.000  C
  C105     1.0000 0.50350  0.72690  0.89600  Biso   1.000  C
  C106     1.0000 0.48200  0.66000  0.89940  Biso   1.000  C
  C107     1.0000 0.46130  0.63860  0.96710  Biso   1.000  C
  C108     1.0000 0.43790  0.56990  0.97720  Biso   1.000  C
  C109     1.0000 0.43450  0.52150  0.91870  Biso   1.000  C
  C110     1.0000 0.41450  0.45760  0.93280  Biso   1.000  C
  C111     1.0000 0.39710  0.44220  0.00480  Biso   1.000  C
  C112     1.0000 0.40040  0.49220  0.05980  Biso   1.000  C
  H49      1.0000 0.42160  0.84620  0.64250  Biso   1.000  H
  H50      1.0000 0.40250  0.78070  0.74510  Biso   1.000  H
  H51      1.0000 0.39020  0.83140  0.86160  Biso   1.000  H
  H52      1.0000 0.39780  0.94930  0.87130  Biso   1.000  H
  H53      1.0000 0.40520  0.05960  0.87150  Biso   1.000  H
  H54      1.0000 0.40830  0.17690  0.86100  Biso   1.000  H
  H55      1.0000 0.42080  0.22540  0.74220  Biso   1.000  H
  H56      1.0000 0.43010  0.15550  0.63900  Biso   1.000  H
  H57      1.0000 0.48560  0.77070  0.06740  Biso   1.000  H
  H58      1.0000 0.51910  0.81340  0.95780  Biso   1.000  H
  H59      1.0000 0.51690  0.74280  0.85110  Biso   1.000  H
  H60      1.0000 0.48160  0.63090  0.85770  Biso   1.000  H
  H61      1.0000 0.44570  0.53250  0.87090  Biso   1.000  H
  H62      1.0000 0.41250  0.42460  0.89470  Biso   1.000  H
  H63      1.0000 0.38350  0.39900  0.01530  Biso   1.000  H
  H64      1.0000 0.38850  0.48220  0.10750  Biso   1.000  H
  Cu29     1.0000 0.00870  0.24990  0.00460  Biso   1.000  Cu
  Cu30     1.0000 0.11350  0.01470  0.10990  Biso   1.000  Cu
  Cu31     1.0000 0.22010  0.98430  0.88490  Biso   1.000  Cu
  N49      1.0000 0.09140  0.94490  0.18890  Biso   1.000  N
  N50      1.0000 0.09270  0.07850  0.19320  Biso   1.000  N
  N51      1.0000 0.24500  0.05260  0.80710  Biso   1.000  N
  N52      1.0000 0.23790  0.91950  0.80050  Biso   1.000  N
  N53      1.0000 0.00340  0.32730  0.15640  Biso   1.000  N
  C113     1.0000 0.00740  0.29720  0.09970  Biso   1.000  C
  N54      1.0000 0.00650  0.15220  0.00400  Biso   1.000  N
  C114     1.0000 0.00330  0.09330  0.00250  Biso   1.000  C
  N55      1.0000 0.00900  0.29160  0.90570  Biso   1.000  N
  C115     1.0000 0.00690  0.31960  0.84640  Biso   1.000  C
  C116     1.0000 0.15320  0.00450  0.02330  Biso   1.000  C
  N56      1.0000 0.18000  0.99530  0.97120  Biso   1.000  N
  C117     1.0000 0.09000  0.87660  0.18140  Biso   1.000  C
  C118     1.0000 0.07840  0.83430  0.24080  Biso   1.000  C
  C119     1.0000 0.06920  0.86260  0.31050  Biso   1.000  C
  C120     1.0000 0.07080  0.93190  0.31910  Biso   1.000  C
  C121     1.0000 0.08180  0.97230  0.25740  Biso   1.000  C
  C122     1.0000 0.08250  0.04760  0.25970  Biso   1.000  C
  C123     1.0000 0.07090  0.08450  0.32410  Biso   1.000  C
  C124     1.0000 0.06970  0.15500  0.32020  Biso   1.000  C
  C125     1.0000 0.08040  0.18650  0.25250  Biso   1.000  C
  C126     1.0000 0.09170  0.14590  0.19100  Biso   1.000  C
  C127     1.0000 0.24980  0.12060  0.81500  Biso   1.000  C
  C128     1.0000 0.26280  0.16310  0.75660  Biso   1.000  C
  C129     1.0000 0.27010  0.13460  0.68610  Biso   1.000  C
  C130     1.0000 0.26540  0.06530  0.67590  Biso   1.000  C
  C131     1.0000 0.24960  0.95010  0.73520  Biso   1.000  C
  C132     1.0000 0.25290  0.02470  0.73810  Biso   1.000  C
  C133     1.0000 0.25880  0.91330  0.66960  Biso   1.000  C
  C134     1.0000 0.25660  0.84300  0.67200  Biso   1.000  C
  C135     1.0000 0.24520  0.81110  0.73970  Biso   1.000  C
  C136     1.0000 0.23600  0.85170  0.80220  Biso   1.000  C
  H65      1.0000 0.09700  0.85760  0.13480  Biso   1.000  H
  H66      1.0000 0.07680  0.78770  0.23400  Biso   1.000  H
  H67      1.0000 0.06200  0.83500  0.35130  Biso   1.000  H
  H68      1.0000 0.06460  0.95140  0.36570  Biso   1.000  H
  H69      1.0000 0.06410  0.06240  0.36910  Biso   1.000  H
  H70      1.0000 0.06190  0.18050  0.36240  Biso   1.000  H
  H71      1.0000 0.08010  0.23330  0.24830  Biso   1.000  H
  H72      1.0000 0.09890  0.16710  0.14560  Biso   1.000  H
  H73      1.0000 0.24400  0.13960  0.86210  Biso   1.000  H
  H74      1.0000 0.26660  0.20950  0.76440  Biso   1.000  H
  H75      1.0000 0.27820  0.16210  0.64560  Biso   1.000  H
  H76      1.0000 0.27040  0.04580  0.62880  Biso   1.000  H
  H77      1.0000 0.26630  0.93540  0.62500  Biso   1.000  H
  H78      1.0000 0.26270  0.81760  0.62900  Biso   1.000  H
  H79      1.0000 0.24370  0.76420  0.74300  Biso   1.000  H
  H80      1.0000 0.22820  0.83080  0.84740  Biso   1.000  H
  Cu32     1.0000 0.99130  0.24990  0.49540  Biso   1.000  Cu
  Cu33     1.0000 0.88650  0.01470  0.39010  Biso   1.000  Cu
  Cu34     1.0000 0.77990  0.98430  0.61510  Biso   1.000  Cu
  N57      1.0000 0.90860  0.94490  0.31110  Biso   1.000  N
  N58      1.0000 0.90730  0.07850  0.30680  Biso   1.000  N
  N59      1.0000 0.75500  0.05260  0.69290  Biso   1.000  N
  N60      1.0000 0.76210  0.91950  0.69950  Biso   1.000  N
  N61      1.0000 0.99660  0.32730  0.34360  Biso   1.000  N
  C137     1.0000 0.99260  0.29720  0.40030  Biso   1.000  C
  N62      1.0000 0.99350  0.15220  0.49600  Biso   1.000  N
  C138     1.0000 0.99670  0.09330  0.49750  Biso   1.000  C
  N63      1.0000 0.99100  0.29160  0.59430  Biso   1.000  N
  C139     1.0000 0.99310  0.31960  0.65360  Biso   1.000  C
  C140     1.0000 0.84680  0.00450  0.47670  Biso   1.000  C
  N64      1.0000 0.82000  0.99530  0.52880  Biso   1.000  N
  C141     1.0000 0.91000  0.87660  0.31860  Biso   1.000  C
  C142     1.0000 0.92160  0.83430  0.25920  Biso   1.000  C
  C143     1.0000 0.93080  0.86260  0.18950  Biso   1.000  C
  C144     1.0000 0.92920  0.93190  0.18090  Biso   1.000  C
  C145     1.0000 0.91820  0.97230  0.24260  Biso   1.000  C
  C146     1.0000 0.91750  0.04760  0.24030  Biso   1.000  C
  C147     1.0000 0.92910  0.08450  0.17590  Biso   1.000  C
  C148     1.0000 0.93030  0.15500  0.17980  Biso   1.000  C
  C149     1.0000 0.91960  0.18650  0.24750  Biso   1.000  C
  C150     1.0000 0.90830  0.14590  0.30900  Biso   1.000  C
  C151     1.0000 0.75020  0.12060  0.68500  Biso   1.000  C
  C152     1.0000 0.73720  0.16310  0.74340  Biso   1.000  C
  C153     1.0000 0.72990  0.13460  0.81390  Biso   1.000  C
  C154     1.0000 0.73460  0.06530  0.82410  Biso   1.000  C
  C155     1.0000 0.75040  0.95010  0.76480  Biso   1.000  C
  C156     1.0000 0.74710  0.02470  0.76190  Biso   1.000  C
  C157     1.0000 0.74120  0.91330  0.83040  Biso   1.000  C
  C158     1.0000 0.74340  0.84300  0.82800  Biso   1.000  C
  C159     1.0000 0.75480  0.81110  0.76030  Biso   1.000  C
  C160     1.0000 0.76400  0.85170  0.69780  Biso   1.000  C
  H81      1.0000 0.90300  0.85760  0.36520  Biso   1.000  H
  H82      1.0000 0.92320  0.78770  0.26600  Biso   1.000  H
  H83      1.0000 0.93800  0.83500  0.14870  Biso   1.000  H
  H84      1.0000 0.93540  0.95140  0.13430  Biso   1.000  H
  H85      1.0000 0.93590  0.06240  0.13090  Biso   1.000  H
  H86      1.0000 0.93810  0.18050  0.13760  Biso   1.000  H
  H87      1.0000 0.91990  0.23330  0.25170  Biso   1.000  H
  H88      1.0000 0.90110  0.16710  0.35440  Biso   1.000  H
  H89      1.0000 0.75600  0.13960  0.63790  Biso   1.000  H
  H90      1.0000 0.73340  0.20950  0.73560  Biso   1.000  H
  H91      1.0000 0.72180  0.16210  0.85440  Biso   1.000  H
  H92      1.0000 0.72960  0.04580  0.87120  Biso   1.000  H
  H93      1.0000 0.73370  0.93540  0.87500  Biso   1.000  H
  H94      1.0000 0.73730  0.81760  0.87100  Biso   1.000  H
  H95      1.0000 0.75630  0.76420  0.75700  Biso   1.000  H
  H96      1.0000 0.77180  0.83080  0.65260  Biso   1.000  H
  Cu35     1.0000 0.99130  0.75010  0.99540  Biso   1.000  Cu
  Cu36     1.0000 0.88650  0.98530  0.89010  Biso   1.000  Cu
  Cu37     1.0000 0.77990  0.01570  0.11510  Biso   1.000  Cu
  N65      1.0000 0.90860  0.05510  0.81110  Biso   1.000  N
  N66      1.0000 0.90730  0.92150  0.80680  Biso   1.000  N
  N67      1.0000 0.75500  0.94740  0.19290  Biso   1.000  N
  N68      1.0000 0.76210  0.08050  0.19950  Biso   1.000  N
  N69      1.0000 0.99660  0.67270  0.84360  Biso   1.000  N
  C161     1.0000 0.99260  0.70280  0.90030  Biso   1.000  C
  N70      1.0000 0.99350  0.84780  0.99600  Biso   1.000  N
  C162     1.0000 0.99670  0.90670  0.99750  Biso   1.000  C
  N71      1.0000 0.99100  0.70840  0.09430  Biso   1.000  N
  C163     1.0000 0.99310  0.68040  0.15360  Biso   1.000  C
  C164     1.0000 0.84680  0.99550  0.97670  Biso   1.000  C
  N72      1.0000 0.82000  0.00470  0.02880  Biso   1.000  N
  C165     1.0000 0.91000  0.12340  0.81860  Biso   1.000  C
  C166     1.0000 0.92160  0.16570  0.75920  Biso   1.000  C
  C167     1.0000 0.93080  0.13740  0.68950  Biso   1.000  C
  C168     1.0000 0.92920  0.06810  0.68090  Biso   1.000  C
  C169     1.0000 0.91820  0.02770  0.74260  Biso   1.000  C
  C170     1.0000 0.91750  0.95240  0.74030  Biso   1.000  C
  C171     1.0000 0.92910  0.91550  0.67590  Biso   1.000  C
  C172     1.0000 0.93030  0.84500  0.67980  Biso   1.000  C
  C173     1.0000 0.91960  0.81350  0.74750  Biso   1.000  C
  C174     1.0000 0.90830  0.85410  0.80900  Biso   1.000  C
  C175     1.0000 0.75020  0.87940  0.18500  Biso   1.000  C
  C176     1.0000 0.73720  0.83690  0.24340  Biso   1.000  C
  C177     1.0000 0.72990  0.86540  0.31390  Biso   1.000  C
  C178     1.0000 0.73460  0.93470  0.32410  Biso   1.000  C
  C179     1.0000 0.75040  0.04990  0.26480  Biso   1.000  C
  C180     1.0000 0.74710  0.97530  0.26190  Biso   1.000  C
  C181     1.0000 0.74120  0.08670  0.33040  Biso   1.000  C
  C182     1.0000 0.74340  0.15700  0.32800  Biso   1.000  C
  C183     1.0000 0.75480  0.18890  0.26030  Biso   1.000  C
  C184     1.0000 0.76400  0.14830  0.19780  Biso   1.000  C
  H97      1.0000 0.90300  0.14240  0.86520  Biso   1.000  H
  H98      1.0000 0.92320  0.21230  0.76600  Biso   1.000  H
  H99      1.0000 0.93800  0.16500  0.64870  Biso   1.000  H
  H100     1.0000 0.93540  0.04860  0.63430  Biso   1.000  H
  H101     1.0000 0.93590  0.93760  0.63090  Biso   1.000  H
  H102     1.0000 0.93810  0.81950  0.63760  Biso   1.000  H
  H103     1.0000 0.91990  0.76670  0.75170  Biso   1.000  H
  H104     1.0000 0.90110  0.83290  0.85440  Biso   1.000  H
  H105     1.0000 0.75600  0.86040  0.13790  Biso   1.000  H
  H106     1.0000 0.73340  0.79050  0.23560  Biso   1.000  H
  H107     1.0000 0.72180  0.83790  0.35440  Biso   1.000  H
  H108     1.0000 0.72960  0.95420  0.37120  Biso   1.000  H
  H109     1.0000 0.73370  0.06460  0.37500  Biso   1.000  H
  H110     1.0000 0.73730  0.18240  0.37100  Biso   1.000  H
  H111     1.0000 0.75630  0.23580  0.25700  Biso   1.000  H
  H112     1.0000 0.77180  0.16920  0.15260  Biso   1.000  H
  Cu38     1.0000 0.00870  0.75010  0.50460  Biso   1.000  Cu
  Cu39     1.0000 0.11350  0.98530  0.60990  Biso   1.000  Cu
  Cu40     1.0000 0.22010  0.01570  0.38490  Biso   1.000  Cu
  N73      1.0000 0.09140  0.05510  0.68890  Biso   1.000  N
  N74      1.0000 0.09270  0.92150  0.69320  Biso   1.000  N
  N75      1.0000 0.24500  0.94740  0.30710  Biso   1.000  N
  N76      1.0000 0.23790  0.08050  0.30050  Biso   1.000  N
  N77      1.0000 0.00340  0.67270  0.65640  Biso   1.000  N
  C185     1.0000 0.00740  0.70280  0.59970  Biso   1.000  C
  N78      1.0000 0.00650  0.84780  0.50400  Biso   1.000  N
  C186     1.0000 0.00330  0.90670  0.50250  Biso   1.000  C
  N79      1.0000 0.00900  0.70840  0.40570  Biso   1.000  N
  C187     1.0000 0.00690  0.68040  0.34640  Biso   1.000  C
  C188     1.0000 0.15320  0.99550  0.52330  Biso   1.000  C
  N80      1.0000 0.18000  0.00470  0.47120  Biso   1.000  N
  C189     1.0000 0.09000  0.12340  0.68140  Biso   1.000  C
  C190     1.0000 0.07840  0.16570  0.74080  Biso   1.000  C
  C191     1.0000 0.06920  0.13740  0.81050  Biso   1.000  C
  C192     1.0000 0.07080  0.06810  0.81910  Biso   1.000  C
  C193     1.0000 0.08180  0.02770  0.75740  Biso   1.000  C
  C194     1.0000 0.08250  0.95240  0.75970  Biso   1.000  C
  C195     1.0000 0.07090  0.91550  0.82410  Biso   1.000  C
  C196     1.0000 0.06970  0.84500  0.82020  Biso   1.000  C
  C197     1.0000 0.08040  0.81350  0.75250  Biso   1.000  C
  C198     1.0000 0.09170  0.85410  0.69100  Biso   1.000  C
  C199     1.0000 0.24980  0.87940  0.31500  Biso   1.000  C
  C200     1.0000 0.26280  0.83690  0.25660  Biso   1.000  C
  C201     1.0000 0.27010  0.86540  0.18610  Biso   1.000  C
  C202     1.0000 0.26540  0.93470  0.17590  Biso   1.000  C
  C203     1.0000 0.24960  0.04990  0.23520  Biso   1.000  C
  C204     1.0000 0.25290  0.97530  0.23810  Biso   1.000  C
  C205     1.0000 0.25880  0.08670  0.16960  Biso   1.000  C
  C206     1.0000 0.25660  0.15700  0.17200  Biso   1.000  C
  C207     1.0000 0.24520  0.18890  0.23970  Biso   1.000  C
  C208     1.0000 0.23600  0.14830  0.30220  Biso   1.000  C
  H113     1.0000 0.09700  0.14240  0.63480  Biso   1.000  H
  H114     1.0000 0.07680  0.21230  0.73400  Biso   1.000  H
  H115     1.0000 0.06200  0.16500  0.85130  Biso   1.000  H
  H116     1.0000 0.06460  0.04860  0.86570  Biso   1.000  H
  H117     1.0000 0.06410  0.93760  0.86910  Biso   1.000  H
  H118     1.0000 0.06190  0.81950  0.86240  Biso   1.000  H
  H119     1.0000 0.08010  0.76670  0.74830  Biso   1.000  H
  H120     1.0000 0.09890  0.83290  0.64560  Biso   1.000  H
  H121     1.0000 0.24400  0.86040  0.36210  Biso   1.000  H
  H122     1.0000 0.26660  0.79050  0.26440  Biso   1.000  H
  H123     1.0000 0.27820  0.83790  0.14560  Biso   1.000  H
  H124     1.0000 0.27040  0.95420  0.12880  Biso   1.000  H
  H125     1.0000 0.26630  0.06460  0.12500  Biso   1.000  H
  H126     1.0000 0.26270  0.18240  0.12900  Biso   1.000  H
  H127     1.0000 0.24370  0.23580  0.24300  Biso   1.000  H
  H128     1.0000 0.22820  0.16920  0.34740  Biso   1.000  H
  Cu41     1.0000 0.00000  0.37910  0.25000  Biso   1.000  Cu
  Cu42     1.0000 0.00000  0.63300  0.25000  Biso   1.000  Cu
  C209     1.0000 0.00000  0.47710  0.25000  Biso   1.000  C
  N81      1.0000 0.00000  0.53490  0.25000  Biso   1.000  N
  Cu43     1.0000 0.00000  0.62090  0.75000  Biso   1.000  Cu
  Cu44     1.0000 0.00000  0.36700  0.75000  Biso   1.000  Cu
  C210     1.0000 0.00000  0.52290  0.75000  Biso   1.000  C
  N82      1.0000 0.00000  0.46510  0.75000  Biso   1.000  N
  Cu45     1.0000 0.00000  0.00000  0.00000  Biso   1.000  Cu
  Cu46     1.0000 0.00000  0.00000  0.50000  Biso   1.000  Cu
