data_image0
_cell_length_a       19.6721
_cell_length_b       9.2201
_cell_length_c       9.7478
_cell_angle_alpha    90
_cell_angle_beta     95.6
_cell_angle_gamma    90

_symmetry_space_group_name_H-M    "P 1"
_symmetry_int_tables_number       1

loop_
  _symmetry_equiv_pos_as_xyz
  'x, y, z'

loop_
  _atom_site_label
  _atom_site_occupancy
  _atom_site_fract_x
  _atom_site_fract_y
  _atom_site_fract_z
  _atom_site_thermal_displace_type
  _atom_site_B_iso_or_equiv
  _atom_site_type_symbol
  P1       1.0000 0.42050  0.11680  0.07710  Biso   1.000  P
  P2       1.0000 0.40050  0.83180  0.71420  Biso   1.000  P
  P3       1.0000 0.16170  0.84480  0.98580  Biso   1.000  P
  P4       1.0000 0.04790  0.15360  0.28770  Biso   1.000  P
  Al1      1.0000 0.05630  0.08190  0.99130  Biso   1.000  Al
  Al2      1.0000 0.53040  0.87220  0.21840  Biso   1.000  Al
  Al3      1.0000 0.91960  0.33910  0.26510  Biso   1.000  Al
  Al4      1.0000 0.32520  0.86990  0.98770  Biso   1.000  Al
  O1       1.0000 0.07830  0.18390  0.14970  Biso   1.000  O
  O2       1.0000 0.97030  0.17450  0.26870  Biso   1.000  O
  O3       1.0000 0.13070  0.98980  0.93560  Biso   1.000  O
  O4       1.0000 0.35150  0.84730  0.82460  Biso   1.000  O
  O5       1.0000 0.23820  0.85610  0.97440  Biso   1.000  O
  O6       1.0000 0.36110  0.77540  0.58310  Biso   1.000  O
  O7       1.0000 0.47620  0.01020  0.12880  Biso   1.000  O
  O8       1.0000 0.13280  0.72000  0.89420  Biso   1.000  O
  O9       1.0000 0.43340  0.18180  0.93610  Biso   1.000  O
  O10      1.0000 0.42780  0.98210  0.67580  Biso   1.000  O
  O11      1.0000 0.06500  0.99820  0.34120  Biso   1.000  O
  O12      1.0000 0.02930  0.91890  0.08610  Biso   1.000  O
  O13      1.0000 0.41260  0.24050  0.18070  Biso   1.000  O
  O14      1.0000 0.15310  0.81600  0.13850  Biso   1.000  O
  O15      1.0000 0.35210  0.03580  0.06030  Biso   1.000  O
  O16      1.0000 0.45600  0.72230  0.76570  Biso   1.000  O
  O17      1.0000 0.08170  0.25890  0.39360  Biso   1.000  O
  P5       1.0000 0.57950  0.61680  0.42290  Biso   1.000  P
  P6       1.0000 0.59950  0.33180  0.78580  Biso   1.000  P
  P7       1.0000 0.83830  0.34480  0.51420  Biso   1.000  P
  P8       1.0000 0.95210  0.65360  0.21230  Biso   1.000  P
  Al5      1.0000 0.94370  0.58190  0.50870  Biso   1.000  Al
  Al6      1.0000 0.46960  0.37220  0.28160  Biso   1.000  Al
  Al7      1.0000 0.08040  0.83910  0.23490  Biso   1.000  Al
  Al8      1.0000 0.67480  0.36990  0.51230  Biso   1.000  Al
  O18      1.0000 0.92170  0.68390  0.35030  Biso   1.000  O
  O19      1.0000 0.02970  0.67450  0.23130  Biso   1.000  O
  O20      1.0000 0.86930  0.48980  0.56440  Biso   1.000  O
  O21      1.0000 0.64850  0.34730  0.67540  Biso   1.000  O
  O22      1.0000 0.76180  0.35610  0.52560  Biso   1.000  O
  O23      1.0000 0.63890  0.27540  0.91690  Biso   1.000  O
  O24      1.0000 0.52380  0.51020  0.37120  Biso   1.000  O
  O25      1.0000 0.86720  0.22000  0.60580  Biso   1.000  O
  O26      1.0000 0.56660  0.68180  0.56390  Biso   1.000  O
  O27      1.0000 0.57220  0.48210  0.82420  Biso   1.000  O
  O28      1.0000 0.93500  0.49820  0.15880  Biso   1.000  O
  O29      1.0000 0.97070  0.41890  0.41390  Biso   1.000  O
  O30      1.0000 0.58740  0.74050  0.31930  Biso   1.000  O
  O31      1.0000 0.84690  0.31600  0.36150  Biso   1.000  O
  O32      1.0000 0.64790  0.53580  0.43970  Biso   1.000  O
  O33      1.0000 0.54400  0.22230  0.73430  Biso   1.000  O
  O34      1.0000 0.91830  0.75890  0.10640  Biso   1.000  O
  P9       1.0000 0.57950  0.88320  0.92290  Biso   1.000  P
  P10      1.0000 0.59950  0.16820  0.28580  Biso   1.000  P
  P11      1.0000 0.83830  0.15520  0.01420  Biso   1.000  P
  P12      1.0000 0.95210  0.84640  0.71230  Biso   1.000  P
  Al9      1.0000 0.94370  0.91810  0.00870  Biso   1.000  Al
  Al10     1.0000 0.46960  0.12780  0.78160  Biso   1.000  Al
  Al11     1.0000 0.08040  0.66090  0.73490  Biso   1.000  Al
  Al12     1.0000 0.67480  0.13010  0.01230  Biso   1.000  Al
  O35      1.0000 0.92170  0.81610  0.85030  Biso   1.000  O
  O36      1.0000 0.02970  0.82550  0.73130  Biso   1.000  O
  O37      1.0000 0.86930  0.01020  0.06440  Biso   1.000  O
  O38      1.0000 0.64850  0.15270  0.17540  Biso   1.000  O
  O39      1.0000 0.76180  0.14390  0.02560  Biso   1.000  O
  O40      1.0000 0.63890  0.22460  0.41690  Biso   1.000  O
  O41      1.0000 0.52380  0.98980  0.87120  Biso   1.000  O
  O42      1.0000 0.86720  0.28000  0.10580  Biso   1.000  O
  O43      1.0000 0.56660  0.81820  0.06390  Biso   1.000  O
  O44      1.0000 0.57220  0.01790  0.32420  Biso   1.000  O
  O45      1.0000 0.93500  0.00180  0.65880  Biso   1.000  O
  O46      1.0000 0.97070  0.08110  0.91390  Biso   1.000  O
  O47      1.0000 0.58740  0.75950  0.81930  Biso   1.000  O
  O48      1.0000 0.84690  0.18400  0.86150  Biso   1.000  O
  O49      1.0000 0.64790  0.96420  0.93970  Biso   1.000  O
  O50      1.0000 0.54400  0.27770  0.23430  Biso   1.000  O
  O51      1.0000 0.91830  0.74110  0.60640  Biso   1.000  O
  P13      1.0000 0.42050  0.38320  0.57710  Biso   1.000  P
  P14      1.0000 0.40050  0.66820  0.21420  Biso   1.000  P
  P15      1.0000 0.16170  0.65520  0.48580  Biso   1.000  P
  P16      1.0000 0.04790  0.34640  0.78770  Biso   1.000  P
  Al13     1.0000 0.05630  0.41810  0.49130  Biso   1.000  Al
  Al14     1.0000 0.53040  0.62780  0.71840  Biso   1.000  Al
  Al15     1.0000 0.91960  0.16090  0.76510  Biso   1.000  Al
  Al16     1.0000 0.32520  0.63010  0.48770  Biso   1.000  Al
  O52      1.0000 0.07830  0.31610  0.64970  Biso   1.000  O
  O53      1.0000 0.97030  0.32550  0.76870  Biso   1.000  O
  O54      1.0000 0.13070  0.51020  0.43560  Biso   1.000  O
  O55      1.0000 0.35150  0.65270  0.32460  Biso   1.000  O
  O56      1.0000 0.23820  0.64390  0.47440  Biso   1.000  O
  O57      1.0000 0.36110  0.72460  0.08310  Biso   1.000  O
  O58      1.0000 0.47620  0.48980  0.62880  Biso   1.000  O
  O59      1.0000 0.13280  0.78000  0.39420  Biso   1.000  O
  O60      1.0000 0.43340  0.31820  0.43610  Biso   1.000  O
  O61      1.0000 0.42780  0.51790  0.17580  Biso   1.000  O
  O62      1.0000 0.06500  0.50180  0.84120  Biso   1.000  O
  O63      1.0000 0.02930  0.58110  0.58610  Biso   1.000  O
  O64      1.0000 0.41260  0.25950  0.68070  Biso   1.000  O
  O65      1.0000 0.15310  0.68400  0.63850  Biso   1.000  O
  O66      1.0000 0.35210  0.46420  0.56030  Biso   1.000  O
  O67      1.0000 0.45600  0.77770  0.26570  Biso   1.000  O
  O68      1.0000 0.08170  0.24110  0.89360  Biso   1.000  O
