data_FINQUQ_clean
_audit_creation_date              2014-07-02
_audit_creation_method            'Materials Studio'
_symmetry_space_group_name_H-M    'P1'
_symmetry_Int_Tables_number       1
_symmetry_cell_setting            triclinic
loop_
_symmetry_equiv_pos_as_xyz
  x,y,z
_cell_length_a                    12.0117
_cell_length_b                    13.9360
_cell_length_c                    22.6020
_cell_angle_alpha                 77.0880
_cell_angle_beta                  74.6570
_cell_angle_gamma                 75.5240
loop_
_atom_site_label
_atom_site_type_symbol
_atom_site_fract_x
_atom_site_fract_y
_atom_site_fract_z
_atom_site_U_iso_or_equiv
_atom_site_adp_type
_atom_site_occupancy
Ag1    Ag    0.84312   0.16768   0.50339   0.01267  Uiso   1.00
Ag2    Ag    0.32794   0.65101   0.19661   0.01267  Uiso   1.00
Ag3    Ag    0.22497   0.38041   0.67379   0.01267  Uiso   1.00
Ag4    Ag    0.70763   0.51679   0.64645   0.01267  Uiso   1.00
Ag5    Ag    0.38463   0.66786   0.43519   0.01267  Uiso   1.00
Ag6    Ag    0.36935   0.92406   0.93943   0.01267  Uiso   1.00
Ag7    Ag    0.43478   0.56319   0.58375   0.01267  Uiso   1.00
Ag8    Ag    0.15688   0.83232   0.49661   0.01267  Uiso   1.00
Ag9    Ag    0.67206   0.34899   0.80339   0.01267  Uiso   1.00
Ag10   Ag    0.77503   0.61959   0.32621   0.01267  Uiso   1.00
Ag11   Ag    0.29237   0.48321   0.35355   0.01267  Uiso   1.00
Ag12   Ag    0.61537   0.33214   0.56481   0.01267  Uiso   1.00
Ag13   Ag    0.63065   0.07594   0.06057   0.01267  Uiso   1.00
Ag14   Ag    0.56522   0.43681   0.41625   0.01267  Uiso   1.00
H1     H     0.80920   0.43980   0.99060   0.01267  Uiso   1.00
H2     H     0.01710   0.16300   0.58170   0.01267  Uiso   1.00
H3     H     0.13530   0.79420   0.15690   0.01267  Uiso   1.00
H4     H     0.73620   0.00170   0.58930   0.01267  Uiso   1.00
H5     H     0.06130   0.45560   0.44050   0.01267  Uiso   1.00
H6     H     0.32520   0.02930   0.80740   0.01267  Uiso   1.00
H7     H     0.72330   0.10770   0.41300   0.01267  Uiso   1.00
H8     H     0.57940   0.31990   0.12950   0.01267  Uiso   1.00
H9     H     0.92300   0.36650   0.44100   0.01267  Uiso   1.00
H10    H     0.08120   0.87950   0.06420   0.01267  Uiso   1.00
H11    H     0.64770   0.87100   0.59070   0.01267  Uiso   1.00
H12    H     0.42900   0.12580   0.93130   0.01267  Uiso   1.00
H13    H     0.67840   0.59380   0.98040   0.01267  Uiso   1.00
H14    H     0.34920   0.17490   0.73550   0.01267  Uiso   1.00
H15    H     0.63690   0.97700   0.40920   0.01267  Uiso   1.00
H16    H     0.44280   0.47190   0.12610   0.01267  Uiso   1.00
H17    H     0.15720   0.24730   0.58620   0.01267  Uiso   1.00
H18    H     0.86600   0.64560   0.19350   0.01267  Uiso   1.00
H19    H     0.81840   0.73120   0.10000   0.01267  Uiso   1.00
H20    H     0.45670   0.27400   0.86390   0.01267  Uiso   1.00
H21    H     0.19080   0.56020   0.00940   0.01267  Uiso   1.00
H22    H     0.98290   0.83700   0.41830   0.01267  Uiso   1.00
H23    H     0.86470   0.20580   0.84310   0.01267  Uiso   1.00
H24    H     0.26380   0.99830   0.41070   0.01267  Uiso   1.00
H25    H     0.93870   0.54440   0.55950   0.01267  Uiso   1.00
H26    H     0.67480   0.97070   0.19260   0.01267  Uiso   1.00
H27    H     0.27670   0.89230   0.58700   0.01267  Uiso   1.00
H28    H     0.42060   0.68010   0.87050   0.01267  Uiso   1.00
H29    H     0.07700   0.63350   0.55900   0.01267  Uiso   1.00
H30    H     0.91880   0.12050   0.93580   0.01267  Uiso   1.00
H31    H     0.35230   0.12900   0.40930   0.01267  Uiso   1.00
H32    H     0.57100   0.87420   0.06870   0.01267  Uiso   1.00
H33    H     0.32160   0.40620   0.01960   0.01267  Uiso   1.00
H34    H     0.65080   0.82510   0.26450   0.01267  Uiso   1.00
H35    H     0.36310   0.02300   0.59080   0.01267  Uiso   1.00
H36    H     0.55720   0.52810   0.87390   0.01267  Uiso   1.00
H37    H     0.84280   0.75270   0.41380   0.01267  Uiso   1.00
H38    H     0.13400   0.35440   0.80650   0.01267  Uiso   1.00
H39    H     0.18160   0.26880   0.90000   0.01267  Uiso   1.00
H40    H     0.54330   0.72600   0.13610   0.01267  Uiso   1.00
C1     C     0.73500   0.44760   0.01720   0.01267  Uiso   1.00
C2     C     0.02740   0.22380   0.55250   0.01267  Uiso   1.00
C3     C     0.03820   0.65840   0.24410   0.01267  Uiso   1.00
C4     C     0.46710   0.64690   0.04780   0.01267  Uiso   1.00
C5     C     0.06930   0.78180   0.14590   0.01267  Uiso   1.00
C6     C     0.71550   0.99690   0.55220   0.01267  Uiso   1.00
C7     C     0.05400   0.39560   0.47010   0.01267  Uiso   1.00
C8     C     0.35380   0.08030   0.81850   0.01267  Uiso   1.00
C9     C     0.54790   0.54980   0.05350   0.01267  Uiso   1.00
C10    C     0.70850   0.05840   0.44950   0.01267  Uiso   1.00
C11    C     0.59900   0.37770   0.09960   0.01267  Uiso   1.00
C12    C     0.97260   0.34190   0.47040   0.01267  Uiso   1.00
C13    C     0.03790   0.83180   0.09120   0.01267  Uiso   1.00
C14    C     0.66380   0.91890   0.55320   0.01267  Uiso   1.00
C15    C     0.21350   0.41880   0.51200   0.01267  Uiso   1.00
C16    C     0.41410   0.13630   0.89040   0.01267  Uiso   1.00
C17    C     0.65770   0.53900   0.01200   0.01267  Uiso   1.00
C18    C     0.63470   0.90960   0.49990   0.01267  Uiso   1.00
C19    C     0.44480   0.32590   0.74530   0.01267  Uiso   1.00
C20    C     0.36840   0.16600   0.77530   0.01267  Uiso   1.00
C21    C     0.00510   0.71240   0.18580   0.01267  Uiso   1.00
C22    C     0.57700   0.82770   0.50040   0.01267  Uiso   1.00
C23    C     0.12590   0.36190   0.51320   0.01267  Uiso   1.00
C24    C     0.65700   0.98120   0.44680   0.01267  Uiso   1.00
C25    C     0.51850   0.46690   0.09760   0.01267  Uiso   1.00
C26    C     0.11050   0.27330   0.55550   0.01267  Uiso   1.00
C27    C     0.91110   0.69410   0.16750   0.01267  Uiso   1.00
C28    C     0.41160   0.23870   0.79110   0.01267  Uiso   1.00
C29    C     0.88290   0.74460   0.11260   0.01267  Uiso   1.00
C30    C     0.43150   0.22410   0.85070   0.01267  Uiso   1.00
C31    C     0.26500   0.55240   0.98280   0.01267  Uiso   1.00
C32    C     0.97260   0.77620   0.44750   0.01267  Uiso   1.00
C33    C     0.96180   0.34160   0.75590   0.01267  Uiso   1.00
C34    C     0.53290   0.35310   0.95220   0.01267  Uiso   1.00
C35    C     0.93070   0.21820   0.85410   0.01267  Uiso   1.00
C36    C     0.28450   0.00310   0.44780   0.01267  Uiso   1.00
C37    C     0.94600   0.60440   0.52990   0.01267  Uiso   1.00
C38    C     0.64620   0.91970   0.18150   0.01267  Uiso   1.00
C39    C     0.45210   0.45020   0.94650   0.01267  Uiso   1.00
C40    C     0.29150   0.94160   0.55050   0.01267  Uiso   1.00
C41    C     0.40100   0.62230   0.90040   0.01267  Uiso   1.00
C42    C     0.02740   0.65810   0.52960   0.01267  Uiso   1.00
C43    C     0.96210   0.16820   0.90880   0.01267  Uiso   1.00
C44    C     0.33620   0.08110   0.44680   0.01267  Uiso   1.00
C45    C     0.78650   0.58120   0.48800   0.01267  Uiso   1.00
C46    C     0.58590   0.86370   0.10960   0.01267  Uiso   1.00
C47    C     0.34230   0.46100   0.98800   0.01267  Uiso   1.00
C48    C     0.36530   0.09040   0.50010   0.01267  Uiso   1.00
C49    C     0.55520   0.67410   0.25470   0.01267  Uiso   1.00
C50    C     0.63160   0.83400   0.22470   0.01267  Uiso   1.00
C51    C     0.99490   0.28760   0.81420   0.01267  Uiso   1.00
C52    C     0.42300   0.17230   0.49960   0.01267  Uiso   1.00
C53    C     0.87410   0.63810   0.48680   0.01267  Uiso   1.00
C54    C     0.34300   0.01880   0.55320   0.01267  Uiso   1.00
C55    C     0.48150   0.53310   0.90240   0.01267  Uiso   1.00
C56    C     0.88950   0.72670   0.44450   0.01267  Uiso   1.00
C57    C     0.08890   0.30590   0.83250   0.01267  Uiso   1.00
C58    C     0.58840   0.76130   0.20890   0.01267  Uiso   1.00
C59    C     0.11710   0.25540   0.88740   0.01267  Uiso   1.00
C60    C     0.56850   0.77590   0.14930   0.01267  Uiso   1.00
N1     N     0.48960   0.73640   0.47320   0.01267  Uiso   1.00
N2     N     0.55450   0.75700   0.55000   0.01267  Uiso   1.00
N3     N     0.33050   0.77610   0.06550   0.01267  Uiso   1.00
N4     N     0.25750   0.42160   0.56040   0.01267  Uiso   1.00
N5     N     0.73820   0.06620   0.50120   0.01267  Uiso   1.00
N6     N     0.94490   0.81280   0.07580   0.01267  Uiso   1.00
N7     N     0.13840   0.58400   0.31260   0.01267  Uiso   1.00
N8     N     0.70480   0.37060   0.05980   0.01267  Uiso   1.00
N9     N     0.95840   0.25650   0.51000   0.01267  Uiso   1.00
N10    N     0.38910   0.78990   0.00670   0.01267  Uiso   1.00
N11    N     0.53880   0.81670   0.45180   0.01267  Uiso   1.00
N12    N     0.25640   0.48030   0.46090   0.01267  Uiso   1.00
N13    N     0.47540   0.71130   0.99420   0.01267  Uiso   1.00
N14    N     0.37830   0.68470   0.09280   0.01267  Uiso   1.00
N15    N     0.49920   0.70050   0.53230   0.01267  Uiso   1.00
N16    N     0.54360   0.43670   0.69320   0.01267  Uiso   1.00
N17    N     0.45960   0.44050   0.66510   0.01267  Uiso   1.00
N18    N     0.14760   0.63680   0.25430   0.01267  Uiso   1.00
N19    N     0.33080   0.48630   0.53760   0.01267  Uiso   1.00
N20    N     0.96380   0.61990   0.29470   0.01267  Uiso   1.00
N21    N     0.32900   0.52180   0.47850   0.01267  Uiso   1.00
N22    N     0.39480   0.37070   0.69700   0.01267  Uiso   1.00
N23    N     0.53630   0.36570   0.74440   0.01267  Uiso   1.00
N24    N     0.02860   0.57390   0.33710   0.01267  Uiso   1.00
N25    N     0.37690   0.06380   0.87500   0.01267  Uiso   1.00
N26    N     0.51040   0.26360   0.52680   0.01267  Uiso   1.00
N27    N     0.44550   0.24300   0.45000   0.01267  Uiso   1.00
N28    N     0.66950   0.22390   0.93450   0.01267  Uiso   1.00
N29    N     0.74250   0.57840   0.43960   0.01267  Uiso   1.00
N30    N     0.26180   0.93380   0.49880   0.01267  Uiso   1.00
N31    N     0.05510   0.18720   0.92420   0.01267  Uiso   1.00
N32    N     0.86160   0.41600   0.68740   0.01267  Uiso   1.00
N33    N     0.29520   0.62940   0.94020   0.01267  Uiso   1.00
N34    N     0.04160   0.74350   0.49000   0.01267  Uiso   1.00
N35    N     0.61090   0.21010   0.99330   0.01267  Uiso   1.00
N36    N     0.46120   0.18330   0.54820   0.01267  Uiso   1.00
N37    N     0.74360   0.51970   0.53910   0.01267  Uiso   1.00
N38    N     0.52460   0.28870   0.00580   0.01267  Uiso   1.00
N39    N     0.62170   0.31530   0.90720   0.01267  Uiso   1.00
N40    N     0.50080   0.29950   0.46770   0.01267  Uiso   1.00
N41    N     0.45640   0.56330   0.30680   0.01267  Uiso   1.00
N42    N     0.54040   0.55950   0.33490   0.01267  Uiso   1.00
N43    N     0.85240   0.36320   0.74570   0.01267  Uiso   1.00
N44    N     0.66920   0.51370   0.46240   0.01267  Uiso   1.00
N45    N     0.03620   0.38010   0.70530   0.01267  Uiso   1.00
N46    N     0.67100   0.47820   0.52150   0.01267  Uiso   1.00
N47    N     0.60520   0.62930   0.30300   0.01267  Uiso   1.00
N48    N     0.46370   0.63430   0.25560   0.01267  Uiso   1.00
N49    N     0.97140   0.42610   0.66290   0.01267  Uiso   1.00
N50    N     0.62310   0.93620   0.12500   0.01267  Uiso   1.00
