data_FIPJAR_clean
_audit_creation_date              2015-10-16
_audit_creation_method            'Materials Studio'
_symmetry_space_group_name_H-M    'P1'
_symmetry_Int_Tables_number       1
_symmetry_cell_setting            triclinic
loop_
_symmetry_equiv_pos_as_xyz
  x,y,z
_cell_length_a                    7.0688
_cell_length_b                    11.4644
_cell_length_c                    16.4210
_cell_angle_alpha                 82.9200
_cell_angle_beta                  77.5706
_cell_angle_gamma                 72.0436
loop_
_atom_site_label
_atom_site_type_symbol
_atom_site_fract_x
_atom_site_fract_y
_atom_site_fract_z
_atom_site_U_iso_or_equiv
_atom_site_adp_type
_atom_site_occupancy
Cd1    Cd    0.27149   0.75069   0.77851   0.01267  Uiso   1.00
Cd2    Cd    0.80069   0.74931   0.72149   0.01267  Uiso   1.00
Cd3    Cd    0.19931   0.25069   0.27851   0.01267  Uiso   1.00
Cd4    Cd    0.72851   0.24931   0.22149   0.01267  Uiso   1.00
H1     H     0.56840   0.64540   0.23540   0.01267  Uiso   1.00
H2     H     0.43160   0.35460   0.76460   0.01267  Uiso   1.00
H3     H     0.00190   0.35570   0.75630   0.01267  Uiso   1.00
H4     H     0.88610   0.85570   0.25630   0.01267  Uiso   1.00
H5     H     0.52400   0.54940   0.62800   0.01267  Uiso   1.00
H6     H     0.47600   0.45060   0.37200   0.01267  Uiso   1.00
H7     H     0.44920   0.85460   0.26460   0.01267  Uiso   1.00
H8     H     0.99810   0.64430   0.24370   0.01267  Uiso   1.00
H9     H     0.19090   0.56390   0.45670   0.01267  Uiso   1.00
H10    H     0.55080   0.14540   0.73540   0.01267  Uiso   1.00
H11    H     0.29860   0.04940   0.12800   0.01267  Uiso   1.00
H12    H     0.78850   0.06390   0.95670   0.01267  Uiso   1.00
H13    H     0.21150   0.93610   0.04330   0.01267  Uiso   1.00
H14    H     0.11390   0.14430   0.74370   0.01267  Uiso   1.00
H15    H     0.70140   0.95060   0.87200   0.01267  Uiso   1.00
H16    H     0.80910   0.43610   0.54330   0.01267  Uiso   1.00
C1     C     0.51440   0.52880   0.57640   0.01267  Uiso   1.00
C2     C     0.61960   0.97120   0.92360   0.01267  Uiso   1.00
C3     C     0.68510   0.46220   0.52560   0.01267  Uiso   1.00
C4     C     0.67100   0.43450   0.44750   0.01267  Uiso   1.00
C5     C     0.61000   0.13950   0.10850   0.01267  Uiso   1.00
C6     C     0.08890   0.68750   0.24470   0.01267  Uiso   1.00
C7     C     0.35940   0.81300   0.25820   0.01267  Uiso   1.00
C8     C     0.56940   0.31300   0.75820   0.01267  Uiso   1.00
C9     C     0.08200   0.00980   0.27820   0.01267  Uiso   1.00
C10    C     0.32710   0.96220   0.02560   0.01267  Uiso   1.00
C11    C     0.15730   0.87270   0.26470   0.01267  Uiso   1.00
C12    C     0.02110   0.81250   0.25530   0.01267  Uiso   1.00
C13    C     0.85800   0.36050   0.39150   0.01267  Uiso   1.00
C14    C     0.91800   0.99020   0.72180   0.01267  Uiso   1.00
C15    C     0.70530   0.37270   0.76470   0.01267  Uiso   1.00
C16    C     0.44700   0.93450   0.94750   0.01267  Uiso   1.00
C17    C     0.37000   0.49020   0.22180   0.01267  Uiso   1.00
C18    C     0.84270   0.12730   0.73530   0.01267  Uiso   1.00
C19    C     0.64060   0.18700   0.74180   0.01267  Uiso   1.00
C20    C     0.39000   0.86050   0.89150   0.01267  Uiso   1.00
C21    C     0.55300   0.06550   0.05250   0.01267  Uiso   1.00
C22    C     0.38040   0.02880   0.07640   0.01267  Uiso   1.00
C23    C     0.48560   0.47120   0.42360   0.01267  Uiso   1.00
C24    C     0.67290   0.03780   0.97440   0.01267  Uiso   1.00
C25    C     0.97890   0.18750   0.74470   0.01267  Uiso   1.00
C26    C     0.43060   0.68700   0.24180   0.01267  Uiso   1.00
C27    C     0.31490   0.53780   0.47440   0.01267  Uiso   1.00
C28    C     0.29470   0.62730   0.23530   0.01267  Uiso   1.00
C29    C     0.14200   0.63950   0.60850   0.01267  Uiso   1.00
C30    C     0.32900   0.56550   0.55250   0.01267  Uiso   1.00
C31    C     0.91110   0.31250   0.75530   0.01267  Uiso   1.00
C32    C     0.63000   0.50980   0.77820   0.01267  Uiso   1.00
O1     O     0.75980   0.17320   0.08720   0.01267  Uiso   1.00
O2     O     0.16210   0.66130   0.68050   0.01267  Uiso   1.00
O3     O     0.76050   0.56330   0.76570   0.01267  Uiso   1.00
O4     O     0.02020   0.32680   0.41280   0.01267  Uiso   1.00
O5     O     0.91050   0.06330   0.26570   0.01267  Uiso   1.00
O6     O     0.19570   0.05670   0.30190   0.01267  Uiso   1.00
O7     O     0.44570   0.55670   0.80190   0.01267  Uiso   1.00
O8     O     0.49610   0.16130   0.18050   0.01267  Uiso   1.00
O9     O     0.80430   0.94330   0.69810   0.01267  Uiso   1.00
O10    O     0.24020   0.82680   0.91280   0.01267  Uiso   1.00
O11    O     0.50390   0.83870   0.81950   0.01267  Uiso   1.00
O12    O     0.55430   0.44330   0.19810   0.01267  Uiso   1.00
O13    O     0.97980   0.67320   0.58720   0.01267  Uiso   1.00
O14    O     0.08950   0.93670   0.73430   0.01267  Uiso   1.00
O15    O     0.23950   0.43670   0.23430   0.01267  Uiso   1.00
O16    O     0.83790   0.33870   0.31950   0.01267  Uiso   1.00
