data_image0
_cell_length_a       10.184
_cell_length_b       10.348
_cell_length_c       18.091
_cell_angle_alpha    102.34
_cell_angle_beta     99.19
_cell_angle_gamma    93.95

_symmetry_space_group_name_H-M    "P 1"
_symmetry_int_tables_number       1

loop_
  _symmetry_equiv_pos_as_xyz
  'x, y, z'

loop_
  _atom_site_label
  _atom_site_occupancy
  _atom_site_fract_x
  _atom_site_fract_y
  _atom_site_fract_z
  _atom_site_thermal_displace_type
  _atom_site_B_iso_or_equiv
  _atom_site_type_symbol
  Cd1      1.0000 0.54726  0.54683  0.81557  Biso   1.000  Cd
  O1       1.0000 0.31209  0.56520  0.81962  Biso   1.000  O
  O2       1.0000 0.37106  0.48160  0.70866  Biso   1.000  O
  O3       1.0000 0.82370  0.53880  0.83483  Biso   1.000  O
  O4       1.0000 0.67690  0.49560  0.72659  Biso   1.000  O
  O5       1.0000 0.11000  0.22400  0.49828  Biso   1.000  O
  O6       1.0000 0.88840  0.01390  0.10837  Biso   1.000  O
  O7       1.0000 0.60700  0.74243  0.90308  Biso   1.000  O
  O8       1.0000 0.54770  0.79970  0.79355  Biso   1.000  O
  O9       1.0000 0.52150  0.29270  0.80387  Biso   1.000  O
  O10      1.0000 0.59450  0.43670  0.91254  Biso   1.000  O
  N1       1.0000 0.93800  0.34800  0.51504  Biso   1.000  N
  H1       1.0000 0.85740  0.36700  0.49510  Biso   1.000  H
  N2       1.0000 0.73970  0.16810  0.10732  Biso   1.000  N
  H2       1.0000 0.72800  0.25190  0.12810  Biso   1.000  H
  C1       1.0000 0.28320  0.51210  0.74889  Biso   1.000  C
  C2       1.0000 0.13870  0.48180  0.71052  Biso   1.000  C
  C3       1.0000 0.10690  0.42990  0.63174  Biso   1.000  C
  H3       1.0000 0.17480  0.41570  0.60310  Biso   1.000  H
  C4       1.0000 0.97410  0.39890  0.59552  Biso   1.000  C
  C5       1.0000 0.87350  0.42260  0.63895  Biso   1.000  C
  H4       1.0000 0.78440  0.40220  0.61500  Biso   1.000  H
  C6       1.0000 0.90440  0.47640  0.71756  Biso   1.000  C
  C7       1.0000 0.03780  0.50420  0.75386  Biso   1.000  C
  H5       1.0000 0.05940  0.53760  0.80680  Biso   1.000  H
  C8       1.0000 0.79530  0.50610  0.76369  Biso   1.000  C
  C9       1.0000 0.00800  0.26700  0.47180  Biso   1.000  C
  C10      1.0000 0.95730  0.23270  0.38652  Biso   1.000  C
  C11      1.0000 0.82130  0.21560  0.35480  Biso   1.000  C
  H6       1.0000 0.75760  0.22890  0.38650  Biso   1.000  H
  C12      1.0000 0.78170  0.17830  0.27470  Biso   1.000  C
  H7       1.0000 0.69130  0.16770  0.25320  Biso   1.000  H
  C13      1.0000 0.87530  0.15720  0.22764  Biso   1.000  C
  C14      1.0000 0.01160  0.17620  0.25981  Biso   1.000  C
  H8       1.0000 0.07520  0.16420  0.22800  Biso   1.000  H
  C15      1.0000 0.05150  0.21250  0.33808  Biso   1.000  C
  H9       1.0000 0.14220  0.22380  0.35910  Biso   1.000  H
  C16      1.0000 0.83520  0.10720  0.14253  Biso   1.000  C
  C17      1.0000 0.68700  0.13520  0.02761  Biso   1.000  C
  C18      1.0000 0.65380  0.23720  0.99125  Biso   1.000  C
  H10      1.0000 0.66710  0.32500  0.01920  Biso   1.000  H
  C19      1.0000 0.60060  0.20750  0.91286  Biso   1.000  C
  C20      1.0000 0.57970  0.07550  0.87099  Biso   1.000  C
  H11      1.0000 0.54460  0.05580  0.81870  Biso   1.000  H
  C21      1.0000 0.61160  0.97320  0.90760  Biso   1.000  C
  C22      1.0000 0.66420  0.00400  0.98617  Biso   1.000  C
  H12      1.0000 0.68410  0.93590  0.01100  Biso   1.000  H
  C23      1.0000 0.58780  0.82960  0.86465  Biso   1.000  C
  C24      1.0000 0.56910  0.31920  0.87311  Biso   1.000  C
  Cd2      1.0000 0.45274  0.45317  0.18443  Biso   1.000  Cd
  O11      1.0000 0.68791  0.43480  0.18038  Biso   1.000  O
  O12      1.0000 0.62894  0.51840  0.29134  Biso   1.000  O
  O13      1.0000 0.17630  0.46120  0.16517  Biso   1.000  O
  O14      1.0000 0.32310  0.50440  0.27341  Biso   1.000  O
  O15      1.0000 0.89000  0.77600  0.50172  Biso   1.000  O
  O16      1.0000 0.11160  0.98610  0.89163  Biso   1.000  O
  O17      1.0000 0.39300  0.25757  0.09692  Biso   1.000  O
  O18      1.0000 0.45230  0.20030  0.20645  Biso   1.000  O
  O19      1.0000 0.47850  0.70730  0.19613  Biso   1.000  O
  O20      1.0000 0.40550  0.56330  0.08746  Biso   1.000  O
  N3       1.0000 0.06200  0.65200  0.48496  Biso   1.000  N
  H13      1.0000 0.14260  0.63300  0.50490  Biso   1.000  H
  N4       1.0000 0.26030  0.83190  0.89268  Biso   1.000  N
  H14      1.0000 0.27200  0.74810  0.87190  Biso   1.000  H
  C25      1.0000 0.71680  0.48790  0.25111  Biso   1.000  C
  C26      1.0000 0.86130  0.51820  0.28948  Biso   1.000  C
  C27      1.0000 0.89310  0.57010  0.36826  Biso   1.000  C
  H15      1.0000 0.82520  0.58430  0.39690  Biso   1.000  H
  C28      1.0000 0.02590  0.60110  0.40448  Biso   1.000  C
  C29      1.0000 0.12650  0.57740  0.36105  Biso   1.000  C
  H16      1.0000 0.21560  0.59780  0.38500  Biso   1.000  H
  C30      1.0000 0.09560  0.52360  0.28244  Biso   1.000  C
  C31      1.0000 0.96220  0.49580  0.24614  Biso   1.000  C
  H17      1.0000 0.94060  0.46240  0.19320  Biso   1.000  H
  C32      1.0000 0.20470  0.49390  0.23631  Biso   1.000  C
  C33      1.0000 0.99200  0.73300  0.52820  Biso   1.000  C
  C34      1.0000 0.04270  0.76730  0.61348  Biso   1.000  C
  C35      1.0000 0.17870  0.78440  0.64520  Biso   1.000  C
  H18      1.0000 0.24240  0.77110  0.61350  Biso   1.000  H
  C36      1.0000 0.21830  0.82170  0.72530  Biso   1.000  C
  H19      1.0000 0.30870  0.83230  0.74680  Biso   1.000  H
  C37      1.0000 0.12470  0.84280  0.77236  Biso   1.000  C
  C38      1.0000 0.98840  0.82380  0.74019  Biso   1.000  C
  H20      1.0000 0.92480  0.83580  0.77200  Biso   1.000  H
  C39      1.0000 0.94850  0.78750  0.66192  Biso   1.000  C
  H21      1.0000 0.85780  0.77620  0.64090  Biso   1.000  H
  C40      1.0000 0.16480  0.89280  0.85747  Biso   1.000  C
  C41      1.0000 0.31300  0.86480  0.97239  Biso   1.000  C
  C42      1.0000 0.34620  0.76280  0.00875  Biso   1.000  C
  H22      1.0000 0.33290  0.67500  0.98080  Biso   1.000  H
  C43      1.0000 0.39940  0.79250  0.08714  Biso   1.000  C
  C44      1.0000 0.42030  0.92450  0.12901  Biso   1.000  C
  H23      1.0000 0.45540  0.94420  0.18130  Biso   1.000  H
  C45      1.0000 0.38840  0.02680  0.09240  Biso   1.000  C
  C46      1.0000 0.33580  0.99600  0.01383  Biso   1.000  C
  H24      1.0000 0.31590  0.06410  0.98900  Biso   1.000  H
  C47      1.0000 0.41220  0.17040  0.13535  Biso   1.000  C
  C48      1.0000 0.43090  0.68080  0.12689  Biso   1.000  C
