data_image0
_cell_length_a       10.217
_cell_length_b       10.362
_cell_length_c       18.118
_cell_angle_alpha    102.53
_cell_angle_beta     99.35
_cell_angle_gamma    93.79

_symmetry_space_group_name_H-M    "P 1"
_symmetry_int_tables_number       1

loop_
  _symmetry_equiv_pos_as_xyz
  'x, y, z'

loop_
  _atom_site_label
  _atom_site_occupancy
  _atom_site_fract_x
  _atom_site_fract_y
  _atom_site_fract_z
  _atom_site_thermal_displace_type
  _atom_site_B_iso_or_equiv
  _atom_site_type_symbol
  C1       1.0000 0.21590  0.98760  0.75120  Biso   1.000  C
  C2       1.0000 0.36020  0.01840  0.78920  Biso   1.000  C
  C3       1.0000 0.46160  0.99540  0.74620  Biso   1.000  C
  H1       1.0000 0.44010  0.96100  0.69330  Biso   1.000  H
  C4       1.0000 0.59450  0.02390  0.78210  Biso   1.000  C
  C5       1.0000 0.70430  0.99360  0.73580  Biso   1.000  C
  C6       1.0000 0.62500  0.07760  0.86050  Biso   1.000  C
  H2       1.0000 0.71390  0.09770  0.88460  Biso   1.000  H
  C7       1.0000 0.52520  0.10190  0.90380  Biso   1.000  C
  C8       1.0000 0.39340  0.07000  0.86830  Biso   1.000  C
  H3       1.0000 0.32630  0.08300  0.89740  Biso   1.000  H
  C9       1.0000 0.49210  0.23310  0.02810  Biso   1.000  C
  C10      1.0000 0.54280  0.26790  0.11330  Biso   1.000  C
  C11      1.0000 0.67810  0.28490  0.14520  Biso   1.000  C
  H4       1.0000 0.74160  0.27150  0.11370  Biso   1.000  H
  C12      1.0000 0.71700  0.32210  0.22450  Biso   1.000  C
  H5       1.0000 0.80740  0.33390  0.24580  Biso   1.000  H
  C13      1.0000 0.62440  0.34200  0.27230  Biso   1.000  C
  C14      1.0000 0.66570  0.39200  0.35730  Biso   1.000  C
  C15      1.0000 0.48940  0.32300  0.23990  Biso   1.000  C
  H6       1.0000 0.42630  0.33490  0.27180  Biso   1.000  H
  C16      1.0000 0.44790  0.28670  0.16140  Biso   1.000  C
  H7       1.0000 0.35740  0.27480  0.14030  Biso   1.000  H
  C17      1.0000 0.81320  0.36380  0.47260  Biso   1.000  C
  C18      1.0000 0.83580  0.49560  0.51350  Biso   1.000  C
  H8       1.0000 0.81620  0.56350  0.48860  Biso   1.000  H
  C19      1.0000 0.88830  0.52550  0.59220  Biso   1.000  C
  C20      1.0000 0.91150  0.67080  0.63520  Biso   1.000  C
  C21      1.0000 0.92010  0.42380  0.62790  Biso   1.000  C
  H9       1.0000 0.95610  0.44390  0.68010  Biso   1.000  H
  C22      1.0000 0.89940  0.29180  0.58710  Biso   1.000  C
  C23      1.0000 0.93060  0.18020  0.62690  Biso   1.000  C
  C24      1.0000 0.84540  0.26290  0.50870  Biso   1.000  C
  H10      1.0000 0.83110  0.17510  0.48070  Biso   1.000  H
  Cd1      1.0000 0.95185  0.95298  0.68418  Biso   1.000  Cd
  N1       1.0000 0.56190  0.15270  0.98490  Biso   1.000  N
  H11      1.0000 0.63430  0.12990  0.00780  Biso   1.000  H
  N2       1.0000 0.75910  0.33090  0.39240  Biso   1.000  N
  H12      1.0000 0.78950  0.26600  0.36420  Biso   1.000  H
  O1       1.0000 0.12810  0.01820  0.79140  Biso   1.000  O
  O2       1.0000 0.18690  0.93520  0.68055  Biso   1.000  O
  O3       1.0000 0.67440  0.96120  0.66470  Biso   1.000  O
  O4       1.0000 0.82150  0.00320  0.77230  Biso   1.000  O
  O5       1.0000 0.39080  0.27760  0.00140  Biso   1.000  O
  O6       1.0000 0.61060  0.48400  0.39160  Biso   1.000  O
  O7       1.0000 0.90430  0.06320  0.58710  Biso   1.000  O
  O8       1.0000 0.97800  0.20710  0.69570  Biso   1.000  O
  O9       1.0000 0.89190  0.75720  0.59630  Biso   1.000  O
  O10      1.0000 0.95240  0.70110  0.70580  Biso   1.000  O
  C25      1.0000 0.78410  0.01240  0.24880  Biso   1.000  C
  C26      1.0000 0.63980  0.98160  0.21080  Biso   1.000  C
  C27      1.0000 0.53840  0.00460  0.25380  Biso   1.000  C
  H13      1.0000 0.55990  0.03900  0.30670  Biso   1.000  H
  C28      1.0000 0.40550  0.97610  0.21790  Biso   1.000  C
  C29      1.0000 0.29570  0.00640  0.26420  Biso   1.000  C
  C30      1.0000 0.37500  0.92240  0.13950  Biso   1.000  C
  H14      1.0000 0.28610  0.90230  0.11540  Biso   1.000  H
  C31      1.0000 0.47480  0.89810  0.09620  Biso   1.000  C
  C32      1.0000 0.60660  0.93000  0.13170  Biso   1.000  C
  H15      1.0000 0.67370  0.91700  0.10260  Biso   1.000  H
  C33      1.0000 0.50790  0.76690  0.97190  Biso   1.000  C
  C34      1.0000 0.45720  0.73210  0.88670  Biso   1.000  C
  C35      1.0000 0.32190  0.71510  0.85480  Biso   1.000  C
  H16      1.0000 0.25840  0.72850  0.88630  Biso   1.000  H
  C36      1.0000 0.28300  0.67790  0.77550  Biso   1.000  C
  H17      1.0000 0.19260  0.66610  0.75420  Biso   1.000  H
  C37      1.0000 0.37560  0.65800  0.72770  Biso   1.000  C
  C38      1.0000 0.33430  0.60800  0.64270  Biso   1.000  C
  C39      1.0000 0.51060  0.67700  0.76010  Biso   1.000  C
  H18      1.0000 0.57370  0.66510  0.72820  Biso   1.000  H
  C40      1.0000 0.55210  0.71330  0.83860  Biso   1.000  C
  H19      1.0000 0.64260  0.72520  0.85970  Biso   1.000  H
  C41      1.0000 0.18680  0.63620  0.52740  Biso   1.000  C
  C42      1.0000 0.16420  0.50440  0.48650  Biso   1.000  C
  H20      1.0000 0.18380  0.43650  0.51140  Biso   1.000  H
  C43      1.0000 0.11170  0.47450  0.40780  Biso   1.000  C
  C44      1.0000 0.08850  0.32920  0.36480  Biso   1.000  C
  C45      1.0000 0.07990  0.57620  0.37210  Biso   1.000  C
  H21      1.0000 0.04390  0.55610  0.31990  Biso   1.000  H
  C46      1.0000 0.10060  0.70820  0.41290  Biso   1.000  C
  C47      1.0000 0.06940  0.81980  0.37310  Biso   1.000  C
  C48      1.0000 0.15460  0.73710  0.49130  Biso   1.000  C
  H22      1.0000 0.16890  0.82490  0.51930  Biso   1.000  H
  Cd2      1.0000 0.04815  0.04702  0.31582  Biso   1.000  Cd
  N3       1.0000 0.43810  0.84730  0.01510  Biso   1.000  N
  H23      1.0000 0.36570  0.87010  0.99220  Biso   1.000  H
  N4       1.0000 0.24090  0.66910  0.60760  Biso   1.000  N
  H24      1.0000 0.21050  0.73400  0.63580  Biso   1.000  H
  O11      1.0000 0.87190  0.98180  0.20860  Biso   1.000  O
  O12      1.0000 0.81310  0.06480  0.31945  Biso   1.000  O
  O13      1.0000 0.32560  0.03880  0.33530  Biso   1.000  O
  O14      1.0000 0.17850  0.99680  0.22770  Biso   1.000  O
  O15      1.0000 0.60920  0.72240  0.99860  Biso   1.000  O
  O16      1.0000 0.38940  0.51600  0.60840  Biso   1.000  O
  O17      1.0000 0.09570  0.93680  0.41290  Biso   1.000  O
  O18      1.0000 0.02200  0.79290  0.30430  Biso   1.000  O
  O19      1.0000 0.10810  0.24280  0.40370  Biso   1.000  O
  O20      1.0000 0.04760  0.29890  0.29420  Biso   1.000  O
