data_FIPWOS_clean
_audit_creation_date              2014-07-02
_audit_creation_method            'Materials Studio'
_symmetry_space_group_name_H-M    'P1'
_symmetry_Int_Tables_number       1
_symmetry_cell_setting            triclinic
loop_
_symmetry_equiv_pos_as_xyz
  x,y,z
_cell_length_a                    9.1269
_cell_length_b                    9.3427
_cell_length_c                    9.6040
_cell_angle_alpha                 114.4550
_cell_angle_beta                  90.0000
_cell_angle_gamma                 90.0000
loop_
_atom_site_label
_atom_site_type_symbol
_atom_site_fract_x
_atom_site_fract_y
_atom_site_fract_z
_atom_site_U_iso_or_equiv
_atom_site_adp_type
_atom_site_occupancy
Zn1    Zn    0.56466   0.40359   0.28456   0.01267  Uiso   1.00
Zn2    Zn    0.06466   0.59641   0.71544   0.01267  Uiso   1.00
H1     H     0.27690   0.56640   0.45440   0.01267  Uiso   1.00
H2     H     0.43120   0.35730   0.84280   0.01267  Uiso   1.00
H3     H     0.26240   0.38770   0.84530   0.01267  Uiso   1.00
H4     H     0.57440   0.62060   0.91240   0.01267  Uiso   1.00
H5     H     0.55940   0.33830   0.59210   0.01267  Uiso   1.00
H6     H     0.67880   0.07890   0.25220   0.01267  Uiso   1.00
H7     H     0.76720   0.11180   0.12870   0.01267  Uiso   1.00
H8     H     0.28970   0.65120   0.00000   0.01267  Uiso   1.00
H9     H     0.66120   0.89240   0.93390   0.01267  Uiso   1.00
H10    H     0.74230   0.84150   0.05000   0.01267  Uiso   1.00
H11    H     0.55000   0.16100   0.04600   0.01267  Uiso   1.00
H12    H     0.47600   0.13300   0.15900   0.01267  Uiso   1.00
H13    H     0.77690   0.43360   0.54560   0.01267  Uiso   1.00
H14    H     0.93120   0.64270   0.15720   0.01267  Uiso   1.00
H15    H     0.76240   0.61230   0.15470   0.01267  Uiso   1.00
H16    H     0.07440   0.37940   0.08760   0.01267  Uiso   1.00
H17    H     0.05940   0.66170   0.40790   0.01267  Uiso   1.00
H18    H     0.17880   0.92110   0.74780   0.01267  Uiso   1.00
H19    H     0.26720   0.88820   0.87130   0.01267  Uiso   1.00
H20    H     0.78970   0.34880  -0.00000   0.01267  Uiso   1.00
H21    H     0.16120   0.10760   0.06610   0.01267  Uiso   1.00
H22    H     0.24230   0.15850   0.95000   0.01267  Uiso   1.00
H23    H     0.05000   0.83900   0.95400   0.01267  Uiso   1.00
H24    H     0.97600   0.86700   0.84100   0.01267  Uiso   1.00
C1     C     0.32320   0.52150   0.51290   0.01267  Uiso   1.00
C2     C     0.35780   0.43210   0.84220   0.01267  Uiso   1.00
C3     C     0.47830   0.39650   0.58770   0.01267  Uiso   1.00
C4     C     0.37060   0.45120   0.69640   0.01267  Uiso   1.00
C5     C     0.67510   0.07190   0.14870   0.01267  Uiso   1.00
C6     C     0.38460   0.53840   0.12290   0.01267  Uiso   1.00
C7     C     0.37630   0.58490   0.98760   0.01267  Uiso   1.00
C8     C     0.65920   0.90000   0.03770   0.01267  Uiso   1.00
C9     C     0.51980   0.82550   0.06070   0.01267  Uiso   1.00
C10    C     0.82320   0.47850   0.48710   0.01267  Uiso   1.00
C11    C     0.85780   0.56790   0.15780   0.01267  Uiso   1.00
C12    C     0.97830   0.60350   0.41230   0.01267  Uiso   1.00
C13    C     0.87060   0.54880   0.30360   0.01267  Uiso   1.00
C14    C     0.17510   0.92810   0.85130   0.01267  Uiso   1.00
C15    C     0.88460   0.46160   0.87710   0.01267  Uiso   1.00
C16    C     0.87630   0.41510   0.01240   0.01267  Uiso   1.00
C17    C     0.15920   0.10000   0.96230   0.01267  Uiso   1.00
C18    C     0.01980   0.17450   0.93930   0.01267  Uiso   1.00
N1     N     0.55280   0.17350   0.13720   0.01267  Uiso   1.00
N2     N     0.50590   0.67030   0.97530   0.01267  Uiso   1.00
N3     N     0.44750   0.44100   0.47090   0.01267  Uiso   1.00
N4     N     0.27050   0.53230   0.64670   0.01267  Uiso   1.00
N5     N     0.05280   0.82650   0.86280   0.01267  Uiso   1.00
N6     N     0.00590   0.32970   0.02470   0.01267  Uiso   1.00
N7     N     0.94750   0.55900   0.52910   0.01267  Uiso   1.00
N8     N     0.77050   0.46770   0.35330   0.01267  Uiso   1.00
O1     O     0.51356   0.52440   0.16710   0.01267  Uiso   1.00
O2     O     0.26910   0.50940   0.17440   0.01267  Uiso   1.00
O3     O     0.42270   0.90290   0.15060   0.01267  Uiso   1.00
O4     O     0.01356   0.47560   0.83290   0.01267  Uiso   1.00
O5     O     0.76910   0.49060   0.82560   0.01267  Uiso   1.00
O6     O     0.92270   0.09710   0.84940   0.01267  Uiso   1.00
