data_FIPXEJ_clean
_audit_creation_date              2014-07-02
_audit_creation_method            'Materials Studio'
_symmetry_space_group_name_H-M    'P1'
_symmetry_Int_Tables_number       1
_symmetry_cell_setting            triclinic
loop_
_symmetry_equiv_pos_as_xyz
  x,y,z
_cell_length_a                    8.9687
_cell_length_b                    10.9060
_cell_length_c                    14.5850
_cell_angle_alpha                 96.5670
_cell_angle_beta                  90.0000
_cell_angle_gamma                 90.0000
loop_
_atom_site_label
_atom_site_type_symbol
_atom_site_fract_x
_atom_site_fract_y
_atom_site_fract_z
_atom_site_U_iso_or_equiv
_atom_site_adp_type
_atom_site_occupancy
Zn1    Zn    0.25328   0.06520   0.28097   0.01267  Uiso   1.00
Zn2    Zn    0.74755   0.36913   0.18782   0.01267  Uiso   1.00
Zn3    Zn    0.75328   0.93480   0.71903   0.01267  Uiso   1.00
Zn4    Zn    0.24755   0.63087   0.81218   0.01267  Uiso   1.00
H1     H     0.14350   0.42660   0.75810   0.01267  Uiso   1.00
H2     H     0.15600   0.49610   0.67710   0.01267  Uiso   1.00
H3     H     0.55040   0.20000   0.27930   0.01267  Uiso   1.00
H4     H     0.24820   0.18490   0.08170   0.01267  Uiso   1.00
H5     H     0.56160   0.51470   0.06370   0.01267  Uiso   1.00
H6     H     0.36360   0.33280   0.97400   0.01267  Uiso   1.00
H7     H     0.54150   0.32520   0.97640   0.01267  Uiso   1.00
H8     H     0.25740   0.60300   0.28800   0.01267  Uiso   1.00
H9     H     0.15610   0.64970   0.20870   0.01267  Uiso   1.00
H10    H     0.12340   0.87830   0.21060   0.01267  Uiso   1.00
H11    H     0.27720   0.87470   0.17320   0.01267  Uiso   1.00
H12    H     0.19640   0.79930   0.34180   0.01267  Uiso   1.00
H13    H     0.36630   0.80660   0.31000   0.01267  Uiso   1.00
H14    H     0.25850   0.73280   0.61410   0.01267  Uiso   1.00
H15    H     0.25870   0.50460   0.10220   0.01267  Uiso   1.00
H16    H     0.60640   0.02980   0.54410   0.01267  Uiso   1.00
H17    H     0.32870   0.04980   0.61460   0.01267  Uiso   1.00
H18    H     0.38710   0.36300   0.74460   0.01267  Uiso   1.00
H19    H     0.40640   0.44280   0.65980   0.01267  Uiso   1.00
H20    H     0.55010   0.77710   0.81830   0.01267  Uiso   1.00
H21    H     0.21680   0.23170   0.65960   0.01267  Uiso   1.00
H22    H     0.22280   0.31490   0.57620   0.01267  Uiso   1.00
H23    H     0.38190   0.84720   0.49500   0.01267  Uiso   1.00
H24    H     0.55690   0.82380   0.49840   0.01267  Uiso   1.00
H25    H     0.64350   0.57340   0.24190   0.01267  Uiso   1.00
H26    H     0.65600   0.50390   0.32290   0.01267  Uiso   1.00
H27    H     0.05040   0.80000   0.72070   0.01267  Uiso   1.00
H28    H     0.74820   0.81510   0.91830   0.01267  Uiso   1.00
H29    H     0.06160   0.48530   0.93630   0.01267  Uiso   1.00
H30    H     0.86360   0.66720   0.02600   0.01267  Uiso   1.00
H31    H     0.04150   0.67480   0.02360   0.01267  Uiso   1.00
H32    H     0.75740   0.39700   0.71200   0.01267  Uiso   1.00
H33    H     0.65610   0.35030   0.79130   0.01267  Uiso   1.00
H34    H     0.62340   0.12170   0.78940   0.01267  Uiso   1.00
H35    H     0.77720   0.12530   0.82680   0.01267  Uiso   1.00
H36    H     0.69640   0.20070   0.65820   0.01267  Uiso   1.00
H37    H     0.86630   0.19340   0.69000   0.01267  Uiso   1.00
H38    H     0.75850   0.26720   0.38590   0.01267  Uiso   1.00
H39    H     0.75870   0.49540   0.89780   0.01267  Uiso   1.00
H40    H     0.10640   0.97020   0.45590   0.01267  Uiso   1.00
H41    H     0.82870   0.95020   0.38540   0.01267  Uiso   1.00
H42    H     0.88710   0.63700   0.25540   0.01267  Uiso   1.00
H43    H     0.90640   0.55720   0.34020   0.01267  Uiso   1.00
H44    H     0.05010   0.22290   0.18170   0.01267  Uiso   1.00
H45    H     0.71680   0.76830   0.34040   0.01267  Uiso   1.00
H46    H     0.72280   0.68510   0.42380   0.01267  Uiso   1.00
H47    H     0.88190   0.15280   0.50500   0.01267  Uiso   1.00
H48    H     0.05690   0.17620   0.50160   0.01267  Uiso   1.00
C1     C     0.50000   0.21320   0.22400   0.01267  Uiso   1.00
C2     C     0.33550   0.20510   0.11710   0.01267  Uiso   1.00
C3     C     0.44410   0.28330   0.09440   0.01267  Uiso   1.00
C4     C     0.43910   0.55210   0.94760   0.01267  Uiso   1.00
C5     C     0.46050   0.49250   0.03800   0.01267  Uiso   1.00
C6     C     0.45240   0.35270   0.01310   0.01267  Uiso   1.00
C7     C     0.25330   0.66100   0.24060   0.01267  Uiso   1.00
C8     C     0.26320   0.79120   0.28740   0.01267  Uiso   1.00
C9     C     0.45760   0.82840   0.62280   0.01267  Uiso   1.00
C10    C     0.34380   0.75840   0.65000   0.01267  Uiso   1.00
C11    C     0.48140   0.02650   0.42290   0.01267  Uiso   1.00
C12    C     0.50210   0.00790   0.52430   0.01267  Uiso   1.00
C13    C     0.37540   0.63000   0.17220   0.01267  Uiso   1.00
C14    C     0.33470   0.39350   0.69190   0.01267  Uiso   1.00
C15    C     0.50290   0.78190   0.76050   0.01267  Uiso   1.00
C16    C     0.28260   0.28400   0.62580   0.01267  Uiso   1.00
C17    C     0.47380   0.87070   0.53030   0.01267  Uiso   1.00
C18    C     0.40610   0.20730   0.58340   0.01267  Uiso   1.00
C19    C     0.00000   0.78680   0.77600   0.01267  Uiso   1.00
C20    C     0.83550   0.79490   0.88290   0.01267  Uiso   1.00
C21    C     0.94410   0.71670   0.90560   0.01267  Uiso   1.00
C22    C     0.93910   0.44790   0.05240   0.01267  Uiso   1.00
C23    C     0.96050   0.50750   0.96200   0.01267  Uiso   1.00
C24    C     0.95240   0.64730   0.98690   0.01267  Uiso   1.00
C25    C     0.75330   0.33900   0.75940   0.01267  Uiso   1.00
C26    C     0.76320   0.20880   0.71260   0.01267  Uiso   1.00
C27    C     0.95760   0.17160   0.37720   0.01267  Uiso   1.00
C28    C     0.84380   0.24160   0.35000   0.01267  Uiso   1.00
C29    C     0.98140   0.97350   0.57710   0.01267  Uiso   1.00
C30    C     0.00210   0.99210   0.47570   0.01267  Uiso   1.00
C31    C     0.87540   0.37000   0.82780   0.01267  Uiso   1.00
C32    C     0.83470   0.60650   0.30810   0.01267  Uiso   1.00
C33    C     0.00290   0.21810   0.23950   0.01267  Uiso   1.00
C34    C     0.78260   0.71600   0.37420   0.01267  Uiso   1.00
C35    C     0.97380   0.12930   0.46970   0.01267  Uiso   1.00
C36    C     0.90610   0.79270   0.41660   0.01267  Uiso   1.00
N1     N     0.20700   0.47420   0.72750   0.01267  Uiso   1.00
N2     N     0.37300   0.73060   0.73820   0.01267  Uiso   1.00
N3     N     0.36990   0.15920   0.19900   0.01267  Uiso   1.00
N4     N     0.55360   0.28770   0.16420   0.01267  Uiso   1.00
N5     N     0.22230   0.88830   0.22660   0.01267  Uiso   1.00
N6     N     0.56330   0.84280   0.69250   0.01267  Uiso   1.00
N7     N     0.34790   0.53850   0.10560   0.01267  Uiso   1.00
N8     N     0.39650   0.08360   0.58190   0.01267  Uiso   1.00
N9     N     0.70700   0.52580   0.27250   0.01267  Uiso   1.00
N10    N     0.87300   0.26940   0.26180   0.01267  Uiso   1.00
N11    N     0.86990   0.84080   0.80100   0.01267  Uiso   1.00
N12    N     0.05360   0.71230   0.83580   0.01267  Uiso   1.00
N13    N     0.72230   0.11170   0.77340   0.01267  Uiso   1.00
N14    N     0.06330   0.15720   0.30750   0.01267  Uiso   1.00
N15    N     0.84790   0.46150   0.89440   0.01267  Uiso   1.00
N16    N     0.89650   0.91640   0.41810   0.01267  Uiso   1.00
O1     O     0.31230   0.60280   0.93500   0.01267  Uiso   1.00
O2     O     0.54310   0.54420   0.89020   0.01267  Uiso   1.00
O3     O     0.35150   0.06090   0.40000   0.01267  Uiso   1.00
O4     O     0.50010   0.68080   0.18040   0.01267  Uiso   1.00
O5     O     0.58920   0.00020   0.36940   0.01267  Uiso   1.00
O6     O     0.51530   0.25510   0.54730   0.01267  Uiso   1.00
O7     O     0.81230   0.39720   0.06500   0.01267  Uiso   1.00
O8     O     0.04310   0.45580   0.10980   0.01267  Uiso   1.00
O9     O     0.85150   0.93910   0.60000   0.01267  Uiso   1.00
O10    O     0.00010   0.31920   0.81960   0.01267  Uiso   1.00
O11    O     0.08920   0.99980   0.63060   0.01267  Uiso   1.00
O12    O     0.01530   0.74490   0.45270   0.01267  Uiso   1.00
