data_image0
_cell_length_a       9.2522
_cell_length_b       9.2556
_cell_length_c       9.4781
_cell_angle_alpha    90
_cell_angle_beta     118.419
_cell_angle_gamma    90

_symmetry_space_group_name_H-M    "P 1"
_symmetry_int_tables_number       1

loop_
  _symmetry_equiv_pos_as_xyz
  'x, y, z'

loop_
  _atom_site_label
  _atom_site_occupancy
  _atom_site_fract_x
  _atom_site_fract_y
  _atom_site_fract_z
  _atom_site_thermal_displace_type
  _atom_site_B_iso_or_equiv
  _atom_site_type_symbol
  Zn1      1.0000 0.27889  0.62679  0.86336  Biso   1.000  Zn
  N1       1.0000 0.10530  0.62680  0.93620  Biso   1.000  N
  H1       1.0000 0.09750  0.71820  0.97010  Biso   1.000  H
  H2       1.0000 0.00530  0.60400  0.85040  Biso   1.000  H
  O1       1.0000 0.16740  0.67770  0.63690  Biso   1.000  O
  N2       1.0000 0.63510  0.92860  0.13190  Biso   1.000  N
  C1       1.0000 0.11720  0.80530  0.58710  Biso   1.000  C
  O2       1.0000 0.16280  0.91420  0.67010  Biso   1.000  O
  C2       1.0000 0.98250  0.81440  0.41220  Biso   1.000  C
  H3       1.0000 0.00230  0.90150  0.36130  Biso   1.000  H
  C3       1.0000 0.50610  0.87810  0.99860  Biso   1.000  C
  H4       1.0000 0.45730  0.92670  0.89820  Biso   1.000  H
  C4       1.0000 0.67360  0.82620  0.24840  Biso   1.000  C
  N3       1.0000 0.97690  0.68810  0.32040  Biso   1.000  N
  H5       1.0000 0.92200  0.61250  0.32550  Biso   1.000  H
  N4       1.0000 0.45450  0.74910  0.02530  Biso   1.000  N
  C5       1.0000 0.56470  0.71530  0.18510  Biso   1.000  C
  H6       1.0000 0.56370  0.62960  0.23990  Biso   1.000  H
  C6       1.0000 0.14170  0.52370  0.06710  Biso   1.000  C
  H7       1.0000 0.25640  0.53830  0.15220  Biso   1.000  H
  H8       1.0000 0.13290  0.42420  0.02540  Biso   1.000  H
  C7       1.0000 0.81710  0.83230  0.41280  Biso   1.000  C
  H9       1.0000 0.80610  0.75490  0.47920  Biso   1.000  H
  H10      1.0000 0.81650  0.92610  0.46260  Biso   1.000  H
  C8       1.0000 0.04790  0.67880  0.23020  Biso   1.000  C
  C9       1.0000 0.02670  0.53890  0.14060  Biso   1.000  C
  H11      1.0000 0.91160  0.53200  0.05400  Biso   1.000  H
  H12      1.0000 0.04650  0.45730  0.21520  Biso   1.000  H
  O3       1.0000 0.12600  0.78010  0.21120  Biso   1.000  O
  Zn2      1.0000 0.72111  0.12679  0.13664  Biso   1.000  Zn
  N5       1.0000 0.89470  0.12680  0.06380  Biso   1.000  N
  H13      1.0000 0.90250  0.21820  0.02990  Biso   1.000  H
  H14      1.0000 0.99470  0.10400  0.14960  Biso   1.000  H
  O4       1.0000 0.83260  0.17770  0.36310  Biso   1.000  O
  N6       1.0000 0.36490  0.42860  0.86810  Biso   1.000  N
  C10      1.0000 0.88280  0.30530  0.41290  Biso   1.000  C
  O5       1.0000 0.83720  0.41420  0.32990  Biso   1.000  O
  C11      1.0000 0.01750  0.31440  0.58780  Biso   1.000  C
  H15      1.0000 0.99770  0.40150  0.63870  Biso   1.000  H
  C12      1.0000 0.49390  0.37810  0.00140  Biso   1.000  C
  H16      1.0000 0.54270  0.42670  0.10180  Biso   1.000  H
  C13      1.0000 0.32640  0.32620  0.75160  Biso   1.000  C
  N7       1.0000 0.02310  0.18810  0.67960  Biso   1.000  N
  H17      1.0000 0.07800  0.11250  0.67450  Biso   1.000  H
  N8       1.0000 0.54550  0.24910  0.97470  Biso   1.000  N
  C14      1.0000 0.43530  0.21530  0.81490  Biso   1.000  C
  H18      1.0000 0.43630  0.12960  0.76010  Biso   1.000  H
  C15      1.0000 0.85830  0.02370  0.93290  Biso   1.000  C
  H19      1.0000 0.74360  0.03830  0.84780  Biso   1.000  H
  H20      1.0000 0.86710  0.92420  0.97460  Biso   1.000  H
  C16      1.0000 0.18290  0.33230  0.58720  Biso   1.000  C
  H21      1.0000 0.19390  0.25490  0.52080  Biso   1.000  H
  H22      1.0000 0.18350  0.42610  0.53740  Biso   1.000  H
  C17      1.0000 0.95210  0.17880  0.76980  Biso   1.000  C
  C18      1.0000 0.97330  0.03890  0.85940  Biso   1.000  C
  H23      1.0000 0.08840  0.03200  0.94600  Biso   1.000  H
  H24      1.0000 0.95350  0.95730  0.78480  Biso   1.000  H
  O6       1.0000 0.87400  0.28010  0.78880  Biso   1.000  O
