data_FIRMUQ_clean
_audit_creation_date              2015-10-16
_audit_creation_method            'Materials Studio'
_symmetry_space_group_name_H-M    'P1'
_symmetry_Int_Tables_number       1
_symmetry_cell_setting            triclinic
loop_
_symmetry_equiv_pos_as_xyz
  x,y,z
_cell_length_a                    15.1738
_cell_length_b                    15.1738
_cell_length_c                    18.8590
_cell_angle_alpha                 90.0000
_cell_angle_beta                  90.0000
_cell_angle_gamma                 120.0000
loop_
_atom_site_label
_atom_site_type_symbol
_atom_site_fract_x
_atom_site_fract_y
_atom_site_fract_z
_atom_site_U_iso_or_equiv
_atom_site_adp_type
_atom_site_occupancy
Ni1    Ni    0.00000   0.83518   0.83333   0.01267  Uiso   1.00
Ni2    Ni    0.16482   0.16482   0.16667   0.01267  Uiso   1.00
Ni3    Ni    0.83518   0.00000   0.50000   0.01267  Uiso   1.00
H1     H     0.44000   0.49700   0.26490   0.01267  Uiso   1.00
H2     H     0.99170   0.91410   0.97863   0.01267  Uiso   1.00
H3     H     0.50300   0.94300   0.59823   0.01267  Uiso   1.00
H4     H     0.19360   0.84900   0.77793   0.01267  Uiso   1.00
H5     H     0.94740   0.65720   0.73710   0.01267  Uiso   1.00
H6     H     0.00830   0.92240   0.68803   0.01267  Uiso   1.00
H7     H     0.05260   0.70980   0.92957   0.01267  Uiso   1.00
H8     H     0.91410   0.99170   0.35470   0.01267  Uiso   1.00
H9     H     0.92240   0.00830   0.64530   0.01267  Uiso   1.00
H10    H     0.89500   0.87000   0.07883   0.01267  Uiso   1.00
H11    H     0.70980   0.05260   0.40377   0.01267  Uiso   1.00
H12    H     0.10250   0.39920   0.01137   0.01267  Uiso   1.00
H13    H     0.13000   0.02500   0.41217   0.01267  Uiso   1.00
H14    H     0.56000   0.05700   0.40177   0.01267  Uiso   1.00
H15    H     0.15100   0.34460   0.11127   0.01267  Uiso   1.00
H16    H     0.07760   0.08590   0.02137   0.01267  Uiso   1.00
H17    H     0.08590   0.07760   0.31197   0.01267  Uiso   1.00
H18    H     0.65720   0.94740   0.59623   0.01267  Uiso   1.00
H19    H     0.97500   0.10500   0.74550   0.01267  Uiso   1.00
H20    H     0.60080   0.70330   0.34470   0.01267  Uiso   1.00
H21    H     0.84900   0.19360   0.55540   0.01267  Uiso   1.00
H22    H     0.87000   0.89500   0.25450   0.01267  Uiso   1.00
H23    H     0.05700   0.56000   0.93157   0.01267  Uiso   1.00
H24    H     0.89750   0.29670   0.65530   0.01267  Uiso   1.00
H25    H     0.80640   0.65540   0.88873   0.01267  Uiso   1.00
H26    H     0.29020   0.34280   0.26290   0.01267  Uiso   1.00
H27    H     0.49700   0.44000   0.06843   0.01267  Uiso   1.00
H28    H     0.29670   0.89750   0.67803   0.01267  Uiso   1.00
H29    H     0.70330   0.60080   0.98863   0.01267  Uiso   1.00
H30    H     0.34280   0.29020   0.07043   0.01267  Uiso   1.00
H31    H     0.34460   0.15100   0.22207   0.01267  Uiso   1.00
H32    H     0.02500   0.13000   0.92117   0.01267  Uiso   1.00
H33    H     0.94300   0.50300   0.73510   0.01267  Uiso   1.00
H34    H     0.65540   0.80640   0.44460   0.01267  Uiso   1.00
H35    H     0.10500   0.97500   0.58783   0.01267  Uiso   1.00
H36    H     0.39920   0.10250   0.32197   0.01267  Uiso   1.00
C1     C     0.17583   0.87433   0.73889   0.01267  Uiso   1.00
C2     C     0.36325   0.33198   0.11029   0.01267  Uiso   1.00
C3     C     0.87573   0.82473   0.04104   0.01267  Uiso   1.00
C4     C     0.81343   0.78873   0.74345   0.01267  Uiso   1.00
C5     C     0.21058   0.94130   0.62157   0.01267  Uiso   1.00
C6     C     0.27799   0.98780   0.96327   0.01267  Uiso   1.00
C7     C     0.58281   0.58281   0.16667   0.01267  Uiso   1.00
C8     C     0.72201   0.70981   0.70339   0.01267  Uiso   1.00
C9     C     0.17527   0.05100   0.37438   0.01267  Uiso   1.00
C10    C     0.30150   0.12567   0.26111   0.01267  Uiso   1.00
C11    C     0.02808   0.30327   0.88987   0.01267  Uiso   1.00
C12    C     0.03127   0.66802   0.88971   0.01267  Uiso   1.00
C13    C     0.97192   0.27519   0.77680   0.01267  Uiso   1.00
C14    C     0.56210   0.55220   0.70400   0.01267  Uiso   1.00
C15    C     0.99010   0.43790   0.37067   0.01267  Uiso   1.00
C16    C     0.08216   0.14934   0.01948   0.01267  Uiso   1.00
C17    C     0.82417   0.69850   0.92777   0.01267  Uiso   1.00
C18    C     0.78873   0.81343   0.58988   0.01267  Uiso   1.00
C19    C     0.97530   0.18657   0.41012   0.01267  Uiso   1.00
C20    C     0.63675   0.96873   0.55637   0.01267  Uiso   1.00
C21    C     0.33198   0.36325   0.22304   0.01267  Uiso   1.00
C22    C     0.94130   0.21058   0.71176   0.01267  Uiso   1.00
C23    C     0.12427   0.94900   0.62562   0.01267  Uiso   1.00
C24    C     0.05100   0.17527   0.95896   0.01267  Uiso   1.00
C25    C     0.76139   0.66471   0.98740   0.01267  Uiso   1.00
C26    C     0.94900   0.12427   0.70771   0.01267  Uiso   1.00
C27    C     0.00000   0.51528   0.83333   0.01267  Uiso   1.00
C28    C     0.35290   0.97620   0.92916   0.01267  Uiso   1.00
C29    C     0.69850   0.82417   0.40556   0.01267  Uiso   1.00
C30    C     0.87433   0.17583   0.59444   0.01267  Uiso   1.00
C31    C     0.91784   0.06718   0.64719   0.01267  Uiso   1.00
C32    C     0.96662   0.54440   0.77506   0.01267  Uiso   1.00
C33    C     0.97620   0.35290   0.40417   0.01267  Uiso   1.00
C34    C     0.66471   0.76139   0.34593   0.01267  Uiso   1.00
C35    C     0.57778   0.03338   0.44173   0.01267  Uiso   1.00
C36    C     0.85066   0.93282   0.35281   0.01267  Uiso   1.00
C37    C     0.78942   0.73072   0.04509   0.01267  Uiso   1.00
C38    C     0.30327   0.02808   0.44347   0.01267  Uiso   1.00
C39    C     0.90332   0.23861   0.65407   0.01267  Uiso   1.00
C40    C     0.55220   0.56210   0.62933   0.01267  Uiso   1.00
C41    C     0.48472   0.48472   0.16667   0.01267  Uiso   1.00
C42    C     0.64710   0.62330   0.73750   0.01267  Uiso   1.00
C43    C     0.06718   0.91784   0.68614   0.01267  Uiso   1.00
C44    C     0.02470   0.21127   0.25655   0.01267  Uiso   1.00
C45    C     0.41719  -0.00000   0.50000   0.01267  Uiso   1.00
C46    C     0.26928   0.05870   0.37843   0.01267  Uiso   1.00
C47    C     0.72481   0.69673   0.11013   0.01267  Uiso   1.00
C48    C     0.05870   0.26928   0.95491   0.01267  Uiso   1.00
C49    C     0.02380   0.37670   0.26250   0.01267  Uiso   1.00
C50    C     0.51528  -0.00000   0.50000   0.01267  Uiso   1.00
C51    C     0.96873   0.63675   0.77696   0.01267  Uiso   1.00
C52    C     0.42222   0.45560   0.22494   0.01267  Uiso   1.00
C53    C     0.69673   0.72481   0.22320   0.01267  Uiso   1.00
C54    C     0.14934   0.08216   0.31386   0.01267  Uiso   1.00
C55    C     0.01220   0.29019   0.29661   0.01267  Uiso   1.00
C56    C     0.62330   0.64710   0.59583   0.01267  Uiso   1.00
C57    C     0.23861   0.90332   0.67926   0.01267  Uiso   1.00
C58    C     0.27519   0.97192   0.55653   0.01267  Uiso   1.00
C59    C     0.98780   0.27799   0.37006   0.01267  Uiso   1.00
C60    C     0.00000   0.41719   0.83333   0.01267  Uiso   1.00
C61    C     0.70981   0.72201   0.62994   0.01267  Uiso   1.00
C62    C     0.12567   0.30150   0.07223   0.01267  Uiso   1.00
C63    C     0.44780   0.00990   0.03734   0.01267  Uiso   1.00
C64    C     0.82473   0.87573   0.29229   0.01267  Uiso   1.00
C65    C     0.93282   0.85066   0.98052   0.01267  Uiso   1.00
C66    C     0.09668   0.33529   0.01260   0.01267  Uiso   1.00
C67    C     0.18657   0.97530   0.92321   0.01267  Uiso   1.00
C68    C     0.37670   0.02380   0.07084   0.01267  Uiso   1.00
C69    C     0.54440   0.96662   0.55827   0.01267  Uiso   1.00
C70    C     0.29019   0.01220   0.03673   0.01267  Uiso   1.00
C71    C     0.03338   0.57778   0.89161   0.01267  Uiso   1.00
C72    C     0.43790   0.99010   0.96266   0.01267  Uiso   1.00
C73    C     0.21127   0.02470   0.07679   0.01267  Uiso   1.00
C74    C     0.66802   0.03127   0.44363   0.01267  Uiso   1.00
C75    C     0.73072   0.78942   0.28824   0.01267  Uiso   1.00
C76    C     0.33529   0.09668   0.32074   0.01267  Uiso   1.00
C77    C     0.45560   0.42222   0.10839   0.01267  Uiso   1.00
C78    C     0.00990   0.44780   0.29600   0.01267  Uiso   1.00
N1     N     0.90889   0.78995   0.92374   0.01267  Uiso   1.00
N2     N     0.00000   0.69702   0.83333   0.01267  Uiso   1.00
N3     N     0.00000   0.24089   0.83333   0.01267  Uiso   1.00
N4     N     0.97290   0.36354   0.77354   0.01267  Uiso   1.00
N5     N     0.75911   0.75911   0.16667   0.01267  Uiso   1.00
N6     N     0.24089   0.00000   0.50000   0.01267  Uiso   1.00
N7     N     0.36354   0.97290   0.55979   0.01267  Uiso   1.00
N8     N     0.60936   0.63646   0.22646   0.01267  Uiso   1.00
N9     N     0.21005   0.11894   0.25708   0.01267  Uiso   1.00
N10    N     0.02710   0.39064   0.89313   0.01267  Uiso   1.00
N11    N     0.09111   0.88106   0.74292   0.01267  Uiso   1.00
N12    N     0.11894   0.21005   0.07626   0.01267  Uiso   1.00
N13    N     0.30298   0.30298   0.16667   0.01267  Uiso   1.00
N14    N     0.39064   0.02710   0.44021   0.01267  Uiso   1.00
N15    N     0.88106   0.09111   0.59041   0.01267  Uiso   1.00
N16    N     0.69702   0.00000   0.50000   0.01267  Uiso   1.00
N17    N     0.78995   0.90889   0.40959   0.01267  Uiso   1.00
N18    N     0.63646   0.60936   0.10687   0.01267  Uiso   1.00
O1     O     0.13080   0.89120   0.89519   0.01267  Uiso   1.00
O2     O     0.86920   0.76040   0.77147   0.01267  Uiso   1.00
O3     O     0.17463   0.05133   0.92188   0.01267  Uiso   1.00
O4     O     0.87670   0.82537   0.58855   0.01267  Uiso   1.00
O5     O     0.76040   0.86920   0.56186   0.01267  Uiso   1.00
O6     O     0.82537   0.87670   0.74478   0.01267  Uiso   1.00
O7     O     0.23960   0.10880   0.10481   0.01267  Uiso   1.00
O8     O     0.94867   0.12330   0.25522   0.01267  Uiso   1.00
O9     O     0.89120   0.13080   0.43814   0.01267  Uiso   1.00
O10    O     0.05133   0.17463   0.41145   0.01267  Uiso   1.00
O11    O     0.10880   0.23960   0.22853   0.01267  Uiso   1.00
O12    O     0.12330   0.94867   0.07812   0.01267  Uiso   1.00
F1     F     0.38856   0.04261   0.14097   0.01267  Uiso   1.00
F2     F     0.02280   0.53106   0.26284   0.01267  Uiso   1.00
F3     F     0.49174   0.46894   0.73716   0.01267  Uiso   1.00
F4     F     0.53106   0.02280   0.07050   0.01267  Uiso   1.00
F5     F     0.34595   0.95739   0.85903   0.01267  Uiso   1.00
F6     F     0.04261   0.38856   0.19237   0.01267  Uiso   1.00
F7     F     0.65405   0.61144   0.80763   0.01267  Uiso   1.00
F8     F     0.61144   0.65405   0.52570   0.01267  Uiso   1.00
F9     F     0.95739   0.34595   0.47430   0.01267  Uiso   1.00
F10    F     0.46894   0.49174   0.59617   0.01267  Uiso   1.00
F11    F     0.97720   0.50826   0.40383   0.01267  Uiso   1.00
F12    F     0.50826   0.97720   0.92950   0.01267  Uiso   1.00
