data_FIRNUR_clean
_audit_creation_date              2015-10-16
_audit_creation_method            'Materials Studio'
_symmetry_space_group_name_H-M    'P1'
_symmetry_Int_Tables_number       1
_symmetry_cell_setting            triclinic
loop_
_symmetry_equiv_pos_as_xyz
  x,y,z
_cell_length_a                    15.6730
_cell_length_b                    15.6730
_cell_length_c                    18.5320
_cell_angle_alpha                 90.0000
_cell_angle_beta                  90.0000
_cell_angle_gamma                 120.0000
loop_
_atom_site_label
_atom_site_type_symbol
_atom_site_fract_x
_atom_site_fract_y
_atom_site_fract_z
_atom_site_U_iso_or_equiv
_atom_site_adp_type
_atom_site_occupancy
Ni1    Ni    0.00000   0.17763   0.16667   0.01267  Uiso   1.00
Ni2    Ni    0.82237   0.82237   0.83333   0.01267  Uiso   1.00
Ni3    Ni    0.17763  -0.00000   0.50000   0.01267  Uiso   1.00
H1     H     0.88520   0.88780   0.68003   0.01267  Uiso   1.00
H2     H     0.56080   0.49560   0.73460   0.01267  Uiso   1.00
H3     H     0.93480   0.43920   0.06793   0.01267  Uiso   1.00
H4     H     0.39540   0.29710   0.65210   0.01267  Uiso   1.00
H5     H     0.11220   0.99740   0.34670   0.01267  Uiso   1.00
H6     H     0.95790   0.85210   0.08153   0.01267  Uiso   1.00
H7     H     0.06100   0.52770   0.54930   0.01267  Uiso   1.00
H8     H     0.34530   0.19950   0.55190   0.01267  Uiso   1.00
H9     H     0.37380   0.31240   0.45320   0.01267  Uiso   1.00
H10    H     0.85420   0.65470   0.88523   0.01267  Uiso   1.00
H11    H     0.09830   0.70290   0.34790   0.01267  Uiso   1.00
H12    H     0.04210   0.89420   0.25180   0.01267  Uiso   1.00
H13    H     0.11480   0.00260   0.65330   0.01267  Uiso   1.00
H14    H     0.88780   0.88520   0.98663   0.01267  Uiso   1.00
H15    H     0.89420   0.04210   0.41487   0.01267  Uiso   1.00
H16    H     0.47480   0.04390   0.05327   0.01267  Uiso   1.00
H17    H     0.64220   0.70870   0.92187   0.01267  Uiso   1.00
H18    H     0.14790   0.10580   0.74820   0.01267  Uiso   1.00
H19    H     0.04390   0.47480   0.61340   0.01267  Uiso   1.00
H20    H     0.00260   0.11480   0.01337   0.01267  Uiso   1.00
H21    H     0.43920   0.93480   0.59873   0.01267  Uiso   1.00
H22    H     0.29130   0.93350   0.58853   0.01267  Uiso   1.00
H23    H     0.19950   0.34530   0.11477   0.01267  Uiso   1.00
H24    H     0.70290   0.09830   0.31877   0.01267  Uiso   1.00
H25    H     0.31240   0.37380   0.21347   0.01267  Uiso   1.00
H26    H     0.29710   0.39540   0.01457   0.01267  Uiso   1.00
H27    H     0.56910   0.52520   0.38660   0.01267  Uiso   1.00
H28    H     0.52520   0.56910   0.28007   0.01267  Uiso   1.00
H29    H     0.35780   0.06650   0.41147   0.01267  Uiso   1.00
H30    H     0.06650   0.35780   0.25520   0.01267  Uiso   1.00
H31    H     0.14580   0.80050   0.44810   0.01267  Uiso   1.00
H32    H     0.70870   0.64220   0.74480   0.01267  Uiso   1.00
H33    H     0.62620   0.93860   0.88013   0.01267  Uiso   1.00
H34    H     0.47230   0.53330   0.21597   0.01267  Uiso   1.00
H35    H     0.06140   0.68760   0.54680   0.01267  Uiso   1.00
H36    H     0.10580   0.14790   0.91847   0.01267  Uiso   1.00
H37    H     0.85210   0.95790   0.58513   0.01267  Uiso   1.00
H38    H     0.93350   0.29130   0.07813   0.01267  Uiso   1.00
H39    H     0.93900   0.46670   0.78403   0.01267  Uiso   1.00
H40    H     0.06520   0.50440   0.26540   0.01267  Uiso   1.00
H41    H     0.95610   0.43090   0.71993   0.01267  Uiso   1.00
H42    H     0.60460   0.90170   0.68123   0.01267  Uiso   1.00
H43    H     0.90170   0.60460   0.98543   0.01267  Uiso   1.00
H44    H     0.50440   0.06520   0.40127   0.01267  Uiso   1.00
H45    H     0.93860   0.62620   0.78653   0.01267  Uiso   1.00
H46    H     0.65470   0.85420   0.78143   0.01267  Uiso   1.00
H47    H     0.53330   0.47230   0.45070   0.01267  Uiso   1.00
H48    H     0.99740   0.11220   0.31997   0.01267  Uiso   1.00
H49    H     0.68760   0.06140   0.11987   0.01267  Uiso   1.00
H50    H     0.52770   0.06100   0.11737   0.01267  Uiso   1.00
H51    H     0.49560   0.56080   0.93207   0.01267  Uiso   1.00
H52    H     0.46670   0.93900   0.88263   0.01267  Uiso   1.00
H53    H     0.43090   0.95610   0.94673   0.01267  Uiso   1.00
H54    H     0.80050   0.14580   0.21857   0.01267  Uiso   1.00
C1     C     0.66370   0.62660   0.78220   0.01267  Uiso   1.00
C2     C     0.67290   0.03700   0.07307   0.01267  Uiso   1.00
C3     C     0.19230   0.12410   0.71010   0.01267  Uiso   1.00
C4     C     0.21150   0.28100   0.95387   0.01267  Uiso   1.00
C5     C     0.06950   0.78850   0.28720   0.01267  Uiso   1.00
C6     C     0.80770   0.93180   0.62323   0.01267  Uiso   1.00
C7     C     0.58710   0.01750   0.04087   0.01267  Uiso   1.00
C8     C     0.17050   0.06500   0.65130   0.01267  Uiso   1.00
C9     C     0.46430   0.03940   0.44177   0.01267  Uiso   1.00
C10    C     0.02010   0.73610   0.63140   0.01267  Uiso   1.00
C11    C     0.96280   0.78720   0.74243   0.01267  Uiso   1.00
C12    C     0.00000   0.58620   0.16667   0.01267  Uiso   1.00
C13    C     0.93050   0.71900   0.04613   0.01267  Uiso   1.00
C14    C     0.90160   0.66380   0.98633   0.01267  Uiso   1.00
C15    C     0.09840   0.76220   0.34700   0.01267  Uiso   1.00
C16    C     0.17850   0.30660   0.07337   0.01267  Uiso   1.00
C17    C     0.21280   0.17560   0.40910   0.01267  Uiso   1.00
C18    C     0.01750   0.58710   0.62580   0.01267  Uiso   1.00
C19    C     0.41290   0.43040   0.29247   0.01267  Uiso   1.00
C20    C     0.89450   0.82950   0.98463   0.01267  Uiso   1.00
C21    C     0.96290   0.33630   0.11553   0.01267  Uiso   1.00
C22    C     0.69340   0.87190   0.74003   0.01267  Uiso   1.00
C23    C     0.71900   0.93050   0.62053   0.01267  Uiso   1.00
C24    C     0.66380   0.90160   0.68033   0.01267  Uiso   1.00
C25    C     0.03710   0.37340   0.21780   0.01267  Uiso   1.00
C26    C     0.17560   0.21280   0.25757   0.01267  Uiso   1.00
C27    C     0.28100   0.21150   0.71280   0.01267  Uiso   1.00
C28    C     0.28400   0.26390   0.36860   0.01267  Uiso   1.00
C29    C     0.82150   0.12810   0.25997   0.01267  Uiso   1.00
C30    C     0.03700   0.67290   0.59360   0.01267  Uiso   1.00
C31    C     0.06500   0.17050   0.01537   0.01267  Uiso   1.00
C32    C     0.26390   0.28400   0.29807   0.01267  Uiso   1.00
C33    C     0.98250   0.56960   0.70753   0.01267  Uiso   1.00
C34    C     0.33630   0.96290   0.55113   0.01267  Uiso   1.00
C35    C     0.78850   0.06950   0.37947   0.01267  Uiso   1.00
C36    C     0.36410   0.32710   0.40640   0.01267  Uiso   1.00
C37    C     0.43040   0.41290   0.37420   0.01267  Uiso   1.00
C38    C     0.97990   0.71600   0.70193   0.01267  Uiso   1.00
C39    C     0.03720   0.82440   0.59090   0.01267  Uiso   1.00
C40    C     0.76220   0.09840   0.31967   0.01267  Uiso   1.00
C41    C     0.62660   0.66370   0.88447   0.01267  Uiso   1.00
C42    C     0.57510   0.53570   0.77510   0.01267  Uiso   1.00
C43    C     0.41380   0.41380   0.83333   0.01267  Uiso   1.00
C44    C     0.58620  -0.00000   0.50000   0.01267  Uiso   1.00
C45    C     0.03380   0.72210   0.22360   0.01267  Uiso   1.00
C46    C     0.96300   0.63590   0.73973   0.01267  Uiso   1.00
C47    C     0.68830   0.96620   0.55693   0.01267  Uiso   1.00
C48    C     0.06820   0.87590   0.28990   0.01267  Uiso   1.00
C49    C     0.30660   0.17850   0.59330   0.01267  Uiso   1.00
C50    C     0.87590   0.06820   0.37677   0.01267  Uiso   1.00
C51    C     0.12810   0.82150   0.40670   0.01267  Uiso   1.00
C52    C     0.96060   0.42490   0.10843   0.01267  Uiso   1.00
C53    C     0.51100   0.51100   0.83333   0.01267  Uiso   1.00
C54    C     0.87190   0.69340   0.92663   0.01267  Uiso   1.00
C55    C     0.03940   0.46430   0.22490   0.01267  Uiso   1.00
C56    C     0.27790   0.31170   0.89027   0.01267  Uiso   1.00
C57    C     0.78720   0.96280   0.92423   0.01267  Uiso   1.00
C58    C     0.53570   0.57510   0.89157   0.01267  Uiso   1.00
C59    C     0.73610   0.02010   0.03527   0.01267  Uiso   1.00
C60    C     0.72210   0.03380   0.44307   0.01267  Uiso   1.00
C61    C     0.56960   0.98250   0.95913   0.01267  Uiso   1.00
C62    C     0.37340   0.03710   0.44887   0.01267  Uiso   1.00
C63    C     0.93500   0.10550   0.31797   0.01267  Uiso   1.00
C64    C     0.12410   0.19230   0.95657   0.01267  Uiso   1.00
C65    C     0.82440   0.03720   0.07577   0.01267  Uiso   1.00
C66    C     0.33620   0.23780   0.65300   0.01267  Uiso   1.00
C67    C     0.42490   0.96060   0.55823   0.01267  Uiso   1.00
C68    C     0.93180   0.80770   0.04343   0.01267  Uiso   1.00
C69    C     0.96620   0.68830   0.10973   0.01267  Uiso   1.00
C70    C     0.82950   0.89450   0.68203   0.01267  Uiso   1.00
C71    C     0.71600   0.97990   0.96473   0.01267  Uiso   1.00
C72    C     0.32710   0.36410   0.26027   0.01267  Uiso   1.00
C73    C     0.23780   0.33620   0.01367   0.01267  Uiso   1.00
C74    C     0.10550   0.93500   0.34870   0.01267  Uiso   1.00
C75    C     0.00000   0.48900   0.16667   0.01267  Uiso   1.00
C76    C     0.48900  -0.00000   0.50000   0.01267  Uiso   1.00
C77    C     0.63590   0.96300   0.92693   0.01267  Uiso   1.00
C78    C     0.31170   0.27790   0.77640   0.01267  Uiso   1.00
N1     N     0.96490   0.60390   0.10823   0.01267  Uiso   1.00
N2     N     0.91030   0.13210   0.25987   0.01267  Uiso   1.00
N3     N     0.36100   0.39610   0.89177   0.01267  Uiso   1.00
N4     N     0.77820   0.86790   0.74013   0.01267  Uiso   1.00
N5     N     0.69110   0.69110   0.83333   0.01267  Uiso   1.00
N6     N    -0.00000   0.75240   0.16667   0.01267  Uiso   1.00
N7     N     0.22180   0.08970   0.59320   0.01267  Uiso   1.00
N8     N     0.51970   0.03700   0.07267   0.01267  Uiso   1.00
N9     N     0.13210   0.91030   0.40680   0.01267  Uiso   1.00
N10    N     0.48270   0.96300   0.92733   0.01267  Uiso   1.00
N11    N     0.60390   0.96490   0.55843   0.01267  Uiso   1.00
N12    N     0.03700   0.51970   0.59400   0.01267  Uiso   1.00
N13    N     0.75240  -0.00000   0.50000   0.01267  Uiso   1.00
N14    N     0.51730   0.48030   0.40600   0.01267  Uiso   1.00
N15    N     0.30890  -0.00000   0.50000   0.01267  Uiso   1.00
N16    N     0.86790   0.77820   0.92653   0.01267  Uiso   1.00
N17    N     0.03510   0.63900   0.22510   0.01267  Uiso   1.00
N18    N     0.39610   0.36100   0.77490   0.01267  Uiso   1.00
N19    N     0.63900   0.03510   0.44157   0.01267  Uiso   1.00
N20    N     0.24760   0.24760   0.83333   0.01267  Uiso   1.00
N21    N     0.00000   0.30890   0.16667   0.01267  Uiso   1.00
N22    N     0.08970   0.22180   0.07347   0.01267  Uiso   1.00
N23    N     0.96300   0.48270   0.73933   0.01267  Uiso   1.00
N24    N     0.48030   0.51730   0.26067   0.01267  Uiso   1.00
O1     O     0.87450   0.11970   0.10347   0.01267  Uiso   1.00
O2     O     0.15540   0.12520   0.25017   0.01267  Uiso   1.00
O3     O     0.12550   0.24520   0.22987   0.01267  Uiso   1.00
O4     O     0.96980   0.84460   0.58350   0.01267  Uiso   1.00
O5     O     0.75480   0.88030   0.89653   0.01267  Uiso   1.00
O6     O     0.12520   0.15540   0.41650   0.01267  Uiso   1.00
O7     O     0.88030   0.75480   0.77013   0.01267  Uiso   1.00
O8     O     0.24520   0.12550   0.43680   0.01267  Uiso   1.00
O9     O     0.84460   0.96980   0.08317   0.01267  Uiso   1.00
O10    O     0.11970   0.87450   0.56320   0.01267  Uiso   1.00
O11    O     0.03020   0.87480   0.74983   0.01267  Uiso   1.00
O12    O     0.87480   0.03020   0.91683   0.01267  Uiso   1.00
