data_FIRNAX01_clean
_audit_creation_date              2015-10-16
_audit_creation_method            'Materials Studio'
_symmetry_space_group_name_H-M    'P1'
_symmetry_Int_Tables_number       1
_symmetry_cell_setting            triclinic
loop_
_symmetry_equiv_pos_as_xyz
  x,y,z
_cell_length_a                    15.6980
_cell_length_b                    15.6980
_cell_length_c                    18.5570
_cell_angle_alpha                 90.0000
_cell_angle_beta                  90.0000
_cell_angle_gamma                 120.0000
loop_
_atom_site_label
_atom_site_type_symbol
_atom_site_fract_x
_atom_site_fract_y
_atom_site_fract_z
_atom_site_U_iso_or_equiv
_atom_site_adp_type
_atom_site_occupancy
Ni1    Ni    0.00000   0.82207   0.83333   0.01267  Uiso   1.00
Ni2    Ni    0.82207  -0.00000   0.50000   0.01267  Uiso   1.00
Ni3    Ni    0.17793   0.17793   0.16667   0.01267  Uiso   1.00
H1     H     0.49560   0.93410   0.59600   0.01267  Uiso   1.00
H2     H     0.80500   0.65440   0.88627   0.01267  Uiso   1.00
H3     H     0.60200   0.70230   0.34907   0.01267  Uiso   1.00
H4     H     0.10030   0.39800   0.01573   0.01267  Uiso   1.00
H5     H     0.49990   0.54060   0.60973   0.01267  Uiso   1.00
H6     H     0.04570   0.15030   0.91453   0.01267  Uiso   1.00
H7     H     0.29770   0.89970   0.68240   0.01267  Uiso   1.00
H8     H     0.95930   0.45940   0.39027   0.01267  Uiso   1.00
H9     H     0.93410   0.49560   0.73733   0.01267  Uiso   1.00
H10    H     0.50440   0.43850   0.07067   0.01267  Uiso   1.00
H11    H     0.70230   0.60200   0.98427   0.01267  Uiso   1.00
H12    H     0.93510   0.64080   0.73983   0.01267  Uiso   1.00
H13    H     0.04070   0.50010   0.27640   0.01267  Uiso   1.00
H14    H     0.10370   0.10890   0.01373   0.01267  Uiso   1.00
H15    H     0.15060   0.34560   0.11373   0.01267  Uiso   1.00
H16    H     0.99480   0.89110   0.98627   0.01267  Uiso   1.00
H17    H     0.35920   0.29430   0.07317   0.01267  Uiso   1.00
H18    H     0.64080   0.93510   0.59350   0.01267  Uiso   1.00
H19    H     0.06590   0.56150   0.92933   0.01267  Uiso   1.00
H20    H     0.10460   0.95430   0.58120   0.01267  Uiso   1.00
H21    H     0.89540   0.84970   0.08547   0.01267  Uiso   1.00
H22    H     0.95430   0.10460   0.75213   0.01267  Uiso   1.00
H23    H     0.19500   0.84940   0.78040   0.01267  Uiso   1.00
H24    H     0.89110   0.99480   0.34707   0.01267  Uiso   1.00
H25    H     0.45940   0.95930   0.94307   0.01267  Uiso   1.00
H26    H     0.56150   0.06590   0.40400   0.01267  Uiso   1.00
H27    H     0.29430   0.35920   0.26017   0.01267  Uiso   1.00
H28    H     0.84940   0.19500   0.55293   0.01267  Uiso   1.00
H29    H     0.15030   0.04570   0.41880   0.01267  Uiso   1.00
H30    H     0.84970   0.89540   0.24787   0.01267  Uiso   1.00
H31    H     0.00520   0.89630   0.68040   0.01267  Uiso   1.00
H32    H     0.70570   0.06490   0.40650   0.01267  Uiso   1.00
H33    H     0.50010   0.04070   0.05693   0.01267  Uiso   1.00
H34    H     0.34560   0.15060   0.21960   0.01267  Uiso   1.00
H35    H     0.89630   0.00520   0.65293   0.01267  Uiso   1.00
H36    H     0.89970   0.29770   0.65093   0.01267  Uiso   1.00
H37    H     0.06490   0.70570   0.92683   0.01267  Uiso   1.00
H38    H     0.10890   0.10370   0.31960   0.01267  Uiso   1.00
H39    H     0.43850   0.50440   0.26267   0.01267  Uiso   1.00
H40    H     0.39800   0.10030   0.31760   0.01267  Uiso   1.00
H41    H     0.54060   0.49990   0.72360   0.01267  Uiso   1.00
H42    H     0.65440   0.80500   0.44707   0.01267  Uiso   1.00
C1     C     0.96200   0.62450   0.77849   0.01267  Uiso   1.00
C2     C     0.02180   0.44020   0.29870   0.01267  Uiso   1.00
C3     C     0.33300   0.96460   0.93207   0.01267  Uiso   1.00
C4     C     0.26510   0.98170   0.96520   0.01267  Uiso   1.00
C5     C     0.21030   0.03640   0.07714   0.01267  Uiso   1.00
C6     C     0.13050   0.30660   0.07255   0.01267  Uiso   1.00
C7     C     0.10220   0.16740   0.01426   0.01267  Uiso   1.00
C8     C     0.71660   0.73490   0.63186   0.01267  Uiso   1.00
C9     C     0.01830   0.28340   0.29853   0.01267  Uiso   1.00
C10    C     0.53750   0.96100   0.55670   0.01267  Uiso   1.00
C11    C     0.23870   0.90010   0.68086   0.01267  Uiso   1.00
C12    C     0.93160   0.12380   0.71258   0.01267  Uiso   1.00
C13    C     0.03330   0.31070   0.88857   0.01267  Uiso   1.00
C14    C     0.66250   0.03800   0.44516   0.01267  Uiso   1.00
C15    C     0.82390   0.69340   0.92745   0.01267  Uiso   1.00
C16    C     0.03900   0.57650   0.89003   0.01267  Uiso   1.00
C17    C     0.93480   0.83260   0.98574   0.01267  Uiso   1.00
C18    C     0.89780   0.06520   0.65240   0.01267  Uiso   1.00
C19    C     0.51180  -0.00000   0.50000   0.01267  Uiso   1.00
C20    C     0.96100   0.53750   0.77663   0.01267  Uiso   1.00
C21    C     0.03800   0.66250   0.88817   0.01267  Uiso   1.00
C22    C     0.17390   0.96360   0.92286   0.01267  Uiso   1.00
C23    C     0.66700   0.63160   0.73460   0.01267  Uiso   1.00
C24    C     0.96670   0.27740   0.77809   0.01267  Uiso   1.00
C25    C     0.00000   0.51180   0.83333   0.01267  Uiso   1.00
C26    C     0.42350   0.46250   0.22337   0.01267  Uiso   1.00
C27    C     0.06520   0.89780   0.68093   0.01267  Uiso   1.00
C28    C     0.09990   0.33860   0.01419   0.01267  Uiso   1.00
C29    C     0.57650   0.03900   0.44330   0.01267  Uiso   1.00
C30    C     0.12380   0.93160   0.62075   0.01267  Uiso   1.00
C31    C     0.31070   0.03330   0.44476   0.01267  Uiso   1.00
C32    C     0.37550   0.33750   0.11183   0.01267  Uiso   1.00
C33    C     0.06840   0.19220   0.95408   0.01267  Uiso   1.00
C34    C     0.90010   0.23870   0.65247   0.01267  Uiso   1.00
C35    C     0.41840   0.97820   0.96537   0.01267  Uiso   1.00
C36    C     0.17610   0.86950   0.73922   0.01267  Uiso   1.00
C37    C     0.78970   0.82610   0.58952   0.01267  Uiso   1.00
C38    C     0.30660   0.13050   0.26078   0.01267  Uiso   1.00
C39    C     0.98170   0.26510   0.36814   0.01267  Uiso   1.00
C40    C     0.21140   0.93140   0.61994   0.01267  Uiso   1.00
C41    C     0.87620   0.80780   0.04592   0.01267  Uiso   1.00
C42    C     0.00000   0.41690   0.83333   0.01267  Uiso   1.00
C43    C     0.27740   0.96670   0.55524   0.01267  Uiso   1.00
C44    C     0.33750   0.37550   0.22151   0.01267  Uiso   1.00
C45    C     0.68930   0.72260   0.22191   0.01267  Uiso   1.00
C46    C     0.48820   0.48820   0.16667   0.01267  Uiso   1.00
C47    C     0.36840   0.03540   0.06793   0.01267  Uiso   1.00
C48    C     0.78860   0.72000   0.04673   0.01267  Uiso   1.00
C49    C     0.63160   0.66700   0.59873   0.01267  Uiso   1.00
C50    C     0.62450   0.96200   0.55484   0.01267  Uiso   1.00
C51    C     0.97820   0.41840   0.36797   0.01267  Uiso   1.00
C52    C     0.28000   0.06860   0.38006   0.01267  Uiso   1.00
C53    C     0.66140   0.76130   0.34753   0.01267  Uiso   1.00
C54    C     0.96360   0.17390   0.41048   0.01267  Uiso   1.00
C55    C     0.80780   0.87620   0.28742   0.01267  Uiso   1.00
C56    C     0.58310   0.58310   0.16667   0.01267  Uiso   1.00
C57    C     0.93140   0.21140   0.71339   0.01267  Uiso   1.00
C58    C     0.72260   0.68930   0.11143   0.01267  Uiso   1.00
C59    C     0.28340   0.01830   0.03480   0.01267  Uiso   1.00
C60    C     0.73490   0.71660   0.70147   0.01267  Uiso   1.00
C61    C     0.83260   0.93480   0.34760   0.01267  Uiso   1.00
C62    C     0.33860   0.09990   0.31914   0.01267  Uiso   1.00
C63    C     0.46250   0.42350   0.10997   0.01267  Uiso   1.00
C64    C     0.69340   0.82390   0.40589   0.01267  Uiso   1.00
C65    C     0.19220   0.06840   0.37925   0.01267  Uiso   1.00
C66    C     0.03540   0.36840   0.26540   0.01267  Uiso   1.00
C67    C     0.82610   0.78970   0.74381   0.01267  Uiso   1.00
C68    C     0.96460   0.33300   0.40127   0.01267  Uiso   1.00
C69    C     0.41690  -0.00000   0.50000   0.01267  Uiso   1.00
C70    C     0.76130   0.66140   0.98581   0.01267  Uiso   1.00
C71    C     0.72000   0.78860   0.28661   0.01267  Uiso   1.00
C72    C     0.06860   0.28000   0.95327   0.01267  Uiso   1.00
C73    C     0.16740   0.10220   0.31907   0.01267  Uiso   1.00
C74    C     0.03640   0.21030   0.25619   0.01267  Uiso   1.00
C75    C     0.55980   0.58160   0.63203   0.01267  Uiso   1.00
C76    C     0.86950   0.17610   0.59411   0.01267  Uiso   1.00
C77    C     0.44020   0.02180   0.03463   0.01267  Uiso   1.00
C78    C     0.58160   0.55980   0.70130   0.01267  Uiso   1.00
N1     N     0.00000   0.68810   0.83333   0.01267  Uiso   1.00
N2     N     0.08994   0.86699   0.74018   0.01267  Uiso   1.00
N3     N     0.77705   0.91006   0.40685   0.01267  Uiso   1.00
N4     N     0.91006   0.77705   0.92649   0.01267  Uiso   1.00
N5     N     0.31190   0.31190   0.16667   0.01267  Uiso   1.00
N6     N     0.86699   0.08994   0.59315   0.01267  Uiso   1.00
N7     N     0.39548   0.03504   0.44180   0.01267  Uiso   1.00
N8     N     0.36044   0.96496   0.55820   0.01267  Uiso   1.00
N9     N     0.68810  -0.00000   0.50000   0.01267  Uiso   1.00
N10    N     0.00000   0.24760   0.83333   0.01267  Uiso   1.00
N11    N     0.96496   0.36044   0.77513   0.01267  Uiso   1.00
N12    N     0.63956   0.60452   0.10847   0.01267  Uiso   1.00
N13    N     0.22295   0.13301   0.25982   0.01267  Uiso   1.00
N14    N     0.75240   0.75240   0.16667   0.01267  Uiso   1.00
N15    N     0.60452   0.63956   0.22487   0.01267  Uiso   1.00
N16    N     0.24760  -0.00000   0.50000   0.01267  Uiso   1.00
N17    N     0.03504   0.39548   0.89153   0.01267  Uiso   1.00
N18    N     0.13301   0.22295   0.07351   0.01267  Uiso   1.00
O1     O     0.12049   0.24403   0.23039   0.01267  Uiso   1.00
O2     O     0.87440   0.84430   0.58513   0.01267  Uiso   1.00
O3     O     0.12560   0.96990   0.08153   0.01267  Uiso   1.00
O4     O     0.03010   0.15570   0.41487   0.01267  Uiso   1.00
O5     O     0.87951   0.12354   0.43628   0.01267  Uiso   1.00
O6     O     0.96990   0.12560   0.25180   0.01267  Uiso   1.00
O7     O     0.15570   0.03010   0.91847   0.01267  Uiso   1.00
O8     O     0.87646   0.75597   0.76961   0.01267  Uiso   1.00
O9     O     0.75597   0.87646   0.56372   0.01267  Uiso   1.00
O10    O     0.24403   0.12049   0.10294   0.01267  Uiso   1.00
O11    O     0.84430   0.87440   0.74820   0.01267  Uiso   1.00
O12    O     0.12354   0.87951   0.89706   0.01267  Uiso   1.00
F1     F     0.39210   0.06580   0.13453   0.01267  Uiso   1.00
F2     F     0.60790   0.67370   0.53213   0.01267  Uiso   1.00
F3     F     0.67370   0.60790   0.80120   0.01267  Uiso   1.00
F4     F     0.06580   0.39210   0.19880   0.01267  Uiso   1.00
F5     F     0.32630   0.93420   0.86547   0.01267  Uiso   1.00
F6     F     0.93420   0.32630   0.46787   0.01267  Uiso   1.00
