data_FIRNOL_clean
_audit_creation_date              2015-10-16
_audit_creation_method            'Materials Studio'
_symmetry_space_group_name_H-M    'P1'
_symmetry_Int_Tables_number       1
_symmetry_cell_setting            triclinic
loop_
_symmetry_equiv_pos_as_xyz
  x,y,z
_cell_length_a                    15.6380
_cell_length_b                    15.6380
_cell_length_c                    18.4990
_cell_angle_alpha                 90.0000
_cell_angle_beta                  90.0000
_cell_angle_gamma                 120.0000
loop_
_atom_site_label
_atom_site_type_symbol
_atom_site_fract_x
_atom_site_fract_y
_atom_site_fract_z
_atom_site_U_iso_or_equiv
_atom_site_adp_type
_atom_site_occupancy
Ni1    Ni    0.82381  -0.00000   0.50000   0.01267  Uiso   1.00
Ni2    Ni    0.00000   0.82381   0.16667   0.01267  Uiso   1.00
Ni3    Ni    0.17619   0.17619   0.83333   0.01267  Uiso   1.00
H1     H     0.98910   0.89690   0.01713   0.01267  Uiso   1.00
H2     H     0.80550   0.65440   0.11373   0.01267  Uiso   1.00
H3     H     0.60240   0.70530   0.65213   0.01267  Uiso   1.00
H4     H     0.68330   0.62140   0.21343   0.01267  Uiso   1.00
H5     H     0.93810   0.31670   0.54677   0.01267  Uiso   1.00
H6     H     0.37860   0.06190   0.88010   0.01267  Uiso   1.00
H7     H     0.09220   0.10310   0.98287   0.01267  Uiso   1.00
H8     H     0.34560   0.15110   0.78040   0.01267  Uiso   1.00
H9     H     0.06190   0.37860   0.78657   0.01267  Uiso   1.00
H10    H     0.89710   0.29470   0.34787   0.01267  Uiso   1.00
H11    H     0.95660   0.10530   0.24937   0.01267  Uiso   1.00
H12    H     0.43990   0.49950   0.73473   0.01267  Uiso   1.00
H13    H     0.29540   0.35610   0.73913   0.01267  Uiso   1.00
H14    H     0.85130   0.89470   0.75063   0.01267  Uiso   1.00
H15    H     0.84890   0.19450   0.44707   0.01267  Uiso   1.00
H16    H     0.10530   0.95660   0.41730   0.01267  Uiso   1.00
H17    H     0.89690   0.98910   0.64953   0.01267  Uiso   1.00
H18    H     0.70530   0.60240   0.01453   0.01267  Uiso   1.00
H19    H     0.93930   0.64390   0.26087   0.01267  Uiso   1.00
H20    H     0.15110   0.34560   0.88627   0.01267  Uiso   1.00
H21    H     0.90780   0.01090   0.35047   0.01267  Uiso   1.00
H22    H     0.05960   0.56010   0.06807   0.01267  Uiso   1.00
H23    H     0.62140   0.68330   0.45323   0.01267  Uiso   1.00
H24    H     0.06070   0.70460   0.07247   0.01267  Uiso   1.00
H25    H     0.29470   0.89710   0.31880   0.01267  Uiso   1.00
H26    H     0.14870   0.04340   0.58270   0.01267  Uiso   1.00
H27    H     0.94040   0.50050   0.26527   0.01267  Uiso   1.00
H28    H     0.64390   0.93930   0.40580   0.01267  Uiso   1.00
H29    H     0.10290   0.39760   0.98547   0.01267  Uiso   1.00
H30    H     0.89470   0.85130   0.91603   0.01267  Uiso   1.00
H31    H     0.01090   0.90780   0.31620   0.01267  Uiso   1.00
H32    H     0.35610   0.29540   0.92753   0.01267  Uiso   1.00
H33    H     0.31670   0.93810   0.11990   0.01267  Uiso   1.00
H34    H     0.50050   0.94040   0.40140   0.01267  Uiso   1.00
H35    H     0.39760   0.10290   0.68120   0.01267  Uiso   1.00
H36    H     0.10310   0.09220   0.68380   0.01267  Uiso   1.00
H37    H     0.70460   0.06070   0.59420   0.01267  Uiso   1.00
H38    H     0.49950   0.43990   0.93193   0.01267  Uiso   1.00
H39    H     0.19450   0.84890   0.21960   0.01267  Uiso   1.00
H40    H     0.04340   0.14870   0.08397   0.01267  Uiso   1.00
H41    H     0.56010   0.05960   0.59860   0.01267  Uiso   1.00
H42    H     0.65440   0.80550   0.55293   0.01267  Uiso   1.00
C1     C     0.26340   0.97870   0.03460   0.01267  Uiso   1.00
C2     C     0.06870   0.90470   0.31700   0.01267  Uiso   1.00
C3     C     0.51180   0.00000   0.50000   0.01267  Uiso   1.00
C4     C     0.78670   0.72160   0.95393   0.01267  Uiso   1.00
C5     C     0.71530   0.73660   0.36793   0.01267  Uiso   1.00
C6     C     0.80970   0.87440   0.71063   0.01267  Uiso   1.00
C7     C     0.00000   0.41710   0.16667   0.01267  Uiso   1.00
C8     C     0.67120   0.63100   0.26113   0.01267  Uiso   1.00
C9     C     0.63100   0.67120   0.40553   0.01267  Uiso   1.00
C10    C     0.83600   0.93130   0.65033   0.01267  Uiso   1.00
C11    C     0.17390   0.96310   0.07610   0.01267  Uiso   1.00
C12    C     0.27840   0.06510   0.62060   0.01267  Uiso   1.00
C13    C     0.33800   0.37290   0.77833   0.01267  Uiso   1.00
C14    C     0.32880   0.95980   0.07220   0.01267  Uiso   1.00
C15    C     0.82610   0.78920   0.25723   0.01267  Uiso   1.00
C16    C     0.28470   0.02130   0.96540   0.01267  Uiso   1.00
C17    C     0.58290   0.58290   0.83333   0.01267  Uiso   1.00
C18    C     0.41710  -0.00000   0.50000   0.01267  Uiso   1.00
C19    C     0.21330   0.93490   0.37940   0.01267  Uiso   1.00
C20    C     0.97470   0.41380   0.63077   0.01267  Uiso   1.00
C21    C     0.02530   0.43910   0.70257   0.01267  Uiso   1.00
C22    C     0.43910   0.02530   0.96410   0.01267  Uiso   1.00
C23    C     0.00000   0.51180   0.16667   0.01267  Uiso   1.00
C24    C     0.27800   0.96780   0.44310   0.01267  Uiso   1.00
C25    C     0.06470   0.19030   0.04397   0.01267  Uiso   1.00
C26    C     0.17580   0.87030   0.26040   0.01267  Uiso   1.00
C27    C     0.96460   0.54060   0.22457   0.01267  Uiso   1.00
C28    C     0.68980   0.72200   0.77643   0.01267  Uiso   1.00
C29    C     0.21080   0.03690   0.92390   0.01267  Uiso   1.00
C30    C     0.06510   0.27840   0.04607   0.01267  Uiso   1.00
C31    C     0.16400   0.09530   0.68300   0.01267  Uiso   1.00
C32    C     0.78920   0.82610   0.40943   0.01267  Uiso   1.00
C33    C     0.76310   0.66340   0.01373   0.01267  Uiso   1.00
C34    C     0.87030   0.17580   0.40627   0.01267  Uiso   1.00
C35    C     0.97870   0.26340   0.63207   0.01267  Uiso   1.00
C36    C     0.03220   0.31020   0.10977   0.01267  Uiso   1.00
C37    C     0.45940   0.42400   0.89123   0.01267  Uiso   1.00
C38    C     0.12970   0.30550   0.92707   0.01267  Uiso   1.00
C39    C     0.23690   0.90030   0.31960   0.01267  Uiso   1.00
C40    C     0.96310   0.17390   0.59057   0.01267  Uiso   1.00
C41    C     0.02130   0.28470   0.70127   0.01267  Uiso   1.00
C42    C     0.12560   0.93530   0.37730   0.01267  Uiso   1.00
C43    C     0.54060   0.96460   0.44210   0.01267  Uiso   1.00
C44    C     0.90470   0.06870   0.34967   0.01267  Uiso   1.00
C45    C     0.93530   0.12560   0.28937   0.01267  Uiso   1.00
C46    C     0.03540   0.57600   0.10877   0.01267  Uiso   1.00
C47    C     0.96510   0.62710   0.22167   0.01267  Uiso   1.00
C48    C     0.93490   0.21330   0.28727   0.01267  Uiso   1.00
C49    C     0.03690   0.21080   0.74277   0.01267  Uiso   1.00
C50    C     0.37290   0.33800   0.88833   0.01267  Uiso   1.00
C51    C     0.30550   0.12970   0.73960   0.01267  Uiso   1.00
C52    C     0.69450   0.82420   0.59373   0.01267  Uiso   1.00
C53    C     0.96780   0.27800   0.22357   0.01267  Uiso   1.00
C54    C     0.58620   0.56090   0.29743   0.01267  Uiso   1.00
C55    C     0.56090   0.58620   0.36923   0.01267  Uiso   1.00
C56    C     0.93130   0.83600   0.01633   0.01267  Uiso   1.00
C57    C     0.42400   0.45940   0.77543   0.01267  Uiso   1.00
C58    C     0.72200   0.68980   0.89023   0.01267  Uiso   1.00
C59    C     0.57600   0.03540   0.55790   0.01267  Uiso   1.00
C60    C     0.33660   0.09970   0.68040   0.01267  Uiso   1.00
C61    C     0.41380   0.97470   0.03590   0.01267  Uiso   1.00
C62    C     0.03490   0.66200   0.11167   0.01267  Uiso   1.00
C63    C     0.73660   0.71530   0.29873   0.01267  Uiso   1.00
C64    C     0.19030   0.06470   0.62270   0.01267  Uiso   1.00
C65    C     0.31020   0.03220   0.55690   0.01267  Uiso   1.00
C66    C     0.72160   0.78670   0.71273   0.01267  Uiso   1.00
C67    C     0.62710   0.96510   0.44500   0.01267  Uiso   1.00
C68    C     0.09970   0.33660   0.98627   0.01267  Uiso   1.00
C69    C     0.95980   0.32880   0.59447   0.01267  Uiso   1.00
C70    C     0.66340   0.76310   0.65293   0.01267  Uiso   1.00
C71    C     0.04020   0.36900   0.73887   0.01267  Uiso   1.00
C72    C     0.09530   0.16400   0.98367   0.01267  Uiso   1.00
C73    C     0.48820   0.48820   0.83333   0.01267  Uiso   1.00
C74    C     0.36900   0.04020   0.92780   0.01267  Uiso   1.00
C75    C     0.66200   0.03490   0.55500   0.01267  Uiso   1.00
C76    C     0.90030   0.23690   0.34707   0.01267  Uiso   1.00
C77    C     0.87440   0.80970   0.95603   0.01267  Uiso   1.00
C78    C     0.82420   0.69450   0.07293   0.01267  Uiso   1.00
N1     N     0.90820   0.77860   0.07434   0.01267  Uiso   1.00
N2     N     0.75160   0.75160   0.83333   0.01267  Uiso   1.00
N3     N     0.06260   0.53660   0.73747   0.01267  Uiso   1.00
N4     N     0.22140   0.12960   0.74101   0.01267  Uiso   1.00
N5     N     0.24840   0.00000   0.50000   0.01267  Uiso   1.00
N6     N     0.63730   0.60440   0.89213   0.01267  Uiso   1.00
N7     N     0.60440   0.63730   0.77453   0.01267  Uiso   1.00
N8     N     0.77860   0.90820   0.59232   0.01267  Uiso   1.00
N9     N     0.53660   0.06260   0.92920   0.01267  Uiso   1.00
N10    N     0.68960  -0.00000   0.50000   0.01267  Uiso   1.00
N11    N     0.52600   0.46340   0.26253   0.01267  Uiso   1.00
N12    N     0.03290   0.39560   0.10787   0.01267  Uiso   1.00
N13    N     0.12960   0.22140   0.92566   0.01267  Uiso   1.00
N14    N     0.47400   0.93740   0.07080   0.01267  Uiso   1.00
N15    N     0.00000   0.68960   0.16667   0.01267  Uiso   1.00
N16    N     0.93740   0.47400   0.59587   0.01267  Uiso   1.00
N17    N     0.09180   0.87040   0.25899   0.01267  Uiso   1.00
N18    N     0.00000   0.24840   0.16667   0.01267  Uiso   1.00
N19    N     0.36270   0.96710   0.44120   0.01267  Uiso   1.00
N20    N     0.96710   0.36270   0.22547   0.01267  Uiso   1.00
N21    N     0.87040   0.09180   0.40768   0.01267  Uiso   1.00
N22    N     0.39560   0.03290   0.55880   0.01267  Uiso   1.00
N23    N     0.31040   0.31040   0.83333   0.01267  Uiso   1.00
N24    N     0.46340   0.52600   0.40413   0.01267  Uiso   1.00
O1     O     0.88100   0.12480   0.56404   0.01267  Uiso   1.00
O2     O     0.46100   0.40370   0.30233   0.01267  Uiso   1.00
O3     O     0.11900   0.24380   0.76930   0.01267  Uiso   1.00
O4     O     0.03170   0.15760   0.58617   0.01267  Uiso   1.00
O5     O     0.92600   0.47200   0.53037   0.01267  Uiso   1.00
O6     O     0.05730   0.59630   0.69767   0.01267  Uiso   1.00
O7     O     0.52800   0.45400   0.19703   0.01267  Uiso   1.00
O8     O     0.12590   0.96830   0.91950   0.01267  Uiso   1.00
O9     O     0.47200   0.92600   0.13630   0.01267  Uiso   1.00
O10    O     0.59630   0.05730   0.96900   0.01267  Uiso   1.00
O11    O     0.75620   0.87520   0.43596   0.01267  Uiso   1.00
O12    O     0.07400   0.54600   0.80297   0.01267  Uiso   1.00
O13    O     0.53900   0.94270   0.03100   0.01267  Uiso   1.00
O14    O     0.87410   0.84240   0.41383   0.01267  Uiso   1.00
O15    O     0.96830   0.12590   0.74717   0.01267  Uiso   1.00
O16    O     0.45400   0.52800   0.46963   0.01267  Uiso   1.00
O17    O     0.84240   0.87410   0.25283   0.01267  Uiso   1.00
O18    O     0.12480   0.88100   0.10263   0.01267  Uiso   1.00
O19    O     0.24380   0.11900   0.89737   0.01267  Uiso   1.00
O20    O     0.15760   0.03170   0.08050   0.01267  Uiso   1.00
O21    O     0.94270   0.53900   0.63567   0.01267  Uiso   1.00
O22    O     0.40370   0.46100   0.36433   0.01267  Uiso   1.00
O23    O     0.54600   0.07400   0.86370   0.01267  Uiso   1.00
O24    O     0.87520   0.75620   0.23070   0.01267  Uiso   1.00
