data_FIRNIF_clean
_audit_creation_date              2015-10-16
_audit_creation_method            'Materials Studio'
_symmetry_space_group_name_H-M    'P1'
_symmetry_Int_Tables_number       1
_symmetry_cell_setting            triclinic
loop_
_symmetry_equiv_pos_as_xyz
  x,y,z
_cell_length_a                    15.6880
_cell_length_b                    15.6880
_cell_length_c                    18.6780
_cell_angle_alpha                 90.0000
_cell_angle_beta                  90.0000
_cell_angle_gamma                 120.0000
loop_
_atom_site_label
_atom_site_type_symbol
_atom_site_fract_x
_atom_site_fract_y
_atom_site_fract_z
_atom_site_U_iso_or_equiv
_atom_site_adp_type
_atom_site_occupancy
Ni1    Ni    0.82365  -0.00000   0.50000   0.01267  Uiso   1.00
Ni2    Ni    0.17635   0.17635   0.83333   0.01267  Uiso   1.00
Ni3    Ni    0.00000   0.82365   0.16667   0.01267  Uiso   1.00
H1     H     0.31820   0.93370   0.11790   0.01267  Uiso   1.00
H2     H     0.68180   0.61550   0.21543   0.01267  Uiso   1.00
H3     H     0.70090   0.60450   0.01533   0.01267  Uiso   1.00
H4     H     0.93890   0.64440   0.25927   0.01267  Uiso   1.00
H5     H     0.38450   0.06630   0.88210   0.01267  Uiso   1.00
H6     H     0.09640   0.39550   0.98467   0.01267  Uiso   1.00
H7     H     0.61550   0.68180   0.45123   0.01267  Uiso   1.00
H8     H     0.19500   0.85140   0.21970   0.01267  Uiso   1.00
H9     H     0.93370   0.31820   0.54877   0.01267  Uiso   1.00
H10    H     0.14960   0.04700   0.58190   0.01267  Uiso   1.00
H11    H     0.06110   0.70550   0.07407   0.01267  Uiso   1.00
H12    H     0.89740   0.00410   0.34847   0.01267  Uiso   1.00
H13    H     0.34360   0.14860   0.78030   0.01267  Uiso   1.00
H14    H     0.95300   0.10260   0.24857   0.01267  Uiso   1.00
H15    H     0.29910   0.90360   0.31800   0.01267  Uiso   1.00
H16    H     0.60450   0.70090   0.65133   0.01267  Uiso   1.00
H17    H     0.43790   0.50480   0.73683   0.01267  Uiso   1.00
H18    H     0.99590   0.89330   0.01513   0.01267  Uiso   1.00
H19    H     0.56210   0.06690   0.59650   0.01267  Uiso   1.00
H20    H     0.04700   0.14960   0.08477   0.01267  Uiso   1.00
H21    H     0.10260   0.95300   0.41810   0.01267  Uiso   1.00
H22    H     0.85140   0.19500   0.44697   0.01267  Uiso   1.00
H23    H     0.50480   0.43790   0.92983   0.01267  Uiso   1.00
H24    H     0.00410   0.89740   0.31820   0.01267  Uiso   1.00
H25    H     0.10670   0.10260   0.68180   0.01267  Uiso   1.00
H26    H     0.65640   0.80500   0.55303   0.01267  Uiso   1.00
H27    H     0.93310   0.49520   0.26317   0.01267  Uiso   1.00
H28    H     0.89740   0.85040   0.91523   0.01267  Uiso   1.00
H29    H     0.06630   0.38450   0.78457   0.01267  Uiso   1.00
H30    H     0.70550   0.06110   0.59260   0.01267  Uiso   1.00
H31    H     0.49520   0.93310   0.40350   0.01267  Uiso   1.00
H32    H     0.64440   0.93890   0.40740   0.01267  Uiso   1.00
H33    H     0.85040   0.89740   0.75143   0.01267  Uiso   1.00
H34    H     0.29450   0.35560   0.74073   0.01267  Uiso   1.00
H35    H     0.06690   0.56210   0.07017   0.01267  Uiso   1.00
H36    H     0.89330   0.99590   0.65153   0.01267  Uiso   1.00
H37    H     0.14860   0.34360   0.88637   0.01267  Uiso   1.00
H38    H     0.10260   0.10670   0.98487   0.01267  Uiso   1.00
H39    H     0.35560   0.29450   0.92593   0.01267  Uiso   1.00
H40    H     0.80500   0.65640   0.11363   0.01267  Uiso   1.00
H41    H     0.39550   0.09640   0.68200   0.01267  Uiso   1.00
H42    H     0.90360   0.29910   0.34867   0.01267  Uiso   1.00
C1     C     0.46330   0.42400   0.89063   0.01267  Uiso   1.00
C2     C     0.57600   0.03930   0.55730   0.01267  Uiso   1.00
C3     C     0.21120   0.03580   0.92300   0.01267  Uiso   1.00
C4     C     0.17540   0.96420   0.07700   0.01267  Uiso   1.00
C5     C     0.66280   0.03590   0.55380   0.01267  Uiso   1.00
C6     C     0.01620   0.43590   0.70417   0.01267  Uiso   1.00
C7     C     0.26410   0.97830   0.03470   0.01267  Uiso   1.00
C8     C     0.93570   0.83500   0.01537   0.01267  Uiso   1.00
C9     C     0.56410   0.58030   0.37083   0.01267  Uiso   1.00
C10    C     0.93460   0.21180   0.28771   0.01267  Uiso   1.00
C11    C     0.53670   0.96070   0.44270   0.01267  Uiso   1.00
C12    C     0.19060   0.06770   0.62180   0.01267  Uiso   1.00
C13    C     0.37310   0.33720   0.88713   0.01267  Uiso   1.00
C14    C     0.06430   0.89930   0.31796   0.01267  Uiso   1.00
C15    C     0.02170   0.28580   0.70137   0.01267  Uiso   1.00
C16    C     0.10070   0.16500   0.98463   0.01267  Uiso   1.00
C17    C     0.72370   0.69100   0.88958   0.01267  Uiso   1.00
C18    C     0.96410   0.62690   0.22047   0.01267  Uiso   1.00
C19    C     0.69100   0.72370   0.77708   0.01267  Uiso   1.00
C20    C     0.78880   0.82460   0.41033   0.01267  Uiso   1.00
C21    C     0.16500   0.10070   0.68204   0.01267  Uiso   1.00
C22    C     0.66370   0.76020   0.65255   0.01267  Uiso   1.00
C23    C     0.27720   0.06540   0.62104   0.01267  Uiso   1.00
C24    C     0.51030  -0.00000   0.50000   0.01267  Uiso   1.00
C25    C     0.62690   0.96410   0.44620   0.01267  Uiso   1.00
C26    C     0.00000   0.41610   0.16667   0.01267  Uiso   1.00
C27    C     0.30900   0.03270   0.55625   0.01267  Uiso   1.00
C28    C     0.28580   0.02170   0.96530   0.01267  Uiso   1.00
C29    C     0.87710   0.80940   0.95513   0.01267  Uiso   1.00
C30    C     0.17620   0.87200   0.26040   0.01267  Uiso   1.00
C31    C     0.33720   0.37310   0.77953   0.01267  Uiso   1.00
C32    C     0.33630   0.09650   0.68078   0.01267  Uiso   1.00
C33    C     0.96420   0.17540   0.58967   0.01267  Uiso   1.00
C34    C     0.98380   0.41970   0.62917   0.01267  Uiso   1.00
C35    C     0.96070   0.53670   0.22397   0.01267  Uiso   1.00
C36    C     0.73590   0.71420   0.29863   0.01267  Uiso   1.00
C37    C     0.00000   0.51030   0.16667   0.01267  Uiso   1.00
C38    C     0.82380   0.69580   0.07293   0.01267  Uiso   1.00
C39    C     0.97830   0.26410   0.63197   0.01267  Uiso   1.00
C40    C     0.03590   0.66280   0.11287   0.01267  Uiso   1.00
C41    C     0.21180   0.93460   0.37896   0.01267  Uiso   1.00
C42    C     0.33180   0.96030   0.07200   0.01267  Uiso   1.00
C43    C     0.42400   0.46330   0.77603   0.01267  Uiso   1.00
C44    C     0.82460   0.78880   0.25633   0.01267  Uiso   1.00
C45    C     0.37150   0.03970   0.92800   0.01267  Uiso   1.00
C46    C     0.93230   0.12290   0.28847   0.01267  Uiso   1.00
C47    C     0.03930   0.57600   0.10937   0.01267  Uiso   1.00
C48    C     0.23980   0.90350   0.31922   0.01267  Uiso   1.00
C49    C     0.06540   0.27720   0.04563   0.01267  Uiso   1.00
C50    C     0.80940   0.87710   0.71153   0.01267  Uiso   1.00
C51    C     0.12290   0.93230   0.37820   0.01267  Uiso   1.00
C52    C     0.83500   0.93570   0.65129   0.01267  Uiso   1.00
C53    C     0.69580   0.82380   0.59373   0.01267  Uiso   1.00
C54    C     0.58030   0.56410   0.29583   0.01267  Uiso   1.00
C55    C     0.78820   0.72280   0.95437   0.01267  Uiso   1.00
C56    C     0.27630   0.96730   0.44375   0.01267  Uiso   1.00
C57    C     0.62850   0.66820   0.40533   0.01267  Uiso   1.00
C58    C     0.30420   0.12800   0.73960   0.01267  Uiso   1.00
C59    C     0.66820   0.62850   0.26133   0.01267  Uiso   1.00
C60    C     0.90350   0.23980   0.34745   0.01267  Uiso   1.00
C61    C     0.58390   0.58390   0.83333   0.01267  Uiso   1.00
C62    C     0.03970   0.37150   0.73867   0.01267  Uiso   1.00
C63    C     0.76020   0.66370   0.01411   0.01267  Uiso   1.00
C64    C     0.03580   0.21120   0.74367   0.01267  Uiso   1.00
C65    C     0.87200   0.17620   0.40627   0.01267  Uiso   1.00
C66    C     0.06770   0.19060   0.04487   0.01267  Uiso   1.00
C67    C     0.03270   0.30900   0.11042   0.01267  Uiso   1.00
C68    C     0.89930   0.06430   0.34871   0.01267  Uiso   1.00
C69    C     0.71420   0.73590   0.36803   0.01267  Uiso   1.00
C70    C     0.72280   0.78820   0.71229   0.01267  Uiso   1.00
C71    C     0.12800   0.30420   0.92707   0.01267  Uiso   1.00
C72    C     0.41970   0.98380   0.03750   0.01267  Uiso   1.00
C73    C     0.48970   0.48970   0.83333   0.01267  Uiso   1.00
C74    C     0.96730   0.27630   0.22292   0.01267  Uiso   1.00
C75    C     0.96030   0.33180   0.59467   0.01267  Uiso   1.00
C76    C     0.09650   0.33630   0.98589   0.01267  Uiso   1.00
C77    C     0.43590   0.01620   0.96250   0.01267  Uiso   1.00
C78    C     0.41610  -0.00000   0.50000   0.01267  Uiso   1.00
N1     N     0.24630  -0.00000   0.50000   0.01267  Uiso   1.00
N2     N     0.96660   0.36120   0.22584   0.01267  Uiso   1.00
N3     N     0.22120   0.13020   0.74059   0.01267  Uiso   1.00
N4     N     0.86980   0.09100   0.40726   0.01267  Uiso   1.00
N5     N     0.39460   0.03340   0.55917   0.01267  Uiso   1.00
N6     N     0.36120   0.96660   0.44083   0.01267  Uiso   1.00
N7     N     0.77880   0.90900   0.59274   0.01267  Uiso   1.00
N8     N     0.31020   0.31020   0.83333   0.01267  Uiso   1.00
N9     N     0.75370   0.75370   0.83333   0.01267  Uiso   1.00
N10    N     0.00000   0.24630   0.16667   0.01267  Uiso   1.00
N11    N     0.03340   0.39460   0.10750   0.01267  Uiso   1.00
N12    N     0.68980  -0.00000   0.50000   0.01267  Uiso   1.00
N13    N     0.09100   0.86980   0.25941   0.01267  Uiso   1.00
N14    N     0.90900   0.77880   0.07392   0.01267  Uiso   1.00
N15    N     0.63880   0.60540   0.89250   0.01267  Uiso   1.00
N16    N     0.60540   0.63880   0.77416   0.01267  Uiso   1.00
N17    N     0.13020   0.22120   0.92608   0.01267  Uiso   1.00
N18    N     0.00000   0.68980   0.16667   0.01267  Uiso   1.00
O1     O     0.87462   0.75544   0.22980   0.01267  Uiso   1.00
O2     O     0.24456   0.11918   0.89647   0.01267  Uiso   1.00
O3     O     0.12538   0.88082   0.10353   0.01267  Uiso   1.00
O4     O     0.03280   0.15880   0.58497   0.01267  Uiso   1.00
O5     O     0.88082   0.12538   0.56314   0.01267  Uiso   1.00
O6     O     0.15880   0.03280   0.08170   0.01267  Uiso   1.00
O7     O     0.84120   0.87400   0.25163   0.01267  Uiso   1.00
O8     O     0.87400   0.84120   0.41503   0.01267  Uiso   1.00
O9     O     0.11918   0.24456   0.77020   0.01267  Uiso   1.00
O10    O     0.75544   0.87462   0.43686   0.01267  Uiso   1.00
O11    O     0.12600   0.96720   0.91830   0.01267  Uiso   1.00
O12    O     0.96720   0.12600   0.74837   0.01267  Uiso   1.00
F1     F     0.03920   0.52250   0.73217   0.01267  Uiso   1.00
F2     F     0.48330   0.96080   0.06550   0.01267  Uiso   1.00
F3     F     0.96080   0.48330   0.60117   0.01267  Uiso   1.00
F4     F     0.52250   0.03920   0.93450   0.01267  Uiso   1.00
F5     F     0.51670   0.47750   0.26783   0.01267  Uiso   1.00
F6     F     0.47750   0.51670   0.39883   0.01267  Uiso   1.00
