data_FIRPAZ_clean
_audit_creation_date              2015-10-16
_audit_creation_method            'Materials Studio'
_symmetry_space_group_name_H-M    'P1'
_symmetry_Int_Tables_number       1
_symmetry_cell_setting            triclinic
loop_
_symmetry_equiv_pos_as_xyz
  x,y,z
_cell_length_a                    15.6950
_cell_length_b                    15.6950
_cell_length_c                    18.5460
_cell_angle_alpha                 90.0000
_cell_angle_beta                  90.0000
_cell_angle_gamma                 120.0000
loop_
_atom_site_label
_atom_site_type_symbol
_atom_site_fract_x
_atom_site_fract_y
_atom_site_fract_z
_atom_site_U_iso_or_equiv
_atom_site_adp_type
_atom_site_occupancy
Ni1    Ni    0.82243  -0.00000   0.00000   0.01267  Uiso   1.00
Ni2    Ni    0.17757   0.17757   0.33333   0.01267  Uiso   1.00
Ni3    Ni    0.00000   0.82243   0.66667   0.01267  Uiso   1.00
H1     H     0.93130   0.31210   0.04810   0.01267  Uiso   1.00
H2     H     0.70350   0.60160   0.51477   0.01267  Uiso   1.00
H3     H     0.46020   0.96670   0.56417   0.01267  Uiso   1.00
H4     H     0.99180   0.89460   0.51667   0.01267  Uiso   1.00
H5     H     0.06610   0.56100   0.57123   0.01267  Uiso   1.00
H6     H     0.50650   0.53980   0.89750   0.01267  Uiso   1.00
H7     H     0.96670   0.46020   0.10250   0.01267  Uiso   1.00
H8     H     0.93390   0.49490   0.76210   0.01267  Uiso   1.00
H9     H     0.09720   0.10540   0.48333   0.01267  Uiso   1.00
H10    H     0.61920   0.68790   0.95190   0.01267  Uiso   1.00
H11    H     0.65450   0.80710   0.05250   0.01267  Uiso   1.00
H12    H     0.34550   0.15260   0.28083   0.01267  Uiso   1.00
H13    H     0.49350   0.03330   0.43583   0.01267  Uiso   1.00
H14    H     0.90280   0.00820   0.85000   0.01267  Uiso   1.00
H15    H     0.68790   0.61920   0.71477   0.01267  Uiso   1.00
H16    H     0.96150   0.10850   0.75070   0.01267  Uiso   1.00
H17    H     0.93800   0.64240   0.76030   0.01267  Uiso   1.00
H18    H     0.19290   0.84740   0.71917   0.01267  Uiso   1.00
H19    H     0.14700   0.03850   0.08403   0.01267  Uiso   1.00
H20    H     0.00820   0.90280   0.81667   0.01267  Uiso   1.00
H21    H     0.10540   0.09720   0.18333   0.01267  Uiso   1.00
H22    H     0.06870   0.38080   0.28523   0.01267  Uiso   1.00
H23    H     0.15260   0.34550   0.38583   0.01267  Uiso   1.00
H24    H     0.29560   0.35760   0.23970   0.01267  Uiso   1.00
H25    H     0.31210   0.93130   0.61857   0.01267  Uiso   1.00
H26    H     0.43900   0.50510   0.23790   0.01267  Uiso   1.00
H27    H     0.56100   0.06610   0.09543   0.01267  Uiso   1.00
H28    H     0.53980   0.50650   0.76917   0.01267  Uiso   1.00
H29    H     0.80710   0.65450   0.61417   0.01267  Uiso   1.00
H30    H     0.10850   0.96150   0.91597   0.01267  Uiso   1.00
H31    H     0.35760   0.29560   0.42697   0.01267  Uiso   1.00
H32    H     0.89460   0.99180   0.15000   0.01267  Uiso   1.00
H33    H     0.85300   0.89150   0.24930   0.01267  Uiso   1.00
H34    H     0.38080   0.06870   0.38143   0.01267  Uiso   1.00
H35    H     0.60160   0.70350   0.15190   0.01267  Uiso   1.00
H36    H     0.50510   0.43900   0.42877   0.01267  Uiso   1.00
H37    H     0.29650   0.89810   0.81857   0.01267  Uiso   1.00
H38    H     0.10190   0.39840   0.48523   0.01267  Uiso   1.00
H39    H     0.84740   0.19290   0.94750   0.01267  Uiso   1.00
H40    H     0.06200   0.70440   0.57303   0.01267  Uiso   1.00
H41    H     0.64240   0.93800   0.90637   0.01267  Uiso   1.00
H42    H     0.49490   0.93390   0.90457   0.01267  Uiso   1.00
H43    H     0.03850   0.14700   0.58263   0.01267  Uiso   1.00
H44    H     0.89150   0.85300   0.41737   0.01267  Uiso   1.00
H45    H     0.70440   0.06200   0.09363   0.01267  Uiso   1.00
H46    H     0.89810   0.29650   0.84810   0.01267  Uiso   1.00
H47    H     0.03330   0.49350   0.23083   0.01267  Uiso   1.00
H48    H     0.39840   0.10190   0.18143   0.01267  Uiso   1.00
C1     C     0.03000   0.30770   0.60973   0.01267  Uiso   1.00
C2     C     0.86920   0.17490   0.90670   0.01267  Uiso   1.00
C3     C     0.17490   0.86920   0.75997   0.01267  Uiso   1.00
C4     C     0.71440   0.73720   0.86790   0.01267  Uiso   1.00
C5     C     0.62570   0.96360   0.94557   0.01267  Uiso   1.00
C6     C     0.19000   0.06360   0.12293   0.01267  Uiso   1.00
C7     C     0.72000   0.78760   0.21250   0.01267  Uiso   1.00
C8     C     0.48830   0.48830   0.33333   0.01267  Uiso   1.00
C9     C     0.06760   0.28000   0.54583   0.01267  Uiso   1.00
C10    C     0.00000   0.51170   0.66667   0.01267  Uiso   1.00
C11    C     0.81000   0.87360   0.21040   0.01267  Uiso   1.00
C12    C     0.82510   0.69430   0.57337   0.01267  Uiso   1.00
C13    C     0.02280   0.28560   0.20123   0.01267  Uiso   1.00
C14    C     0.56310   0.58490   0.87330   0.01267  Uiso   1.00
C15    C     0.30770   0.03000   0.05693   0.01267  Uiso   1.00
C16    C     0.09740   0.16470   0.48343   0.01267  Uiso   1.00
C17    C     0.97820   0.41510   0.12670   0.01267  Uiso   1.00
C18    C     0.33790   0.37430   0.27890   0.01267  Uiso   1.00
C19    C     0.96360   0.62570   0.72110   0.01267  Uiso   1.00
C20    C     0.93240   0.21240   0.78750   0.01267  Uiso   1.00
C21    C     0.78760   0.72000   0.45417   0.01267  Uiso   1.00
C22    C     0.37430   0.33790   0.38777   0.01267  Uiso   1.00
C23    C     0.27770   0.97000   0.94307   0.01267  Uiso   1.00
C24    C     0.90260   0.06730   0.84990   0.01267  Uiso   1.00
C25    C     0.30570   0.13080   0.24003   0.01267  Uiso   1.00
C26    C     0.03870   0.57570   0.61043   0.01267  Uiso   1.00
C27    C     0.00000   0.41480   0.66667   0.01267  Uiso   1.00
C28    C     0.41480   0.00000   0.00000   0.01267  Uiso   1.00
C29    C     0.36980   0.04230   0.42763   0.01267  Uiso   1.00
C30    C     0.96130   0.53700   0.72290   0.01267  Uiso   1.00
C31    C     0.76180   0.66170   0.51367   0.01267  Uiso   1.00
C32    C     0.03510   0.21060   0.24263   0.01267  Uiso   1.00
C33    C     0.95770   0.32750   0.09430   0.01267  Uiso   1.00
C34    C     0.97000   0.27770   0.72360   0.01267  Uiso   1.00
C35    C     0.06360   0.19000   0.54373   0.01267  Uiso   1.00
C36    C     0.32750   0.95770   0.57237   0.01267  Uiso   1.00
C37    C     0.12640   0.93640   0.87707   0.01267  Uiso   1.00
C38    C     0.28000   0.06760   0.12083   0.01267  Uiso   1.00
C39    C     0.66170   0.76180   0.15300   0.01267  Uiso   1.00
C40    C     0.72230   0.69230   0.39027   0.01267  Uiso   1.00
C41    C     0.57570   0.03870   0.05623   0.01267  Uiso   1.00
C42    C     0.16470   0.09740   0.18323   0.01267  Uiso   1.00
C43    C     0.41510   0.97820   0.53997   0.01267  Uiso   1.00
C44    C     0.82450   0.78940   0.75737   0.01267  Uiso   1.00
C45    C     0.23820   0.89990   0.81967   0.01267  Uiso   1.00
C46    C     0.04230   0.36980   0.23903   0.01267  Uiso   1.00
C47    C     0.42430   0.46300   0.27710   0.01267  Uiso   1.00
C48    C     0.17550   0.96490   0.57597   0.01267  Uiso   1.00
C49    C     0.87360   0.81000   0.45627   0.01267  Uiso   1.00
C50    C     0.93270   0.83530   0.51657   0.01267  Uiso   1.00
C51    C     0.96490   0.17550   0.09070   0.01267  Uiso   1.00
C52    C     0.63020   0.67250   0.90570   0.01267  Uiso   1.00
C53    C     0.46300   0.42430   0.38957   0.01267  Uiso   1.00
C54    C     0.02180   0.43690   0.20663   0.01267  Uiso   1.00
C55    C     0.33830   0.10010   0.18033   0.01267  Uiso   1.00
C56    C     0.93640   0.12640   0.78960   0.01267  Uiso   1.00
C57    C     0.06730   0.90260   0.81677   0.01267  Uiso   1.00
C58    C     0.69430   0.82510   0.09330   0.01267  Uiso   1.00
C59    C     0.21060   0.03510   0.42403   0.01267  Uiso   1.00
C60    C     0.97720   0.26280   0.13210   0.01267  Uiso   1.00
C61    C     0.43690   0.02180   0.46003   0.01267  Uiso   1.00
C62    C     0.10010   0.33830   0.48633   0.01267  Uiso   1.00
C63    C     0.67250   0.63020   0.76097   0.01267  Uiso   1.00
C64    C     0.51170  -0.00000   0.00000   0.01267  Uiso   1.00
C65    C     0.83530   0.93270   0.15010   0.01267  Uiso   1.00
C66    C     0.89990   0.23820   0.84700   0.01267  Uiso   1.00
C67    C     0.69230   0.72230   0.27640   0.01267  Uiso   1.00
C68    C     0.03640   0.66210   0.61223   0.01267  Uiso   1.00
C69    C     0.78940   0.82450   0.90930   0.01267  Uiso   1.00
C70    C     0.53700   0.96130   0.94377   0.01267  Uiso   1.00
C71    C     0.58520   0.58520   0.33333   0.01267  Uiso   1.00
C72    C     0.58490   0.56310   0.79337   0.01267  Uiso   1.00
C73    C     0.26280   0.97720   0.53457   0.01267  Uiso   1.00
C74    C     0.73720   0.71440   0.79877   0.01267  Uiso   1.00
C75    C     0.21240   0.93240   0.87917   0.01267  Uiso   1.00
C76    C     0.13080   0.30570   0.42663   0.01267  Uiso   1.00
C77    C     0.66210   0.03640   0.05443   0.01267  Uiso   1.00
C78    C     0.28560   0.02280   0.46543   0.01267  Uiso   1.00
N1     N     0.90870   0.77850   0.57455   0.01267  Uiso   1.00
N2     N     0.24660  -0.00000   0.00000   0.01267  Uiso   1.00
N3     N     0.09130   0.86980   0.75879   0.01267  Uiso   1.00
N4     N     0.22150   0.13020   0.24121   0.01267  Uiso   1.00
N5     N     0.13020   0.22150   0.42545   0.01267  Uiso   1.00
N6     N     0.86980   0.09130   0.90788   0.01267  Uiso   1.00
N7     N     0.00000   0.68880   0.66667   0.01267  Uiso   1.00
N8     N     0.77850   0.90870   0.09212   0.01267  Uiso   1.00
N9     N     0.75340   0.75340   0.33333   0.01267  Uiso   1.00
N10    N     0.36080   0.96550   0.94107   0.01267  Uiso   1.00
N11    N     0.60470   0.63920   0.27440   0.01267  Uiso   1.00
N12    N     0.68880   0.00000   0.00000   0.01267  Uiso   1.00
N13    N     0.39530   0.03450   0.05893   0.01267  Uiso   1.00
N14    N     0.31120   0.31120   0.33333   0.01267  Uiso   1.00
N15    N     0.96550   0.36080   0.72560   0.01267  Uiso   1.00
N16    N     0.63920   0.60470   0.39227   0.01267  Uiso   1.00
N17    N     0.00000   0.24660   0.66667   0.01267  Uiso   1.00
N18    N     0.03450   0.39530   0.60773   0.01267  Uiso   1.00
O1     O     0.84220   0.87270   0.75337   0.01267  Uiso   1.00
O2     O     0.15780   0.03050   0.57997   0.01267  Uiso   1.00
O3     O     0.12520   0.88030   0.60293   0.01267  Uiso   1.00
O4     O     0.12730   0.96950   0.42003   0.01267  Uiso   1.00
O5     O     0.24490   0.11970   0.39707   0.01267  Uiso   1.00
O6     O     0.87480   0.75510   0.73041   0.01267  Uiso   1.00
O7     O     0.96950   0.12730   0.24663   0.01267  Uiso   1.00
O8     O     0.03050   0.15780   0.08670   0.01267  Uiso   1.00
O9     O     0.75510   0.87480   0.93626   0.01267  Uiso   1.00
O10    O     0.87270   0.84220   0.91330   0.01267  Uiso   1.00
O11    O     0.11970   0.24490   0.26959   0.01267  Uiso   1.00
O12    O     0.88030   0.12520   0.06374   0.01267  Uiso   1.00
