data_image0
_cell_length_a       23.995
_cell_length_b       23.995
_cell_length_c       3.9498
_cell_angle_alpha    90
_cell_angle_beta     90
_cell_angle_gamma    90

_symmetry_space_group_name_H-M    "P 1"
_symmetry_int_tables_number       1

loop_
  _symmetry_equiv_pos_as_xyz
  'x, y, z'

loop_
  _atom_site_label
  _atom_site_occupancy
  _atom_site_fract_x
  _atom_site_fract_y
  _atom_site_fract_z
  _atom_site_thermal_displace_type
  _atom_site_B_iso_or_equiv
  _atom_site_type_symbol
  O1       1.0000 0.44664  0.42893  0.56140  Biso   1.000  O
  N1       1.0000 0.44706  0.38055  0.72270  Biso   1.000  N
  C1       1.0000 0.39812  0.35438  0.78010  Biso   1.000  C
  H1       1.0000 0.36420  0.37150  0.71330  Biso   1.000  H
  C2       1.0000 0.39714  0.30305  0.93470  Biso   1.000  C
  H2       1.0000 0.36250  0.28470  0.96830  Biso   1.000  H
  C3       1.0000 0.49496  0.35783  0.82590  Biso   1.000  C
  H3       1.0000 0.52910  0.37710  0.79060  Biso   1.000  H
  C4       1.0000 0.49505  0.30651  0.98370  Biso   1.000  C
  H4       1.0000 0.52940  0.29060  0.05370  Biso   1.000  H
  C5       1.0000 0.44581  0.27764  0.04210  Biso   1.000  C
  O2       1.0000 0.94664  0.92893  0.06140  Biso   1.000  O
  N2       1.0000 0.94706  0.88055  0.22270  Biso   1.000  N
  C6       1.0000 0.89812  0.85438  0.28010  Biso   1.000  C
  H5       1.0000 0.86420  0.87150  0.21330  Biso   1.000  H
  C7       1.0000 0.89714  0.80305  0.43470  Biso   1.000  C
  H6       1.0000 0.86250  0.78470  0.46830  Biso   1.000  H
  C8       1.0000 0.99496  0.85783  0.32590  Biso   1.000  C
  H7       1.0000 0.02910  0.87710  0.29060  Biso   1.000  H
  C9       1.0000 0.99505  0.80651  0.48370  Biso   1.000  C
  H8       1.0000 0.02940  0.79060  0.55370  Biso   1.000  H
  C10      1.0000 0.94581  0.77764  0.54210  Biso   1.000  C
  O3       1.0000 0.55336  0.57107  0.56140  Biso   1.000  O
  N3       1.0000 0.55294  0.61945  0.72270  Biso   1.000  N
  C11      1.0000 0.60188  0.64562  0.78010  Biso   1.000  C
  H9       1.0000 0.63580  0.62850  0.71330  Biso   1.000  H
  C12      1.0000 0.60286  0.69695  0.93470  Biso   1.000  C
  H10      1.0000 0.63750  0.71530  0.96830  Biso   1.000  H
  C13      1.0000 0.50504  0.64217  0.82590  Biso   1.000  C
  H11      1.0000 0.47090  0.62290  0.79060  Biso   1.000  H
  C14      1.0000 0.50495  0.69349  0.98370  Biso   1.000  C
  H12      1.0000 0.47060  0.70940  0.05370  Biso   1.000  H
  C15      1.0000 0.55419  0.72236  0.04210  Biso   1.000  C
  O4       1.0000 0.05336  0.07107  0.06140  Biso   1.000  O
  N4       1.0000 0.05294  0.11945  0.22270  Biso   1.000  N
  C16      1.0000 0.10188  0.14562  0.28010  Biso   1.000  C
  H13      1.0000 0.13580  0.12850  0.21330  Biso   1.000  H
  C17      1.0000 0.10286  0.19695  0.43470  Biso   1.000  C
  H14      1.0000 0.13750  0.21530  0.46830  Biso   1.000  H
  C18      1.0000 0.00504  0.14217  0.32590  Biso   1.000  C
  H15      1.0000 0.97090  0.12290  0.29060  Biso   1.000  H
  C19      1.0000 0.00495  0.19349  0.48370  Biso   1.000  C
  H16      1.0000 0.97060  0.20940  0.55370  Biso   1.000  H
  C20      1.0000 0.05419  0.22236  0.54210  Biso   1.000  C
  O5       1.0000 0.42893  0.55336  0.43860  Biso   1.000  O
  N5       1.0000 0.38055  0.55294  0.27730  Biso   1.000  N
  C21      1.0000 0.35438  0.60188  0.21990  Biso   1.000  C
  H17      1.0000 0.37150  0.63580  0.28670  Biso   1.000  H
  C22      1.0000 0.30305  0.60286  0.06530  Biso   1.000  C
  H18      1.0000 0.28470  0.63750  0.03170  Biso   1.000  H
  C23      1.0000 0.35783  0.50504  0.17410  Biso   1.000  C
  H19      1.0000 0.37710  0.47090  0.20940  Biso   1.000  H
  C24      1.0000 0.30651  0.50495  0.01630  Biso   1.000  C
  H20      1.0000 0.29060  0.47060  0.94630  Biso   1.000  H
  C25      1.0000 0.27764  0.55419  0.95790  Biso   1.000  C
  O6       1.0000 0.92893  0.05336  0.93860  Biso   1.000  O
  N6       1.0000 0.88055  0.05294  0.77730  Biso   1.000  N
  C26      1.0000 0.85438  0.10188  0.71990  Biso   1.000  C
  H21      1.0000 0.87150  0.13580  0.78670  Biso   1.000  H
  C27      1.0000 0.80305  0.10286  0.56530  Biso   1.000  C
  H22      1.0000 0.78470  0.13750  0.53170  Biso   1.000  H
  C28      1.0000 0.85783  0.00504  0.67410  Biso   1.000  C
  H23      1.0000 0.87710  0.97090  0.70940  Biso   1.000  H
  C29      1.0000 0.80651  0.00495  0.51630  Biso   1.000  C
  H24      1.0000 0.79060  0.97060  0.44630  Biso   1.000  H
  C30      1.0000 0.77764  0.05419  0.45790  Biso   1.000  C
  O7       1.0000 0.57107  0.44664  0.43860  Biso   1.000  O
  N7       1.0000 0.61945  0.44706  0.27730  Biso   1.000  N
  C31      1.0000 0.64562  0.39812  0.21990  Biso   1.000  C
  H25      1.0000 0.62850  0.36420  0.28670  Biso   1.000  H
  C32      1.0000 0.69695  0.39714  0.06530  Biso   1.000  C
  H26      1.0000 0.71530  0.36250  0.03170  Biso   1.000  H
  C33      1.0000 0.64217  0.49496  0.17410  Biso   1.000  C
  H27      1.0000 0.62290  0.52910  0.20940  Biso   1.000  H
  C34      1.0000 0.69349  0.49505  0.01630  Biso   1.000  C
  H28      1.0000 0.70940  0.52940  0.94630  Biso   1.000  H
  C35      1.0000 0.72236  0.44581  0.95790  Biso   1.000  C
  O8       1.0000 0.07107  0.94664  0.93860  Biso   1.000  O
  N8       1.0000 0.11945  0.94706  0.77730  Biso   1.000  N
  C36      1.0000 0.14562  0.89812  0.71990  Biso   1.000  C
  H29      1.0000 0.12850  0.86420  0.78670  Biso   1.000  H
  C37      1.0000 0.19695  0.89714  0.56530  Biso   1.000  C
  H30      1.0000 0.21530  0.86250  0.53170  Biso   1.000  H
  C38      1.0000 0.14217  0.99496  0.67410  Biso   1.000  C
  H31      1.0000 0.12290  0.02910  0.70940  Biso   1.000  H
  C39      1.0000 0.19349  0.99505  0.51630  Biso   1.000  C
  H32      1.0000 0.20940  0.02940  0.44630  Biso   1.000  H
  C40      1.0000 0.22236  0.94581  0.45790  Biso   1.000  C
  O9       1.0000 0.05336  0.42893  0.18860  Biso   1.000  O
  N9       1.0000 0.05294  0.38055  0.02730  Biso   1.000  N
  C41      1.0000 0.10188  0.35438  0.96990  Biso   1.000  C
  H33      1.0000 0.13580  0.37150  0.03670  Biso   1.000  H
  C42      1.0000 0.10286  0.30305  0.81530  Biso   1.000  C
  H34      1.0000 0.13750  0.28470  0.78170  Biso   1.000  H
  C43      1.0000 0.00504  0.35783  0.92410  Biso   1.000  C
  H35      1.0000 0.97090  0.37710  0.95940  Biso   1.000  H
  C44      1.0000 0.00495  0.30651  0.76630  Biso   1.000  C
  H36      1.0000 0.97060  0.29060  0.69630  Biso   1.000  H
  C45      1.0000 0.05419  0.27764  0.70790  Biso   1.000  C
  O10      1.0000 0.55336  0.92893  0.68860  Biso   1.000  O
  N10      1.0000 0.55294  0.88055  0.52730  Biso   1.000  N
  C46      1.0000 0.60188  0.85438  0.46990  Biso   1.000  C
  H37      1.0000 0.63580  0.87150  0.53670  Biso   1.000  H
  C47      1.0000 0.60286  0.80305  0.31530  Biso   1.000  C
  H38      1.0000 0.63750  0.78470  0.28170  Biso   1.000  H
  C48      1.0000 0.50504  0.85783  0.42410  Biso   1.000  C
  H39      1.0000 0.47090  0.87710  0.45940  Biso   1.000  H
  C49      1.0000 0.50495  0.80651  0.26630  Biso   1.000  C
  H40      1.0000 0.47060  0.79060  0.19630  Biso   1.000  H
  C50      1.0000 0.55419  0.77764  0.20790  Biso   1.000  C
  O11      1.0000 0.94664  0.57107  0.18860  Biso   1.000  O
  N11      1.0000 0.94706  0.61945  0.02730  Biso   1.000  N
  C51      1.0000 0.89812  0.64562  0.96990  Biso   1.000  C
  H41      1.0000 0.86420  0.62850  0.03670  Biso   1.000  H
  C52      1.0000 0.89714  0.69695  0.81530  Biso   1.000  C
  H42      1.0000 0.86250  0.71530  0.78170  Biso   1.000  H
  C53      1.0000 0.99496  0.64217  0.92410  Biso   1.000  C
  H43      1.0000 0.02910  0.62290  0.95940  Biso   1.000  H
  C54      1.0000 0.99505  0.69349  0.76630  Biso   1.000  C
  H44      1.0000 0.02940  0.70940  0.69630  Biso   1.000  H
  C55      1.0000 0.94581  0.72236  0.70790  Biso   1.000  C
  O12      1.0000 0.44664  0.07107  0.68860  Biso   1.000  O
  N12      1.0000 0.44706  0.11945  0.52730  Biso   1.000  N
  C56      1.0000 0.39812  0.14562  0.46990  Biso   1.000  C
  H45      1.0000 0.36420  0.12850  0.53670  Biso   1.000  H
  C57      1.0000 0.39714  0.19695  0.31530  Biso   1.000  C
  H46      1.0000 0.36250  0.21530  0.28170  Biso   1.000  H
  C58      1.0000 0.49496  0.14217  0.42410  Biso   1.000  C
  H47      1.0000 0.52910  0.12290  0.45940  Biso   1.000  H
  C59      1.0000 0.49505  0.19349  0.26630  Biso   1.000  C
  H48      1.0000 0.52940  0.20940  0.19630  Biso   1.000  H
  C60      1.0000 0.44581  0.22236  0.20790  Biso   1.000  C
  O13      1.0000 0.07107  0.55336  0.31140  Biso   1.000  O
  N13      1.0000 0.11945  0.55294  0.47270  Biso   1.000  N
  C61      1.0000 0.14562  0.60188  0.53010  Biso   1.000  C
  H49      1.0000 0.12850  0.63580  0.46330  Biso   1.000  H
  C62      1.0000 0.19695  0.60286  0.68470  Biso   1.000  C
  H50      1.0000 0.21530  0.63750  0.71830  Biso   1.000  H
  C63      1.0000 0.14217  0.50504  0.57590  Biso   1.000  C
  H51      1.0000 0.12290  0.47090  0.54060  Biso   1.000  H
  C64      1.0000 0.19349  0.50495  0.73370  Biso   1.000  C
  H52      1.0000 0.20940  0.47060  0.80370  Biso   1.000  H
  C65      1.0000 0.22236  0.55419  0.79210  Biso   1.000  C
  O14      1.0000 0.57107  0.05336  0.81140  Biso   1.000  O
  N14      1.0000 0.61945  0.05294  0.97270  Biso   1.000  N
  C66      1.0000 0.64562  0.10188  0.03010  Biso   1.000  C
  H53      1.0000 0.62850  0.13580  0.96330  Biso   1.000  H
  C67      1.0000 0.69695  0.10286  0.18470  Biso   1.000  C
  H54      1.0000 0.71530  0.13750  0.21830  Biso   1.000  H
  C68      1.0000 0.64217  0.00504  0.07590  Biso   1.000  C
  H55      1.0000 0.62290  0.97090  0.04060  Biso   1.000  H
  C69      1.0000 0.69349  0.00495  0.23370  Biso   1.000  C
  H56      1.0000 0.70940  0.97060  0.30370  Biso   1.000  H
  C70      1.0000 0.72236  0.05419  0.29210  Biso   1.000  C
  O15      1.0000 0.92893  0.44664  0.31140  Biso   1.000  O
  N15      1.0000 0.88055  0.44706  0.47270  Biso   1.000  N
  C71      1.0000 0.85438  0.39812  0.53010  Biso   1.000  C
  H57      1.0000 0.87150  0.36420  0.46330  Biso   1.000  H
  C72      1.0000 0.80305  0.39714  0.68470  Biso   1.000  C
  H58      1.0000 0.78470  0.36250  0.71830  Biso   1.000  H
  C73      1.0000 0.85783  0.49496  0.57590  Biso   1.000  C
  H59      1.0000 0.87710  0.52910  0.54060  Biso   1.000  H
  C74      1.0000 0.80651  0.49505  0.73370  Biso   1.000  C
  H60      1.0000 0.79060  0.52940  0.80370  Biso   1.000  H
  C75      1.0000 0.77764  0.44581  0.79210  Biso   1.000  C
  O16      1.0000 0.42893  0.94664  0.81140  Biso   1.000  O
  N16      1.0000 0.38055  0.94706  0.97270  Biso   1.000  N
  C76      1.0000 0.35438  0.89812  0.03010  Biso   1.000  C
  H61      1.0000 0.37150  0.86420  0.96330  Biso   1.000  H
  C77      1.0000 0.30305  0.89714  0.18470  Biso   1.000  C
  H62      1.0000 0.28470  0.86250  0.21830  Biso   1.000  H
  C78      1.0000 0.35783  0.99496  0.07590  Biso   1.000  C
  H63      1.0000 0.37710  0.02910  0.04060  Biso   1.000  H
  C79      1.0000 0.30651  0.99505  0.23370  Biso   1.000  C
  H64      1.0000 0.29060  0.02940  0.30370  Biso   1.000  H
  C80      1.0000 0.27764  0.94581  0.29210  Biso   1.000  C
  Sc1      1.0000 0.50000  0.50000  0.50000  Biso   1.000  Sc
  Sc2      1.0000 0.00000  0.00000  0.00000  Biso   1.000  Sc
  Sc3      1.0000 0.00000  0.50000  0.25000  Biso   1.000  Sc
  Sc4      1.0000 0.50000  0.00000  0.75000  Biso   1.000  Sc
  O17      1.0000 0.50000  0.50000  0.00000  Biso   1.000  O
  O18      1.0000 0.00000  0.00000  0.50000  Biso   1.000  O
  O19      1.0000 0.00000  0.50000  0.75000  Biso   1.000  O
  O20      1.0000 0.50000  0.00000  0.25000  Biso   1.000  O
