data_FITJEY_clean
_audit_creation_date              2014-07-02
_audit_creation_method            'Materials Studio'
_symmetry_space_group_name_H-M    'P1'
_symmetry_Int_Tables_number       1
_symmetry_cell_setting            triclinic
loop_
_symmetry_equiv_pos_as_xyz
  x,y,z
_cell_length_a                    10.0476
_cell_length_b                    14.9869
_cell_length_c                    22.2426
_cell_angle_alpha                 90.0000
_cell_angle_beta                  90.0000
_cell_angle_gamma                 107.5860
loop_
_atom_site_label
_atom_site_type_symbol
_atom_site_fract_x
_atom_site_fract_y
_atom_site_fract_z
_atom_site_U_iso_or_equiv
_atom_site_adp_type
_atom_site_occupancy
Er1    Er    0.02620   0.49739   0.14140   0.01267  Uiso   1.00
Er2    Er    0.41716   0.24684   0.15621   0.01267  Uiso   1.00
Er3    Er    0.24157   0.90742   0.01384   0.01267  Uiso   1.00
Er4    Er    0.47380   0.00261   0.64140   0.01267  Uiso   1.00
Er5    Er    0.08284   0.25316   0.65621   0.01267  Uiso   1.00
Er6    Er    0.25843   0.59258   0.51384   0.01267  Uiso   1.00
Er7    Er    0.97380   0.50261   0.85860   0.01267  Uiso   1.00
Er8    Er    0.58284   0.75316   0.84379   0.01267  Uiso   1.00
Er9    Er    0.75843   0.09258   0.98616   0.01267  Uiso   1.00
Er10   Er    0.52620   0.99739   0.35860   0.01267  Uiso   1.00
Er11   Er    0.91716   0.74684   0.34379   0.01267  Uiso   1.00
Er12   Er    0.74157   0.40742   0.48616   0.01267  Uiso   1.00
P1     P     0.45060   0.15444   0.00861   0.01267  Uiso   1.00
P2     P     0.04940   0.34556   0.50861   0.01267  Uiso   1.00
P3     P     0.54940   0.84556   0.99139   0.01267  Uiso   1.00
P4     P     0.95060   0.65444   0.49139   0.01267  Uiso   1.00
H1     H     0.37010   0.31730   0.01050   0.01267  Uiso   1.00
H2     H     0.25420   0.17790   0.96280   0.01267  Uiso   1.00
H3     H     0.37870   0.20180   0.91710   0.01267  Uiso   1.00
H4     H     0.58810   0.34210   0.97320   0.01267  Uiso   1.00
H5     H     0.53320   0.36370   0.91060   0.01267  Uiso   1.00
H6     H     0.53720   0.43050   0.96530   0.01267  Uiso   1.00
H7     H     0.17990   0.31010   0.95140   0.01267  Uiso   1.00
H8     H     0.28610   0.41120   0.95180   0.01267  Uiso   1.00
H9     H     0.28160   0.34450   0.89700   0.01267  Uiso   1.00
H10    H     0.12990   0.18270   0.51050   0.01267  Uiso   1.00
H11    H     0.24580   0.32210   0.46280   0.01267  Uiso   1.00
H12    H     0.12130   0.29820   0.41710   0.01267  Uiso   1.00
H13    H     0.91190   0.15790   0.47320   0.01267  Uiso   1.00
H14    H     0.96680   0.13630   0.41060   0.01267  Uiso   1.00
H15    H     0.96280   0.06950   0.46530   0.01267  Uiso   1.00
H16    H     0.32010   0.18990   0.45140   0.01267  Uiso   1.00
H17    H     0.21390   0.08880   0.45180   0.01267  Uiso   1.00
H18    H     0.21840   0.15550   0.39700   0.01267  Uiso   1.00
H19    H     0.62990   0.68270   0.98950   0.01267  Uiso   1.00
H20    H     0.74580   0.82210   0.03720   0.01267  Uiso   1.00
H21    H     0.62130   0.79820   0.08290   0.01267  Uiso   1.00
H22    H     0.41190   0.65790   0.02680   0.01267  Uiso   1.00
H23    H     0.46680   0.63630   0.08940   0.01267  Uiso   1.00
H24    H     0.46280   0.56950   0.03470   0.01267  Uiso   1.00
H25    H     0.82010   0.68990   0.04860   0.01267  Uiso   1.00
H26    H     0.71390   0.58880   0.04820   0.01267  Uiso   1.00
H27    H     0.71840   0.65550   0.10300   0.01267  Uiso   1.00
H28    H     0.87010   0.81730   0.48950   0.01267  Uiso   1.00
H29    H     0.75420   0.67790   0.53720   0.01267  Uiso   1.00
H30    H     0.87870   0.70180   0.58290   0.01267  Uiso   1.00
H31    H     0.08810   0.84210   0.52680   0.01267  Uiso   1.00
H32    H     0.03320   0.86370   0.58940   0.01267  Uiso   1.00
H33    H     0.03720   0.93050   0.53470   0.01267  Uiso   1.00
H34    H     0.67990   0.81010   0.54860   0.01267  Uiso   1.00
H35    H     0.78610   0.91120   0.54820   0.01267  Uiso   1.00
H36    H     0.78160   0.84450   0.60300   0.01267  Uiso   1.00
C1     C     0.21840   0.37070   0.18120   0.01267  Uiso   1.00
C2     C     0.23990   0.38190   0.11250   0.01267  Uiso   1.00
C3     C     0.97430   0.66400   0.21910   0.01267  Uiso   1.00
C4     C     0.95260   0.58070   0.26360   0.01267  Uiso   1.00
C5     C     0.74810   0.33040   0.16190   0.01267  Uiso   1.00
C6     C     0.69810   0.41610   0.15020   0.01267  Uiso   1.00
C7     C     0.95570   0.44800   0.99890   0.01267  Uiso   1.00
C8     C     0.99040   0.99910   0.03510   0.01267  Uiso   1.00
C9     C     0.35320   0.20980   0.95840   0.01267  Uiso   1.00
C10    C     0.52180   0.36660   0.95340   0.01267  Uiso   1.00
C11    C     0.27190   0.34740   0.93980   0.01267  Uiso   1.00
C12    C     0.28160   0.12930   0.68120   0.01267  Uiso   1.00
C13    C     0.26010   0.11810   0.61250   0.01267  Uiso   1.00
C14    C     0.52570   0.83600   0.71910   0.01267  Uiso   1.00
C15    C     0.54740   0.91930   0.76360   0.01267  Uiso   1.00
C16    C     0.75190   0.16960   0.66190   0.01267  Uiso   1.00
C17    C     0.80190   0.08390   0.65020   0.01267  Uiso   1.00
C18    C     0.54430   0.05200   0.49890   0.01267  Uiso   1.00
C19    C     0.50960   0.50090   0.53510   0.01267  Uiso   1.00
C20    C     0.14680   0.29020   0.45840   0.01267  Uiso   1.00
C21    C     0.97820   0.13340   0.45340   0.01267  Uiso   1.00
C22    C     0.22810   0.15260   0.43980   0.01267  Uiso   1.00
C23    C     0.78160   0.62930   0.81880   0.01267  Uiso   1.00
C24    C     0.76010   0.61810   0.88750   0.01267  Uiso   1.00
C25    C     0.02570   0.33600   0.78090   0.01267  Uiso   1.00
C26    C     0.04740   0.41930   0.73640   0.01267  Uiso   1.00
C27    C     0.25190   0.66960   0.83810   0.01267  Uiso   1.00
C28    C     0.30190   0.58390   0.84980   0.01267  Uiso   1.00
C29    C     0.04430   0.55200   0.00110   0.01267  Uiso   1.00
C30    C     0.00960   0.00090   0.96490   0.01267  Uiso   1.00
C31    C     0.64680   0.79020   0.04160   0.01267  Uiso   1.00
C32    C     0.47820   0.63340   0.04660   0.01267  Uiso   1.00
C33    C     0.72810   0.65260   0.06020   0.01267  Uiso   1.00
C34    C     0.71840   0.87070   0.31880   0.01267  Uiso   1.00
C35    C     0.73990   0.88190   0.38750   0.01267  Uiso   1.00
C36    C     0.47430   0.16400   0.28090   0.01267  Uiso   1.00
C37    C     0.45260   0.08070   0.23640   0.01267  Uiso   1.00
C38    C     0.24810   0.83040   0.33810   0.01267  Uiso   1.00
C39    C     0.19810   0.91610   0.34980   0.01267  Uiso   1.00
C40    C     0.45570   0.94800   0.50110   0.01267  Uiso   1.00
C41    C     0.49040   0.49910   0.46490   0.01267  Uiso   1.00
C42    C     0.85320   0.70980   0.54160   0.01267  Uiso   1.00
C43    C     0.02180   0.86660   0.54660   0.01267  Uiso   1.00
C44    C     0.77190   0.84740   0.56020   0.01267  Uiso   1.00
N1     N     0.37890   0.31050   0.97020   0.01267  Uiso   1.00
N2     N     0.12110   0.18950   0.47020   0.01267  Uiso   1.00
N3     N     0.62110   0.68950   0.02980   0.01267  Uiso   1.00
N4     N     0.87890   0.81050   0.52980   0.01267  Uiso   1.00
O1     O     0.27870   0.32050   0.20840   0.01267  Uiso   1.00
O2     O     0.14190   0.41440   0.20390   0.01267  Uiso   1.00
O3     O     0.18600   0.43530   0.08660   0.01267  Uiso   1.00
O4     O     0.31340   0.33510   0.09030   0.01267  Uiso   1.00
O5     O     0.95180   0.73660   0.23850   0.01267  Uiso   1.00
O6     O     0.01080   0.65070   0.16710   0.01267  Uiso   1.00
O7     O     0.92000   0.59590   0.31700   0.01267  Uiso   1.00
O8     O     0.97010   0.50760   0.24440   0.01267  Uiso   1.00
O9     O     0.56730   0.40080   0.15240   0.01267  Uiso   1.00
O10    O     0.78690   0.49110   0.13960   0.01267  Uiso   1.00
O11    O     0.65680   0.25280   0.16730   0.01267  Uiso   1.00
O12    O     0.87790   0.34500   0.16590   0.01267  Uiso   1.00
O13    O     0.91790   0.40910   0.04800   0.01267  Uiso   1.00
O14    O     0.92950   0.41190   0.94720   0.01267  Uiso   1.00
O15    O     0.06690   0.96300   0.06440   0.01267  Uiso   1.00
O16    O     0.90440   0.03560   0.05490   0.01267  Uiso   1.00
O17    O     0.35660   0.05620   0.01600   0.01267  Uiso   1.00
O18    O     0.58870   0.16090   0.97990   0.01267  Uiso   1.00
O19    O     0.46840   0.21040   0.06570   0.01267  Uiso   1.00
O20    O     0.22130   0.17950   0.70840   0.01267  Uiso   1.00
O21    O     0.35810   0.08560   0.70390   0.01267  Uiso   1.00
O22    O     0.31400   0.06470   0.58660   0.01267  Uiso   1.00
O23    O     0.18660   0.16490   0.59030   0.01267  Uiso   1.00
O24    O     0.54820   0.76340   0.73850   0.01267  Uiso   1.00
O25    O     0.48920   0.84930   0.66710   0.01267  Uiso   1.00
O26    O     0.58000   0.90410   0.81700   0.01267  Uiso   1.00
O27    O     0.52990   0.99240   0.74440   0.01267  Uiso   1.00
O28    O     0.93270   0.09920   0.65240   0.01267  Uiso   1.00
O29    O     0.71310   0.00890   0.63960   0.01267  Uiso   1.00
O30    O     0.84320   0.24720   0.66730   0.01267  Uiso   1.00
O31    O     0.62210   0.15500   0.66590   0.01267  Uiso   1.00
O32    O     0.58210   0.09090   0.54800   0.01267  Uiso   1.00
O33    O     0.57050   0.08810   0.44720   0.01267  Uiso   1.00
O34    O     0.43310   0.53700   0.56440   0.01267  Uiso   1.00
O35    O     0.59560   0.46440   0.55490   0.01267  Uiso   1.00
O36    O     0.14340   0.44380   0.51600   0.01267  Uiso   1.00
O37    O     0.91130   0.33910   0.47990   0.01267  Uiso   1.00
O38    O     0.03160   0.28960   0.56570   0.01267  Uiso   1.00
O39    O     0.72130   0.67950   0.79160   0.01267  Uiso   1.00
O40    O     0.85810   0.58560   0.79610   0.01267  Uiso   1.00
O41    O     0.81400   0.56470   0.91340   0.01267  Uiso   1.00
O42    O     0.68660   0.66490   0.90970   0.01267  Uiso   1.00
O43    O     0.04820   0.26340   0.76150   0.01267  Uiso   1.00
O44    O     0.98920   0.34930   0.83290   0.01267  Uiso   1.00
O45    O     0.08000   0.40410   0.68300   0.01267  Uiso   1.00
O46    O     0.02990   0.49240   0.75560   0.01267  Uiso   1.00
O47    O     0.43270   0.59920   0.84760   0.01267  Uiso   1.00
O48    O     0.21310   0.50890   0.86040   0.01267  Uiso   1.00
O49    O     0.34320   0.74720   0.83270   0.01267  Uiso   1.00
O50    O     0.12210   0.65500   0.83410   0.01267  Uiso   1.00
O51    O     0.08210   0.59090   0.95200   0.01267  Uiso   1.00
O52    O     0.07050   0.58810   0.05280   0.01267  Uiso   1.00
O53    O     0.93310   0.03700   0.93560   0.01267  Uiso   1.00
O54    O     0.09560   0.96440   0.94510   0.01267  Uiso   1.00
O55    O     0.64340   0.94380   0.98400   0.01267  Uiso   1.00
O56    O     0.41130   0.83910   0.02010   0.01267  Uiso   1.00
O57    O     0.53160   0.78960   0.93430   0.01267  Uiso   1.00
O58    O     0.77870   0.82050   0.29160   0.01267  Uiso   1.00
O59    O     0.64190   0.91440   0.29610   0.01267  Uiso   1.00
O60    O     0.68600   0.93530   0.41340   0.01267  Uiso   1.00
O61    O     0.81340   0.83510   0.40970   0.01267  Uiso   1.00
O62    O     0.45180   0.23660   0.26150   0.01267  Uiso   1.00
O63    O     0.51080   0.15070   0.33290   0.01267  Uiso   1.00
O64    O     0.42000   0.09590   0.18300   0.01267  Uiso   1.00
O65    O     0.47010   0.00760   0.25560   0.01267  Uiso   1.00
O66    O     0.06730   0.90080   0.34760   0.01267  Uiso   1.00
O67    O     0.28690   0.99110   0.36040   0.01267  Uiso   1.00
O68    O     0.15680   0.75280   0.33270   0.01267  Uiso   1.00
O69    O     0.37790   0.84500   0.33410   0.01267  Uiso   1.00
O70    O     0.41790   0.90910   0.45200   0.01267  Uiso   1.00
O71    O     0.42950   0.91190   0.55280   0.01267  Uiso   1.00
O72    O     0.56690   0.46300   0.43560   0.01267  Uiso   1.00
O73    O     0.40440   0.53560   0.44510   0.01267  Uiso   1.00
O74    O     0.85660   0.55620   0.48400   0.01267  Uiso   1.00
O75    O     0.08870   0.66090   0.52010   0.01267  Uiso   1.00
O76    O     0.96840   0.71040   0.43430   0.01267  Uiso   1.00
