data_image0
_cell_length_a       8.1217
_cell_length_b       8.9601
_cell_length_c       10.4611
_cell_angle_alpha    111.93
_cell_angle_beta     103.655
_cell_angle_gamma    101.903

_symmetry_space_group_name_H-M    "P 1"
_symmetry_int_tables_number       1

loop_
  _symmetry_equiv_pos_as_xyz
  'x, y, z'

loop_
  _atom_site_label
  _atom_site_occupancy
  _atom_site_fract_x
  _atom_site_fract_y
  _atom_site_fract_z
  _atom_site_thermal_displace_type
  _atom_site_B_iso_or_equiv
  _atom_site_type_symbol
  Ga1      1.0000 0.19859  0.35167  0.36296  Biso   1.000  Ga
  Ga2      1.0000 0.72345  0.00093  0.44691  Biso   1.000  Ga
  P1       1.0000 0.45080  0.72570  0.48356  Biso   1.000  P
  P2       1.0000 0.99090  0.97020  0.29119  Biso   1.000  P
  F1       1.0000 0.14490  0.22700  0.15800  Biso   1.000  F
  O1       1.0000 0.96810  0.40860  0.31390  Biso   1.000  O
  O2       1.0000 0.32160  0.55710  0.35830  Biso   1.000  O
  O3       1.0000 0.79060  0.51650  0.42970  Biso   1.000  O
  O4       1.0000 0.58980  0.70550  0.59350  Biso   1.000  O
  O5       1.0000 0.05310  0.16150  0.37440  Biso   1.000  O
  O6       1.0000 0.80610  0.90110  0.30010  Biso   1.000  O
  O7       1.0000 0.34970  0.82590  0.57200  Biso   1.000  O
  O8       1.0000 0.52870  0.82670  0.40880  Biso   1.000  O
  O9       1.0000 0.97820  0.89960  0.13210  Biso   1.000  O
  O10      1.0000 0.12030  0.89890  0.36660  Biso   1.000  O
  C1       1.0000 0.93070  0.47780  0.42550  Biso   1.000  C
  Ga3      1.0000 0.80141  0.64833  0.63704  Biso   1.000  Ga
  Ga4      1.0000 0.27655  0.99907  0.55309  Biso   1.000  Ga
  P3       1.0000 0.54920  0.27430  0.51644  Biso   1.000  P
  P4       1.0000 0.00910  0.02980  0.70881  Biso   1.000  P
  F2       1.0000 0.85510  0.77300  0.84200  Biso   1.000  F
  O11      1.0000 0.03190  0.59140  0.68610  Biso   1.000  O
  O12      1.0000 0.67840  0.44290  0.64170  Biso   1.000  O
  O13      1.0000 0.20940  0.48350  0.57030  Biso   1.000  O
  O14      1.0000 0.41020  0.29450  0.40650  Biso   1.000  O
  O15      1.0000 0.94690  0.83850  0.62560  Biso   1.000  O
  O16      1.0000 0.19390  0.09890  0.69990  Biso   1.000  O
  O17      1.0000 0.65030  0.17410  0.42800  Biso   1.000  O
  O18      1.0000 0.47130  0.17330  0.59120  Biso   1.000  O
  O19      1.0000 0.02180  0.10040  0.86790  Biso   1.000  O
  O20      1.0000 0.87970  0.10110  0.63340  Biso   1.000  O
  C2       1.0000 0.06930  0.52220  0.57450  Biso   1.000  C
  Ga5      1.0000 0.00000  0.00000  0.00000  Biso   1.000  Ga
