data_image0
_cell_length_a       10.2826
_cell_length_b       12.6977
_cell_length_c       17.864
_cell_angle_alpha    90
_cell_angle_beta     102.761
_cell_angle_gamma    90

_symmetry_space_group_name_H-M    "P 1"
_symmetry_int_tables_number       1

loop_
  _symmetry_equiv_pos_as_xyz
  'x, y, z'

loop_
  _atom_site_label
  _atom_site_occupancy
  _atom_site_fract_x
  _atom_site_fract_y
  _atom_site_fract_z
  _atom_site_thermal_displace_type
  _atom_site_B_iso_or_equiv
  _atom_site_type_symbol
  Sc1      1.0000 0.43963  0.02145  0.12748  Biso   1.000  Sc
  Sc2      1.0000 0.24602  0.06920  0.27905  Biso   1.000  Sc
  Sc3      1.0000 0.96895  0.88639  0.20811  Biso   1.000  Sc
  Sc4      1.0000 0.86551  0.14671  0.42316  Biso   1.000  Sc
  P1       1.0000 0.70051  0.91130  0.05789  Biso   1.000  P
  P2       1.0000 0.56465  0.11791  0.30734  Biso   1.000  P
  P3       1.0000 0.22280  0.33851  0.29917  Biso   1.000  P
  P4       1.0000 0.08021  0.95350  0.39262  Biso   1.000  P
  F1       1.0000 0.28960  0.08579  0.17319  Biso   1.000  F
  F2       1.0000 0.05330  0.03385  0.22052  Biso   1.000  F
  O1       1.0000 0.67990  0.97200  0.98216  Biso   1.000  O
  O2       1.0000 0.84440  0.92390  0.10414  Biso   1.000  O
  O3       1.0000 0.60350  0.95090  0.10543  Biso   1.000  O
  O4       1.0000 0.67390  0.79399  0.03945  Biso   1.000  O
  O5       1.0000 0.58620  0.23248  0.28453  Biso   1.000  O
  O6       1.0000 0.55940  0.04618  0.23786  Biso   1.000  O
  O7       1.0000 0.68380  0.08744  0.37212  Biso   1.000  O
  O8       1.0000 0.43560  0.10740  0.33670  Biso   1.000  O
  O9       1.0000 0.37110  0.34310  0.33795  Biso   1.000  O
  O10      1.0000 0.13730  0.37253  0.35610  Biso   1.000  O
  O11      1.0000 0.18170  0.22545  0.27346  Biso   1.000  O
  O12      1.0000 0.19380  0.41297  0.22971  Biso   1.000  O
  O13      1.0000 0.05410  0.87307  0.32717  Biso   1.000  O
  O14      1.0000 0.18330  0.03707  0.37974  Biso   1.000  O
  O15      1.0000 0.94860  0.01014  0.39375  Biso   1.000  O
  O16      1.0000 0.13330  0.89870  0.46887  Biso   1.000  O
  Sc5      1.0000 0.06037  0.52145  0.37252  Biso   1.000  Sc
  Sc6      1.0000 0.25398  0.56920  0.22095  Biso   1.000  Sc
  Sc7      1.0000 0.53105  0.38639  0.29189  Biso   1.000  Sc
  Sc8      1.0000 0.63449  0.64671  0.07684  Biso   1.000  Sc
  P5       1.0000 0.79949  0.41130  0.44211  Biso   1.000  P
  P6       1.0000 0.93535  0.61791  0.19266  Biso   1.000  P
  P7       1.0000 0.27720  0.83851  0.20083  Biso   1.000  P
  P8       1.0000 0.41979  0.45350  0.10738  Biso   1.000  P
  F3       1.0000 0.21040  0.58579  0.32681  Biso   1.000  F
  F4       1.0000 0.44670  0.53385  0.27948  Biso   1.000  F
  O17      1.0000 0.82010  0.47200  0.51784  Biso   1.000  O
  O18      1.0000 0.65560  0.42390  0.39586  Biso   1.000  O
  O19      1.0000 0.89650  0.45090  0.39457  Biso   1.000  O
  O20      1.0000 0.82610  0.29399  0.46055  Biso   1.000  O
  O21      1.0000 0.91380  0.73248  0.21547  Biso   1.000  O
  O22      1.0000 0.94060  0.54618  0.26214  Biso   1.000  O
  O23      1.0000 0.81620  0.58744  0.12788  Biso   1.000  O
  O24      1.0000 0.06440  0.60740  0.16330  Biso   1.000  O
  O25      1.0000 0.12890  0.84310  0.16205  Biso   1.000  O
  O26      1.0000 0.36270  0.87253  0.14390  Biso   1.000  O
  O27      1.0000 0.31830  0.72545  0.22654  Biso   1.000  O
  O28      1.0000 0.30620  0.91297  0.27029  Biso   1.000  O
  O29      1.0000 0.44590  0.37307  0.17283  Biso   1.000  O
  O30      1.0000 0.31670  0.53707  0.12026  Biso   1.000  O
  O31      1.0000 0.55140  0.51014  0.10625  Biso   1.000  O
  O32      1.0000 0.36670  0.39870  0.03113  Biso   1.000  O
  Sc9      1.0000 0.56037  0.97855  0.87252  Biso   1.000  Sc
  Sc10     1.0000 0.75398  0.93080  0.72095  Biso   1.000  Sc
  Sc11     1.0000 0.03105  0.11361  0.79189  Biso   1.000  Sc
  Sc12     1.0000 0.13449  0.85329  0.57684  Biso   1.000  Sc
  P9       1.0000 0.29949  0.08870  0.94211  Biso   1.000  P
  P10      1.0000 0.43535  0.88209  0.69266  Biso   1.000  P
  P11      1.0000 0.77720  0.66149  0.70083  Biso   1.000  P
  P12      1.0000 0.91979  0.04650  0.60738  Biso   1.000  P
  F5       1.0000 0.71040  0.91421  0.82681  Biso   1.000  F
  F6       1.0000 0.94670  0.96615  0.77948  Biso   1.000  F
  O33      1.0000 0.32010  0.02800  0.01784  Biso   1.000  O
  O34      1.0000 0.15560  0.07610  0.89586  Biso   1.000  O
  O35      1.0000 0.39650  0.04910  0.89457  Biso   1.000  O
  O36      1.0000 0.32610  0.20601  0.96055  Biso   1.000  O
  O37      1.0000 0.41380  0.76752  0.71547  Biso   1.000  O
  O38      1.0000 0.44060  0.95382  0.76214  Biso   1.000  O
  O39      1.0000 0.31620  0.91256  0.62788  Biso   1.000  O
  O40      1.0000 0.56440  0.89260  0.66330  Biso   1.000  O
  O41      1.0000 0.62890  0.65690  0.66205  Biso   1.000  O
  O42      1.0000 0.86270  0.62747  0.64390  Biso   1.000  O
  O43      1.0000 0.81830  0.77455  0.72654  Biso   1.000  O
  O44      1.0000 0.80620  0.58703  0.77029  Biso   1.000  O
  O45      1.0000 0.94590  0.12693  0.67283  Biso   1.000  O
  O46      1.0000 0.81670  0.96293  0.62026  Biso   1.000  O
  O47      1.0000 0.05140  0.98986  0.60625  Biso   1.000  O
  O48      1.0000 0.86670  0.10130  0.53113  Biso   1.000  O
  Sc13     1.0000 0.93963  0.47855  0.62748  Biso   1.000  Sc
  Sc14     1.0000 0.74602  0.43080  0.77905  Biso   1.000  Sc
  Sc15     1.0000 0.46895  0.61361  0.70811  Biso   1.000  Sc
  Sc16     1.0000 0.36551  0.35329  0.92316  Biso   1.000  Sc
  P13      1.0000 0.20051  0.58870  0.55789  Biso   1.000  P
  P14      1.0000 0.06465  0.38209  0.80734  Biso   1.000  P
  P15      1.0000 0.72280  0.16149  0.79917  Biso   1.000  P
  P16      1.0000 0.58021  0.54650  0.89262  Biso   1.000  P
  F7       1.0000 0.78960  0.41421  0.67319  Biso   1.000  F
  F8       1.0000 0.55330  0.46615  0.72052  Biso   1.000  F
  O49      1.0000 0.17990  0.52800  0.48216  Biso   1.000  O
  O50      1.0000 0.34440  0.57610  0.60414  Biso   1.000  O
  O51      1.0000 0.10350  0.54910  0.60543  Biso   1.000  O
  O52      1.0000 0.17390  0.70601  0.53945  Biso   1.000  O
  O53      1.0000 0.08620  0.26752  0.78453  Biso   1.000  O
  O54      1.0000 0.05940  0.45382  0.73786  Biso   1.000  O
  O55      1.0000 0.18380  0.41256  0.87212  Biso   1.000  O
  O56      1.0000 0.93560  0.39260  0.83670  Biso   1.000  O
  O57      1.0000 0.87110  0.15690  0.83795  Biso   1.000  O
  O58      1.0000 0.63730  0.12747  0.85610  Biso   1.000  O
  O59      1.0000 0.68170  0.27455  0.77346  Biso   1.000  O
  O60      1.0000 0.69380  0.08703  0.72971  Biso   1.000  O
  O61      1.0000 0.55410  0.62693  0.82717  Biso   1.000  O
  O62      1.0000 0.68330  0.46293  0.87974  Biso   1.000  O
  O63      1.0000 0.44860  0.48986  0.89375  Biso   1.000  O
  O64      1.0000 0.63330  0.60130  0.96887  Biso   1.000  O
