data_FIVYEP01_clean
_audit_creation_date              2014-07-02
_audit_creation_method            'Materials Studio'
_symmetry_space_group_name_H-M    'P1'
_symmetry_Int_Tables_number       1
_symmetry_cell_setting            triclinic
loop_
_symmetry_equiv_pos_as_xyz
  x,y,z
_cell_length_a                    12.0682
_cell_length_b                    12.0682
_cell_length_c                    14.6140
_cell_angle_alpha                 86.1739
_cell_angle_beta                  86.1739
_cell_angle_gamma                 64.2840
loop_
_atom_site_label
_atom_site_type_symbol
_atom_site_fract_x
_atom_site_fract_y
_atom_site_fract_z
_atom_site_U_iso_or_equiv
_atom_site_adp_type
_atom_site_occupancy
K1     K     0.21232   0.21232   0.43504   0.01267  Uiso   1.00
K2     K     0.06132   0.06132   0.59104   0.01267  Uiso   1.00
K3     K     0.78768   0.78768   0.56496   0.01267  Uiso   1.00
K4     K     0.93868   0.93868   0.40896   0.01267  Uiso   1.00
U1     U     0.44362   0.94580   0.21096   0.01267  Uiso   1.00
U2     U     0.05420   0.55638   0.78904   0.01267  Uiso   1.00
U3     U     0.55638   0.05420   0.78904   0.01267  Uiso   1.00
U4     U     0.94580   0.44362   0.21096   0.01267  Uiso   1.00
C1     C     0.22270   0.86690   0.27610   0.01267  Uiso   1.00
C2     C     0.22620   0.94560   0.35250   0.01267  Uiso   1.00
C3     C     0.43530   0.14070   0.59050   0.01267  Uiso   1.00
C4     C     0.38560   0.04760   0.62830   0.01267  Uiso   1.00
C5     C     0.51590   0.05210   0.01390   0.01267  Uiso   1.00
C6     C     0.13310   0.77730   0.72390   0.01267  Uiso   1.00
C7     C     0.05440   0.77380   0.64750   0.01267  Uiso   1.00
C8     C     0.85930   0.56470   0.40950   0.01267  Uiso   1.00
C9     C     0.95240   0.61440   0.37170   0.01267  Uiso   1.00
C10    C     0.94790   0.48410   0.98610   0.01267  Uiso   1.00
C11    C     0.77730   0.13310   0.72390   0.01267  Uiso   1.00
C12    C     0.77380   0.05440   0.64750   0.01267  Uiso   1.00
C13    C     0.56470   0.85930   0.40950   0.01267  Uiso   1.00
C14    C     0.61440   0.95240   0.37170   0.01267  Uiso   1.00
C15    C     0.48410   0.94790   0.98610   0.01267  Uiso   1.00
C16    C     0.86690   0.22270   0.27610   0.01267  Uiso   1.00
C17    C     0.94560   0.22620   0.35250   0.01267  Uiso   1.00
C18    C     0.14070   0.43530   0.59050   0.01267  Uiso   1.00
C19    C     0.04760   0.38560   0.62830   0.01267  Uiso   1.00
C20    C     0.05210   0.51590   0.01390   0.01267  Uiso   1.00
C21    C     0.18800   0.18800   0.14880   0.01267  Uiso   1.00
C22    C     0.24200   0.24200   0.21570   0.01267  Uiso   1.00
C23    C     0.81200   0.81200   0.85120   0.01267  Uiso   1.00
C24    C     0.75800   0.75800   0.78430   0.01267  Uiso   1.00
C25    C     0.65420   0.65420   0.18630   0.01267  Uiso   1.00
C26    C     0.72920   0.72920   0.17400   0.01267  Uiso   1.00
C27    C     0.34580   0.34580   0.81370   0.01267  Uiso   1.00
C28    C     0.27080   0.27080   0.82600   0.01267  Uiso   1.00
O1     O     0.30125   0.85325   0.21040   0.01267  Uiso   1.00
O2     O     0.28620   0.00880   0.33000   0.01267  Uiso   1.00
O3     O     0.17550   0.94250   0.42880   0.01267  Uiso   1.00
O4     O     0.14690   0.82350   0.28260   0.01267  Uiso   1.00
O5     O     0.43795   0.98755   0.70020   0.01267  Uiso   1.00
O6     O     0.48320   0.17440   0.65210   0.01267  Uiso   1.00
O7     O     0.30320   0.03680   0.58920   0.01267  Uiso   1.00
O8     O     0.42680   0.17560   0.50880   0.01267  Uiso   1.00
O9     O     0.25500   0.08100   0.12470   0.01267  Uiso   1.00
O10    O     0.34788   0.17428   0.24120   0.01267  Uiso   1.00
O11    O     0.53912   0.71392   0.19010   0.01267  Uiso   1.00
O12    O     0.66991   0.84351   0.16950   0.01267  Uiso   1.00
O13    O     0.51031   0.06951   0.09790   0.01267  Uiso   1.00
O14    O     0.54388   0.11088   0.95030   0.01267  Uiso   1.00
O15    O     0.14675   0.69875   0.78960   0.01267  Uiso   1.00
O16    O     0.99120   0.71380   0.67000   0.01267  Uiso   1.00
O17    O     0.05750   0.82450   0.57120   0.01267  Uiso   1.00
O18    O     0.17650   0.85310   0.71740   0.01267  Uiso   1.00
O19    O     0.01245   0.56205   0.29980   0.01267  Uiso   1.00
O20    O     0.82560   0.51680   0.34790   0.01267  Uiso   1.00
O21    O     0.96320   0.69680   0.41080   0.01267  Uiso   1.00
O22    O     0.82440   0.57320   0.49120   0.01267  Uiso   1.00
O23    O     0.91900   0.74500   0.87530   0.01267  Uiso   1.00
O24    O     0.82572   0.65212   0.75880   0.01267  Uiso   1.00
O25    O     0.28608   0.46088   0.80990   0.01267  Uiso   1.00
O26    O     0.15649   0.33009   0.83050   0.01267  Uiso   1.00
O27    O     0.93049   0.48969   0.90210   0.01267  Uiso   1.00
O28    O     0.88912   0.45612   0.04970   0.01267  Uiso   1.00
O29    O     0.69875   0.14675   0.78960   0.01267  Uiso   1.00
O30    O     0.71380   0.99120   0.67000   0.01267  Uiso   1.00
O31    O     0.82450   0.05750   0.57120   0.01267  Uiso   1.00
O32    O     0.85310   0.17650   0.71740   0.01267  Uiso   1.00
O33    O     0.56205   0.01245   0.29980   0.01267  Uiso   1.00
O34    O     0.51680   0.82560   0.34790   0.01267  Uiso   1.00
O35    O     0.69680   0.96320   0.41080   0.01267  Uiso   1.00
O36    O     0.57320   0.82440   0.49120   0.01267  Uiso   1.00
O37    O     0.74500   0.91900   0.87530   0.01267  Uiso   1.00
O38    O     0.65212   0.82572   0.75880   0.01267  Uiso   1.00
O39    O     0.46088   0.28608   0.80990   0.01267  Uiso   1.00
O40    O     0.33009   0.15649   0.83050   0.01267  Uiso   1.00
O41    O     0.48969   0.93049   0.90210   0.01267  Uiso   1.00
O42    O     0.45612   0.88912   0.04970   0.01267  Uiso   1.00
O43    O     0.85325   0.30125   0.21040   0.01267  Uiso   1.00
O44    O     0.00880   0.28620   0.33000   0.01267  Uiso   1.00
O45    O     0.94250   0.17550   0.42880   0.01267  Uiso   1.00
O46    O     0.82350   0.14690   0.28260   0.01267  Uiso   1.00
O47    O     0.98755   0.43795   0.70020   0.01267  Uiso   1.00
O48    O     0.17440   0.48320   0.65210   0.01267  Uiso   1.00
O49    O     0.03680   0.30320   0.58920   0.01267  Uiso   1.00
O50    O     0.17560   0.42680   0.50880   0.01267  Uiso   1.00
O51    O     0.08100   0.25500   0.12470   0.01267  Uiso   1.00
O52    O     0.17428   0.34788   0.24120   0.01267  Uiso   1.00
O53    O     0.71392   0.53912   0.19010   0.01267  Uiso   1.00
O54    O     0.84351   0.66991   0.16950   0.01267  Uiso   1.00
O55    O     0.06951   0.51031   0.09790   0.01267  Uiso   1.00
O56    O     0.11088   0.54388   0.95030   0.01267  Uiso   1.00
