data_FIVYEP_clean
_audit_creation_date              2014-07-02
_audit_creation_method            'Materials Studio'
_symmetry_space_group_name_H-M    'P1'
_symmetry_Int_Tables_number       1
_symmetry_cell_setting            triclinic
loop_
_symmetry_equiv_pos_as_xyz
  x,y,z
_cell_length_a                    12.0682
_cell_length_b                    12.0682
_cell_length_c                    14.6140
_cell_angle_alpha                 86.1739
_cell_angle_beta                  86.1739
_cell_angle_gamma                 64.2840
loop_
_atom_site_label
_atom_site_type_symbol
_atom_site_fract_x
_atom_site_fract_y
_atom_site_fract_z
_atom_site_U_iso_or_equiv
_atom_site_adp_type
_atom_site_occupancy
K1     K     0.06128   0.06128   0.59100   0.01267  Uiso   1.00
K2     K     0.21228   0.21228   0.43500   0.01267  Uiso   1.00
K3     K     0.93872   0.93872   0.40900   0.01267  Uiso   1.00
K4     K     0.78772   0.78772   0.56500   0.01267  Uiso   1.00
U1     U     0.05418   0.55640   0.78904   0.01267  Uiso   1.00
U2     U     0.44360   0.94582   0.21096   0.01267  Uiso   1.00
U3     U     0.94582   0.44360   0.21096   0.01267  Uiso   1.00
U4     U     0.55640   0.05418   0.78904   0.01267  Uiso   1.00
C1     C     0.05230   0.51570   0.01390   0.01267  Uiso   1.00
C2     C     0.04760   0.38560   0.62840   0.01267  Uiso   1.00
C3     C     0.14070   0.43510   0.59060   0.01267  Uiso   1.00
C4     C     0.77350   0.05450   0.64710   0.01267  Uiso   1.00
C5     C     0.77740   0.13300   0.72390   0.01267  Uiso   1.00
C6     C     0.48430   0.94770   0.98610   0.01267  Uiso   1.00
C7     C     0.61440   0.95240   0.37160   0.01267  Uiso   1.00
C8     C     0.56490   0.85930   0.40940   0.01267  Uiso   1.00
C9     C     0.94550   0.22650   0.35290   0.01267  Uiso   1.00
C10    C     0.86700   0.22260   0.27610   0.01267  Uiso   1.00
C11    C     0.94770   0.48430   0.98610   0.01267  Uiso   1.00
C12    C     0.95240   0.61440   0.37160   0.01267  Uiso   1.00
C13    C     0.85930   0.56490   0.40940   0.01267  Uiso   1.00
C14    C     0.22650   0.94550   0.35290   0.01267  Uiso   1.00
C15    C     0.22260   0.86700   0.27610   0.01267  Uiso   1.00
C16    C     0.51570   0.05230   0.01390   0.01267  Uiso   1.00
C17    C     0.38560   0.04760   0.62840   0.01267  Uiso   1.00
C18    C     0.43510   0.14070   0.59060   0.01267  Uiso   1.00
C19    C     0.05450   0.77350   0.64710   0.01267  Uiso   1.00
C20    C     0.13300   0.77740   0.72390   0.01267  Uiso   1.00
C21    C     0.34600   0.34600   0.81380   0.01267  Uiso   1.00
C22    C     0.27080   0.27080   0.82620   0.01267  Uiso   1.00
C23    C     0.65400   0.65400   0.18620   0.01267  Uiso   1.00
C24    C     0.72920   0.72920   0.17380   0.01267  Uiso   1.00
C25    C     0.81190   0.81190   0.85130   0.01267  Uiso   1.00
C26    C     0.75810   0.75810   0.78410   0.01267  Uiso   1.00
C27    C     0.18810   0.18810   0.14870   0.01267  Uiso   1.00
C28    C     0.24190   0.24190   0.21590   0.01267  Uiso   1.00
O1     O     0.85320   0.17660   0.71730   0.01267  Uiso   1.00
O2     O     0.82480   0.05740   0.57170   0.01267  Uiso   1.00
O3     O     0.17540   0.42700   0.50890   0.01267  Uiso   1.00
O4     O     0.03690   0.30330   0.58910   0.01267  Uiso   1.00
O5     O     0.28600   0.46100   0.80980   0.01267  Uiso   1.00
O6     O     0.11130   0.54350   0.95020   0.01267  Uiso   1.00
O7     O     0.06970   0.51010   0.09790   0.01267  Uiso   1.00
O8     O     0.82560   0.65200   0.75880   0.01267  Uiso   1.00
O9     O     0.15660   0.33020   0.83050   0.01267  Uiso   1.00
O10    O     0.98780   0.43760   0.70010   0.01267  Uiso   1.00
O11    O     0.69880   0.14660   0.78960   0.01267  Uiso   1.00
O12    O     0.17420   0.48300   0.65210   0.01267  Uiso   1.00
O13    O     0.91920   0.74500   0.87530   0.01267  Uiso   1.00
O14    O     0.71390   0.99130   0.66990   0.01267  Uiso   1.00
O15    O     0.82340   0.14680   0.28270   0.01267  Uiso   1.00
O16    O     0.94260   0.17520   0.42830   0.01267  Uiso   1.00
O17    O     0.57300   0.82460   0.49110   0.01267  Uiso   1.00
O18    O     0.69670   0.96310   0.41090   0.01267  Uiso   1.00
O19    O     0.53900   0.71400   0.19020   0.01267  Uiso   1.00
O20    O     0.45650   0.88870   0.04980   0.01267  Uiso   1.00
O21    O     0.48990   0.93030   0.90210   0.01267  Uiso   1.00
O22    O     0.34800   0.17440   0.24120   0.01267  Uiso   1.00
O23    O     0.66980   0.84340   0.16950   0.01267  Uiso   1.00
O24    O     0.56240   0.01220   0.29990   0.01267  Uiso   1.00
O25    O     0.85340   0.30120   0.21040   0.01267  Uiso   1.00
O26    O     0.51700   0.82580   0.34790   0.01267  Uiso   1.00
O27    O     0.25500   0.08080   0.12470   0.01267  Uiso   1.00
O28    O     0.00870   0.28610   0.33010   0.01267  Uiso   1.00
O29    O     0.14680   0.82340   0.28270   0.01267  Uiso   1.00
O30    O     0.17520   0.94260   0.42830   0.01267  Uiso   1.00
O31    O     0.82460   0.57300   0.49110   0.01267  Uiso   1.00
O32    O     0.96310   0.69670   0.41090   0.01267  Uiso   1.00
O33    O     0.71400   0.53900   0.19020   0.01267  Uiso   1.00
O34    O     0.88870   0.45650   0.04980   0.01267  Uiso   1.00
O35    O     0.93030   0.48990   0.90210   0.01267  Uiso   1.00
O36    O     0.17440   0.34800   0.24120   0.01267  Uiso   1.00
O37    O     0.84340   0.66980   0.16950   0.01267  Uiso   1.00
O38    O     0.01220   0.56240   0.29990   0.01267  Uiso   1.00
O39    O     0.30120   0.85340   0.21040   0.01267  Uiso   1.00
O40    O     0.82580   0.51700   0.34790   0.01267  Uiso   1.00
O41    O     0.08080   0.25500   0.12470   0.01267  Uiso   1.00
O42    O     0.28610   0.00870   0.33010   0.01267  Uiso   1.00
O43    O     0.17660   0.85320   0.71730   0.01267  Uiso   1.00
O44    O     0.05740   0.82480   0.57170   0.01267  Uiso   1.00
O45    O     0.42700   0.17540   0.50890   0.01267  Uiso   1.00
O46    O     0.30330   0.03690   0.58910   0.01267  Uiso   1.00
O47    O     0.46100   0.28600   0.80980   0.01267  Uiso   1.00
O48    O     0.54350   0.11130   0.95020   0.01267  Uiso   1.00
O49    O     0.51010   0.06970   0.09790   0.01267  Uiso   1.00
O50    O     0.65200   0.82560   0.75880   0.01267  Uiso   1.00
O51    O     0.33020   0.15660   0.83050   0.01267  Uiso   1.00
O52    O     0.43760   0.98780   0.70010   0.01267  Uiso   1.00
O53    O     0.14660   0.69880   0.78960   0.01267  Uiso   1.00
O54    O     0.48300   0.17420   0.65210   0.01267  Uiso   1.00
O55    O     0.74500   0.91920   0.87530   0.01267  Uiso   1.00
O56    O     0.99130   0.71390   0.66990   0.01267  Uiso   1.00
