data_FIYDOH_clean
_audit_creation_date              2014-07-02
_audit_creation_method            'Materials Studio'
_symmetry_space_group_name_H-M    'P1'
_symmetry_Int_Tables_number       1
_symmetry_cell_setting            triclinic
loop_
_symmetry_equiv_pos_as_xyz
  x,y,z
_cell_length_a                    11.3540
_cell_length_b                    11.5836
_cell_length_c                    16.2470
_cell_angle_alpha                 105.4690
_cell_angle_beta                  110.4520
_cell_angle_gamma                 90.0000
loop_
_atom_site_label
_atom_site_type_symbol
_atom_site_fract_x
_atom_site_fract_y
_atom_site_fract_z
_atom_site_U_iso_or_equiv
_atom_site_adp_type
_atom_site_occupancy
V1     V     0.73512   0.93938   0.28962   0.01267  Uiso   1.00
V2     V     0.51846   0.68140   0.21522   0.01267  Uiso   1.00
V3     V     0.44550   0.56062   0.71038   0.01267  Uiso   1.00
V4     V     0.30324   0.81860   0.78478   0.01267  Uiso   1.00
V5     V     0.26488   0.06062   0.71038   0.01267  Uiso   1.00
V6     V     0.48154   0.31860   0.78478   0.01267  Uiso   1.00
V7     V     0.55450   0.43938   0.28962   0.01267  Uiso   1.00
V8     V     0.69676   0.18140   0.21522   0.01267  Uiso   1.00
Co1    Co    0.00000   0.00000   0.50000   0.01267  Uiso   1.00
Co2    Co    0.50000   0.50000   0.50000   0.01267  Uiso   1.00
Co3    Co    0.50000   0.00000   0.00000   0.01267  Uiso   1.00
Co4    Co    0.50000   0.50000   0.00000   0.01267  Uiso   1.00
H1     H     0.18650   0.86480   0.41620   0.01267  Uiso   1.00
H2     H     0.28040   0.86130   0.31120   0.01267  Uiso   1.00
H3     H     0.09860   0.14580   0.25720   0.01267  Uiso   1.00
H4     H     0.00620   0.13670   0.36060   0.01267  Uiso   1.00
H5     H     0.18620   0.80650   0.55420   0.01267  Uiso   1.00
H6     H     0.18770   0.61480   0.56840   0.01267  Uiso   1.00
H7     H     0.82060   0.55510   0.40980   0.01267  Uiso   1.00
H8     H     0.82980   0.74800   0.39900   0.01267  Uiso   1.00
H9     H     0.39050   0.18060   0.12660   0.01267  Uiso   1.00
H10    H     0.28710   0.18770   0.22660   0.01267  Uiso   1.00
H11    H     0.26450   0.82690   0.15880   0.01267  Uiso   1.00
H12    H     0.37440   0.83160   0.06520   0.01267  Uiso   1.00
H13    H     0.77030   0.63520   0.58380   0.01267  Uiso   1.00
H14    H     0.96920   0.63870   0.68880   0.01267  Uiso   1.00
H15    H     0.84140   0.35420   0.74280   0.01267  Uiso   1.00
H16    H     0.64560   0.36330   0.63940   0.01267  Uiso   1.00
H17    H     0.63200   0.69350   0.44580   0.01267  Uiso   1.00
H18    H     0.61930   0.88520   0.43160   0.01267  Uiso   1.00
H19    H     0.41080   0.94490   0.59020   0.01267  Uiso   1.00
H20    H     0.43080   0.75200   0.60100   0.01267  Uiso   1.00
H21    H     0.26390   0.31940   0.87340   0.01267  Uiso   1.00
H22    H     0.06050   0.31230   0.77340   0.01267  Uiso   1.00
H23    H     0.10570   0.67310   0.84120   0.01267  Uiso   1.00
H24    H     0.30920   0.66840   0.93480   0.01267  Uiso   1.00
H25    H     0.81350   0.13520   0.58380   0.01267  Uiso   1.00
H26    H     0.71960   0.13870   0.68880   0.01267  Uiso   1.00
H27    H     0.90140   0.85420   0.74280   0.01267  Uiso   1.00
H28    H     0.99380   0.86330   0.63940   0.01267  Uiso   1.00
H29    H     0.81380   0.19350   0.44580   0.01267  Uiso   1.00
H30    H     0.81230   0.38520   0.43160   0.01267  Uiso   1.00
H31    H     0.17940   0.44490   0.59020   0.01267  Uiso   1.00
H32    H     0.17020   0.25200   0.60100   0.01267  Uiso   1.00
H33    H     0.60950   0.81940   0.87340   0.01267  Uiso   1.00
H34    H     0.71290   0.81230   0.77340   0.01267  Uiso   1.00
H35    H     0.73550   0.17310   0.84120   0.01267  Uiso   1.00
H36    H     0.62560   0.16840   0.93480   0.01267  Uiso   1.00
H37    H     0.22970   0.36480   0.41620   0.01267  Uiso   1.00
H38    H     0.03080   0.36130   0.31120   0.01267  Uiso   1.00
H39    H     0.15860   0.64580   0.25720   0.01267  Uiso   1.00
H40    H     0.35440   0.63670   0.36060   0.01267  Uiso   1.00
H41    H     0.36800   0.30650   0.55420   0.01267  Uiso   1.00
H42    H     0.38070   0.11480   0.56840   0.01267  Uiso   1.00
H43    H     0.58920   0.05510   0.40980   0.01267  Uiso   1.00
H44    H     0.56920   0.24800   0.39900   0.01267  Uiso   1.00
H45    H     0.73610   0.68060   0.12660   0.01267  Uiso   1.00
H46    H     0.93950   0.68770   0.22660   0.01267  Uiso   1.00
H47    H     0.89430   0.32690   0.15880   0.01267  Uiso   1.00
H48    H     0.69080   0.33160   0.06520   0.01267  Uiso   1.00
C1     C     0.16852   0.92160   0.38364   0.01267  Uiso   1.00
C2     C     0.22632   0.91940   0.32084   0.01267  Uiso   1.00
C3     C     0.20258   0.00520   0.27216   0.01267  Uiso   1.00
C4     C     0.11810   0.08750   0.28840   0.01267  Uiso   1.00
C5     C     0.06332   0.08180   0.35144   0.01267  Uiso   1.00
C6     C     0.11103   0.75590   0.52566   0.01267  Uiso   1.00
C7     C     0.11287   0.64000   0.53494   0.01267  Uiso   1.00
C8     C     0.00181   0.56160   0.49382   0.01267  Uiso   1.00
C9     C     0.89609   0.60490   0.44118   0.01267  Uiso   1.00
C10    C     0.90225   0.72200   0.43490   0.01267  Uiso   1.00
C11    C     0.36554   0.10860   0.13388   0.01267  Uiso   1.00
C12    C     0.30313   0.11390   0.19446   0.01267  Uiso   1.00
C13    C     0.26490   0.00710   0.20620   0.01267  Uiso   1.00
C14    C     0.29071   0.90050   0.15462   0.01267  Uiso   1.00
C15    C     0.35526   0.90390   0.09712   0.01267  Uiso   1.00
C16    C     0.78488   0.57840   0.61636   0.01267  Uiso   1.00
C17    C     0.90548   0.58060   0.67916   0.01267  Uiso   1.00
C18    C     0.93042   0.49480   0.72784   0.01267  Uiso   1.00
C19    C     0.82970   0.41250   0.71160   0.01267  Uiso   1.00
C20    C     0.71188   0.41820   0.64856   0.01267  Uiso   1.00
C21    C     0.58537   0.74410   0.47434   0.01267  Uiso   1.00
C22    C     0.57793   0.86000   0.46506   0.01267  Uiso   1.00
C23    C     0.50799   0.93840   0.50618   0.01267  Uiso   1.00
C24    C     0.45491   0.89510   0.55882   0.01267  Uiso   1.00
C25    C     0.46735   0.77800   0.56510   0.01267  Uiso   1.00
C26    C     0.23166   0.39140   0.86612   0.01267  Uiso   1.00
C27    C     0.10867   0.38610   0.80554   0.01267  Uiso   1.00
C28    C     0.05870   0.49290   0.79380   0.01267  Uiso   1.00
C29    C     0.13609   0.59950   0.84538   0.01267  Uiso   1.00
C30    C     0.25814   0.59610   0.90288   0.01267  Uiso   1.00
C31    C     0.83148   0.07840   0.61636   0.01267  Uiso   1.00
C32    C     0.77368   0.08060   0.67916   0.01267  Uiso   1.00
C33    C     0.79742   0.99480   0.72784   0.01267  Uiso   1.00
C34    C     0.88190   0.91250   0.71160   0.01267  Uiso   1.00
C35    C     0.93668   0.91820   0.64856   0.01267  Uiso   1.00
C36    C     0.88897   0.24410   0.47434   0.01267  Uiso   1.00
C37    C     0.88713   0.36000   0.46506   0.01267  Uiso   1.00
C38    C     0.99819   0.43840   0.50618   0.01267  Uiso   1.00
C39    C     0.10391   0.39510   0.55882   0.01267  Uiso   1.00
C40    C     0.09775   0.27800   0.56510   0.01267  Uiso   1.00
C41    C     0.63446   0.89140   0.86612   0.01267  Uiso   1.00
C42    C     0.69687   0.88610   0.80554   0.01267  Uiso   1.00
C43    C     0.73510   0.99290   0.79380   0.01267  Uiso   1.00
C44    C     0.70929   0.09950   0.84538   0.01267  Uiso   1.00
C45    C     0.64474   0.09610   0.90288   0.01267  Uiso   1.00
C46    C     0.21512   0.42160   0.38364   0.01267  Uiso   1.00
C47    C     0.09452   0.41940   0.32084   0.01267  Uiso   1.00
C48    C     0.06958   0.50520   0.27216   0.01267  Uiso   1.00
C49    C     0.17030   0.58750   0.28840   0.01267  Uiso   1.00
C50    C     0.28812   0.58180   0.35144   0.01267  Uiso   1.00
C51    C     0.41463   0.25590   0.52566   0.01267  Uiso   1.00
C52    C     0.42207   0.14000   0.53494   0.01267  Uiso   1.00
C53    C     0.49201   0.06160   0.49382   0.01267  Uiso   1.00
C54    C     0.54509   0.10490   0.44118   0.01267  Uiso   1.00
C55    C     0.53265   0.22200   0.43490   0.01267  Uiso   1.00
C56    C     0.76834   0.60860   0.13388   0.01267  Uiso   1.00
C57    C     0.89133   0.61390   0.19446   0.01267  Uiso   1.00
C58    C     0.94130   0.50710   0.20620   0.01267  Uiso   1.00
C59    C     0.86391   0.40050   0.15462   0.01267  Uiso   1.00
C60    C     0.74186   0.40390   0.09712   0.01267  Uiso   1.00
N1     N     0.08776   0.00200   0.39992   0.01267  Uiso   1.00
N2     N     0.00765   0.79940   0.47810   0.01267  Uiso   1.00
N3     N     0.39173   0.00590   0.08526   0.01267  Uiso   1.00
N4     N     0.68784   0.49800   0.60008   0.01267  Uiso   1.00
N5     N     0.52955   0.70060   0.52190   0.01267  Uiso   1.00
N6     N     0.30647   0.49410   0.91474   0.01267  Uiso   1.00
N7     N     0.91224   0.99800   0.60008   0.01267  Uiso   1.00
N8     N     0.99235   0.20060   0.52190   0.01267  Uiso   1.00
N9     N     0.60827   0.99410   0.91474   0.01267  Uiso   1.00
N10    N     0.31216   0.50200   0.39992   0.01267  Uiso   1.00
N11    N     0.47045   0.29940   0.47810   0.01267  Uiso   1.00
N12    N     0.69353   0.50590   0.08526   0.01267  Uiso   1.00
O1     O     0.82691   0.97287   0.40062   0.01267  Uiso   1.00
O2     O     0.61463   0.82350   0.26606   0.01267  Uiso   1.00
O3     O     0.66397   0.07160   0.26674   0.01267  Uiso   1.00
O4     O     0.62182   0.13710   0.10184   0.01267  Uiso   1.00
O5     O     0.42629   0.52713   0.59938   0.01267  Uiso   1.00
O6     O     0.34857   0.67650   0.73394   0.01267  Uiso   1.00
O7     O     0.39723   0.42840   0.73326   0.01267  Uiso   1.00
O8     O     0.51998   0.36290   0.89816   0.01267  Uiso   1.00
O9     O     0.17309   0.02713   0.59938   0.01267  Uiso   1.00
O10    O     0.38537   0.17650   0.73394   0.01267  Uiso   1.00
O11    O     0.33603   0.92840   0.73326   0.01267  Uiso   1.00
O12    O     0.37818   0.86290   0.89816   0.01267  Uiso   1.00
O13    O     0.57371   0.47287   0.40062   0.01267  Uiso   1.00
O14    O     0.65143   0.32350   0.26606   0.01267  Uiso   1.00
O15    O     0.60277   0.57160   0.26674   0.01267  Uiso   1.00
O16    O     0.48002   0.63710   0.10184   0.01267  Uiso   1.00
