data_image0
_cell_length_a       31.28
_cell_length_b       14.735
_cell_length_c       28.51
_cell_angle_alpha    90
_cell_angle_beta     120.13
_cell_angle_gamma    90

_symmetry_space_group_name_H-M    "P 1"
_symmetry_int_tables_number       1

loop_
  _symmetry_equiv_pos_as_xyz
  'x, y, z'

loop_
  _atom_site_label
  _atom_site_occupancy
  _atom_site_fract_x
  _atom_site_fract_y
  _atom_site_fract_z
  _atom_site_thermal_displace_type
  _atom_site_B_iso_or_equiv
  _atom_site_type_symbol
  Dy1      1.0000 0.23194  0.88217  0.51246  Biso   1.000  Dy
  C1       1.0000 0.19120  0.02870  0.12780  Biso   1.000  C
  C2       1.0000 0.22660  0.03980  0.18440  Biso   1.000  C
  C3       1.0000 0.16800  0.98160  0.20770  Biso   1.000  C
  C4       1.0000 0.14560  0.99590  0.11300  Biso   1.000  C
  H1       1.0000 0.12280  0.98800  0.07630  Biso   1.000  H
  C5       1.0000 0.21610  0.01200  0.22380  Biso   1.000  C
  C6       1.0000 0.13180  0.97390  0.15130  Biso   1.000  C
  C7       1.0000 0.15220  0.95960  0.24580  Biso   1.000  C
  H2       1.0000 0.17420  0.96560  0.28280  Biso   1.000  H
  C8       1.0000 0.10500  0.92990  0.22790  Biso   1.000  C
  H3       1.0000 0.09590  0.91430  0.25330  Biso   1.000  H
  C9       1.0000 0.07030  0.92230  0.17320  Biso   1.000  C
  H4       1.0000 0.03840  0.90240  0.16230  Biso   1.000  H
  O1       1.0000 0.27090  0.07690  0.19960  Biso   1.000  O
  H5       1.0000 0.26960  0.10410  0.17380  Biso   1.000  H
  C10      1.0000 0.08250  0.79260  0.32970  Biso   1.000  C
  H6       1.0000 0.99990  0.86730  0.27740  Biso   1.000  H
  C11      1.0000 0.16470  0.76230  0.41410  Biso   1.000  C
  C12      1.0000 0.05670  0.70680  0.24810  Biso   1.000  C
  C13      1.0000 0.04740  0.77360  0.27630  Biso   1.000  C
  C14      1.0000 0.12640  0.74000  0.35710  Biso   1.000  C
  C15      1.0000 0.13390  0.67050  0.33160  Biso   1.000  C
  H7       1.0000 0.16160  0.63380  0.35050  Biso   1.000  H
  C16      1.0000 0.09980  0.65230  0.27600  Biso   1.000  C
  C17      1.0000 0.02540  0.69020  0.19190  Biso   1.000  C
  H8       1.0000 0.99740  0.72580  0.17230  Biso   1.000  H
  C18      1.0000 0.03550  0.62340  0.16610  Biso   1.000  C
  H9       1.0000 0.01480  0.61480  0.12910  Biso   1.000  H
  C19      1.0000 0.07760  0.56600  0.19540  Biso   1.000  C
  H10      1.0000 0.08340  0.51850  0.17790  Biso   1.000  H
  O2       1.0000 0.07330  0.86070  0.35490  Biso   1.000  O
  H11      1.0000 0.09960  0.88210  0.37860  Biso   1.000  H
  C20      1.0000 0.30300  0.87110  0.30190  Biso   1.000  C
  C21      1.0000 0.31430  0.88640  0.26020  Biso   1.000  C
  H12      1.0000 0.30400  0.93960  0.23990  Biso   1.000  H
  C22      1.0000 0.35620  0.74350  0.27780  Biso   1.000  C
  H13      1.0000 0.37300  0.70080  0.26900  Biso   1.000  H
  C23      1.0000 0.32060  0.78960  0.33160  Biso   1.000  C
  C24      1.0000 0.34730  0.72700  0.31890  Biso   1.000  C
  H14      1.0000 0.35890  0.67370  0.33890  Biso   1.000  H
  C25      1.0000 0.34090  0.82160  0.24970  Biso   1.000  C
  H15      1.0000 0.34830  0.83270  0.22240  Biso   1.000  H
  C26      1.0000 0.28820  0.83470  0.38930  Biso   1.000  C
  C27      1.0000 0.26980  0.91550  0.35870  Biso   1.000  C
  C28      1.0000 0.27530  0.93340  0.31410  Biso   1.000  C
  C29      1.0000 0.31270  0.77370  0.37540  Biso   1.000  C
  H16      1.0000 0.32450  0.72040  0.39530  Biso   1.000  H
  O3       1.0000 0.15910  0.83500  0.43410  Biso   1.000  O
  O4       1.0000 0.24530  0.97750  0.37180  Biso   1.000  O
  H17      1.0000 0.23840  0.95510  0.39350  Biso   1.000  H
  C30      1.0000 0.25490  0.02170  0.28260  Biso   1.000  C
  H18      1.0000 0.24110  0.05710  0.30050  Biso   1.000  H
  H19      1.0000 0.28230  0.05610  0.28470  Biso   1.000  H
  C31      1.0000 0.28110  0.81400  0.43610  Biso   1.000  C
  C32      1.0000 0.20530  0.05070  0.08660  Biso   1.000  C
  O5       1.0000 0.24880  0.07820  0.10170  Biso   1.000  O
  O6       1.0000 0.17380  0.04640  0.03650  Biso   1.000  O
  O7       1.0000 0.25940  0.87170  0.44910  Biso   1.000  O
  O8       1.0000 0.29690  0.73930  0.45940  Biso   1.000  O
  O9       1.0000 0.20080  0.71130  0.43880  Biso   1.000  O
  C33      1.0000 0.08310  0.94410  0.13610  Biso   1.000  C
  H20      1.0000 0.05960  0.93970  0.09940  Biso   1.000  H
  C34      1.0000 0.10850  0.58100  0.24790  Biso   1.000  C
  H21      1.0000 0.13620  0.54430  0.26670  Biso   1.000  H
  Dy2      1.0000 0.73194  0.38217  0.51246  Biso   1.000  Dy
  C35      1.0000 0.69120  0.52870  0.12780  Biso   1.000  C
  C36      1.0000 0.72660  0.53980  0.18440  Biso   1.000  C
  C37      1.0000 0.66800  0.48160  0.20770  Biso   1.000  C
  C38      1.0000 0.64560  0.49590  0.11300  Biso   1.000  C
  H22      1.0000 0.62280  0.48800  0.07630  Biso   1.000  H
  C39      1.0000 0.71610  0.51200  0.22380  Biso   1.000  C
  C40      1.0000 0.63180  0.47390  0.15130  Biso   1.000  C
  C41      1.0000 0.65220  0.45960  0.24580  Biso   1.000  C
  H23      1.0000 0.67420  0.46560  0.28280  Biso   1.000  H
  C42      1.0000 0.60500  0.42990  0.22790  Biso   1.000  C
  H24      1.0000 0.59590  0.41430  0.25330  Biso   1.000  H
  C43      1.0000 0.57030  0.42230  0.17320  Biso   1.000  C
  H25      1.0000 0.53840  0.40240  0.16230  Biso   1.000  H
  O10      1.0000 0.77090  0.57690  0.19960  Biso   1.000  O
  H26      1.0000 0.76960  0.60410  0.17380  Biso   1.000  H
  C44      1.0000 0.58250  0.29260  0.32970  Biso   1.000  C
  H27      1.0000 0.49990  0.36730  0.27740  Biso   1.000  H
  C45      1.0000 0.66470  0.26230  0.41410  Biso   1.000  C
  C46      1.0000 0.55670  0.20680  0.24810  Biso   1.000  C
  C47      1.0000 0.54740  0.27360  0.27630  Biso   1.000  C
  C48      1.0000 0.62640  0.24000  0.35710  Biso   1.000  C
  C49      1.0000 0.63390  0.17050  0.33160  Biso   1.000  C
  H28      1.0000 0.66160  0.13380  0.35050  Biso   1.000  H
  C50      1.0000 0.59980  0.15230  0.27600  Biso   1.000  C
  C51      1.0000 0.52540  0.19020  0.19190  Biso   1.000  C
  H29      1.0000 0.49740  0.22580  0.17230  Biso   1.000  H
  C52      1.0000 0.53550  0.12340  0.16610  Biso   1.000  C
  H30      1.0000 0.51480  0.11480  0.12910  Biso   1.000  H
  C53      1.0000 0.57760  0.06600  0.19540  Biso   1.000  C
  H31      1.0000 0.58340  0.01850  0.17790  Biso   1.000  H
  O11      1.0000 0.57330  0.36070  0.35490  Biso   1.000  O
  H32      1.0000 0.59960  0.38210  0.37860  Biso   1.000  H
  C54      1.0000 0.80300  0.37110  0.30190  Biso   1.000  C
  C55      1.0000 0.81430  0.38640  0.26020  Biso   1.000  C
  H33      1.0000 0.80400  0.43960  0.23990  Biso   1.000  H
  C56      1.0000 0.85620  0.24350  0.27780  Biso   1.000  C
  H34      1.0000 0.87300  0.20080  0.26900  Biso   1.000  H
  C57      1.0000 0.82060  0.28960  0.33160  Biso   1.000  C
  C58      1.0000 0.84730  0.22700  0.31890  Biso   1.000  C
  H35      1.0000 0.85890  0.17370  0.33890  Biso   1.000  H
  C59      1.0000 0.84090  0.32160  0.24970  Biso   1.000  C
  H36      1.0000 0.84830  0.33270  0.22240  Biso   1.000  H
  C60      1.0000 0.78820  0.33470  0.38930  Biso   1.000  C
  C61      1.0000 0.76980  0.41550  0.35870  Biso   1.000  C
  C62      1.0000 0.77530  0.43340  0.31410  Biso   1.000  C
  C63      1.0000 0.81270  0.27370  0.37540  Biso   1.000  C
  H37      1.0000 0.82450  0.22040  0.39530  Biso   1.000  H
  O12      1.0000 0.65910  0.33500  0.43410  Biso   1.000  O
  O13      1.0000 0.74530  0.47750  0.37180  Biso   1.000  O
  H38      1.0000 0.73840  0.45510  0.39350  Biso   1.000  H
  C64      1.0000 0.75490  0.52170  0.28260  Biso   1.000  C
  H39      1.0000 0.74110  0.55710  0.30050  Biso   1.000  H
  H40      1.0000 0.78230  0.55610  0.28470  Biso   1.000  H
  C65      1.0000 0.78110  0.31400  0.43610  Biso   1.000  C
  C66      1.0000 0.70530  0.55070  0.08660  Biso   1.000  C
  O14      1.0000 0.74880  0.57820  0.10170  Biso   1.000  O
  O15      1.0000 0.67380  0.54640  0.03650  Biso   1.000  O
  O16      1.0000 0.75940  0.37170  0.44910  Biso   1.000  O
  O17      1.0000 0.79690  0.23930  0.45940  Biso   1.000  O
  O18      1.0000 0.70080  0.21130  0.43880  Biso   1.000  O
  C67      1.0000 0.58310  0.44410  0.13610  Biso   1.000  C
  H41      1.0000 0.55960  0.43970  0.09940  Biso   1.000  H
  C68      1.0000 0.60850  0.08100  0.24790  Biso   1.000  C
  H42      1.0000 0.63620  0.04430  0.26670  Biso   1.000  H
  Dy3      1.0000 0.76806  0.88217  0.98754  Biso   1.000  Dy
  C69      1.0000 0.80880  0.02870  0.37220  Biso   1.000  C
  C70      1.0000 0.77340  0.03980  0.31560  Biso   1.000  C
  C71      1.0000 0.83200  0.98160  0.29230  Biso   1.000  C
  C72      1.0000 0.85440  0.99590  0.38700  Biso   1.000  C
  H43      1.0000 0.87720  0.98800  0.42370  Biso   1.000  H
  C73      1.0000 0.78390  0.01200  0.27620  Biso   1.000  C
  C74      1.0000 0.86820  0.97390  0.34870  Biso   1.000  C
  C75      1.0000 0.84780  0.95960  0.25420  Biso   1.000  C
  H44      1.0000 0.82580  0.96560  0.21720  Biso   1.000  H
  C76      1.0000 0.89500  0.92990  0.27210  Biso   1.000  C
  H45      1.0000 0.90410  0.91430  0.24670  Biso   1.000  H
  C77      1.0000 0.92970  0.92230  0.32680  Biso   1.000  C
  H46      1.0000 0.96160  0.90240  0.33770  Biso   1.000  H
  O19      1.0000 0.72910  0.07690  0.30040  Biso   1.000  O
  H47      1.0000 0.73040  0.10410  0.32620  Biso   1.000  H
  C78      1.0000 0.91750  0.79260  0.17030  Biso   1.000  C
  H48      1.0000 0.00010  0.86730  0.22260  Biso   1.000  H
  C79      1.0000 0.83530  0.76230  0.08590  Biso   1.000  C
  C80      1.0000 0.94330  0.70680  0.25190  Biso   1.000  C
  C81      1.0000 0.95260  0.77360  0.22370  Biso   1.000  C
  C82      1.0000 0.87360  0.74000  0.14290  Biso   1.000  C
  C83      1.0000 0.86610  0.67050  0.16840  Biso   1.000  C
  H49      1.0000 0.83840  0.63380  0.14950  Biso   1.000  H
  C84      1.0000 0.90020  0.65230  0.22400  Biso   1.000  C
  C85      1.0000 0.97460  0.69020  0.30810  Biso   1.000  C
  H50      1.0000 0.00260  0.72580  0.32770  Biso   1.000  H
  C86      1.0000 0.96450  0.62340  0.33390  Biso   1.000  C
  H51      1.0000 0.98520  0.61480  0.37090  Biso   1.000  H
  C87      1.0000 0.92240  0.56600  0.30460  Biso   1.000  C
  H52      1.0000 0.91660  0.51850  0.32210  Biso   1.000  H
  O20      1.0000 0.92670  0.86070  0.14510  Biso   1.000  O
  H53      1.0000 0.90040  0.88210  0.12140  Biso   1.000  H
  C88      1.0000 0.69700  0.87110  0.19810  Biso   1.000  C
  C89      1.0000 0.68570  0.88640  0.23980  Biso   1.000  C
  H54      1.0000 0.69600  0.93960  0.26010  Biso   1.000  H
  C90      1.0000 0.64380  0.74350  0.22220  Biso   1.000  C
  H55      1.0000 0.62700  0.70080  0.23100  Biso   1.000  H
  C91      1.0000 0.67940  0.78960  0.16840  Biso   1.000  C
  C92      1.0000 0.65270  0.72700  0.18110  Biso   1.000  C
  H56      1.0000 0.64110  0.67370  0.16110  Biso   1.000  H
  C93      1.0000 0.65910  0.82160  0.25030  Biso   1.000  C
  H57      1.0000 0.65170  0.83270  0.27760  Biso   1.000  H
  C94      1.0000 0.71180  0.83470  0.11070  Biso   1.000  C
  C95      1.0000 0.73020  0.91550  0.14130  Biso   1.000  C
  C96      1.0000 0.72470  0.93340  0.18590  Biso   1.000  C
  C97      1.0000 0.68730  0.77370  0.12460  Biso   1.000  C
  H58      1.0000 0.67550  0.72040  0.10470  Biso   1.000  H
  O21      1.0000 0.84090  0.83500  0.06590  Biso   1.000  O
  O22      1.0000 0.75470  0.97750  0.12820  Biso   1.000  O
  H59      1.0000 0.76160  0.95510  0.10650  Biso   1.000  H
  C98      1.0000 0.74510  0.02170  0.21740  Biso   1.000  C
  H60      1.0000 0.75890  0.05710  0.19950  Biso   1.000  H
  H61      1.0000 0.71770  0.05610  0.21530  Biso   1.000  H
  C99      1.0000 0.71890  0.81400  0.06390  Biso   1.000  C
  C100     1.0000 0.79470  0.05070  0.41340  Biso   1.000  C
  O23      1.0000 0.75120  0.07820  0.39830  Biso   1.000  O
  O24      1.0000 0.82620  0.04640  0.46350  Biso   1.000  O
  O25      1.0000 0.74060  0.87170  0.05090  Biso   1.000  O
  O26      1.0000 0.70310  0.73930  0.04060  Biso   1.000  O
  O27      1.0000 0.79920  0.71130  0.06120  Biso   1.000  O
  C101     1.0000 0.91690  0.94410  0.36390  Biso   1.000  C
  H62      1.0000 0.94040  0.93970  0.40060  Biso   1.000  H
  C102     1.0000 0.89150  0.58100  0.25210  Biso   1.000  C
  H63      1.0000 0.86380  0.54430  0.23330  Biso   1.000  H
  Dy4      1.0000 0.26806  0.38217  0.98754  Biso   1.000  Dy
  C103     1.0000 0.30880  0.52870  0.37220  Biso   1.000  C
  C104     1.0000 0.27340  0.53980  0.31560  Biso   1.000  C
  C105     1.0000 0.33200  0.48160  0.29230  Biso   1.000  C
  C106     1.0000 0.35440  0.49590  0.38700  Biso   1.000  C
  H64      1.0000 0.37720  0.48800  0.42370  Biso   1.000  H
  C107     1.0000 0.28390  0.51200  0.27620  Biso   1.000  C
  C108     1.0000 0.36820  0.47390  0.34870  Biso   1.000  C
  C109     1.0000 0.34780  0.45960  0.25420  Biso   1.000  C
  H65      1.0000 0.32580  0.46560  0.21720  Biso   1.000  H
  C110     1.0000 0.39500  0.42990  0.27210  Biso   1.000  C
  H66      1.0000 0.40410  0.41430  0.24670  Biso   1.000  H
  C111     1.0000 0.42970  0.42230  0.32680  Biso   1.000  C
  H67      1.0000 0.46160  0.40240  0.33770  Biso   1.000  H
  O28      1.0000 0.22910  0.57690  0.30040  Biso   1.000  O
  H68      1.0000 0.23040  0.60410  0.32620  Biso   1.000  H
  C112     1.0000 0.41750  0.29260  0.17030  Biso   1.000  C
  H69      1.0000 0.50010  0.36730  0.22260  Biso   1.000  H
  C113     1.0000 0.33530  0.26230  0.08590  Biso   1.000  C
  C114     1.0000 0.44330  0.20680  0.25190  Biso   1.000  C
  C115     1.0000 0.45260  0.27360  0.22370  Biso   1.000  C
  C116     1.0000 0.37360  0.24000  0.14290  Biso   1.000  C
  C117     1.0000 0.36610  0.17050  0.16840  Biso   1.000  C
  H70      1.0000 0.33840  0.13380  0.14950  Biso   1.000  H
  C118     1.0000 0.40020  0.15230  0.22400  Biso   1.000  C
  C119     1.0000 0.47460  0.19020  0.30810  Biso   1.000  C
  H71      1.0000 0.50260  0.22580  0.32770  Biso   1.000  H
  C120     1.0000 0.46450  0.12340  0.33390  Biso   1.000  C
  H72      1.0000 0.48520  0.11480  0.37090  Biso   1.000  H
  C121     1.0000 0.42240  0.06600  0.30460  Biso   1.000  C
  H73      1.0000 0.41660  0.01850  0.32210  Biso   1.000  H
  O29      1.0000 0.42670  0.36070  0.14510  Biso   1.000  O
  H74      1.0000 0.40040  0.38210  0.12140  Biso   1.000  H
  C122     1.0000 0.19700  0.37110  0.19810  Biso   1.000  C
  C123     1.0000 0.18570  0.38640  0.23980  Biso   1.000  C
  H75      1.0000 0.19600  0.43960  0.26010  Biso   1.000  H
  C124     1.0000 0.14380  0.24350  0.22220  Biso   1.000  C
  H76      1.0000 0.12700  0.20080  0.23100  Biso   1.000  H
  C125     1.0000 0.17940  0.28960  0.16840  Biso   1.000  C
  C126     1.0000 0.15270  0.22700  0.18110  Biso   1.000  C
  H77      1.0000 0.14110  0.17370  0.16110  Biso   1.000  H
  C127     1.0000 0.15910  0.32160  0.25030  Biso   1.000  C
  H78      1.0000 0.15170  0.33270  0.27760  Biso   1.000  H
  C128     1.0000 0.21180  0.33470  0.11070  Biso   1.000  C
  C129     1.0000 0.23020  0.41550  0.14130  Biso   1.000  C
  C130     1.0000 0.22470  0.43340  0.18590  Biso   1.000  C
  C131     1.0000 0.18730  0.27370  0.12460  Biso   1.000  C
  H79      1.0000 0.17550  0.22040  0.10470  Biso   1.000  H
  O30      1.0000 0.34090  0.33500  0.06590  Biso   1.000  O
  O31      1.0000 0.25470  0.47750  0.12820  Biso   1.000  O
  H80      1.0000 0.26160  0.45510  0.10650  Biso   1.000  H
  C132     1.0000 0.24510  0.52170  0.21740  Biso   1.000  C
  H81      1.0000 0.25890  0.55710  0.19950  Biso   1.000  H
  H82      1.0000 0.21770  0.55610  0.21530  Biso   1.000  H
  C133     1.0000 0.21890  0.31400  0.06390  Biso   1.000  C
  C134     1.0000 0.29470  0.55070  0.41340  Biso   1.000  C
  O32      1.0000 0.25120  0.57820  0.39830  Biso   1.000  O
  O33      1.0000 0.32620  0.54640  0.46350  Biso   1.000  O
  O34      1.0000 0.24060  0.37170  0.05090  Biso   1.000  O
  O35      1.0000 0.20310  0.23930  0.04060  Biso   1.000  O
  O36      1.0000 0.29920  0.21130  0.06120  Biso   1.000  O
  C135     1.0000 0.41690  0.44410  0.36390  Biso   1.000  C
  H83      1.0000 0.44040  0.43970  0.40060  Biso   1.000  H
  C136     1.0000 0.39150  0.08100  0.25210  Biso   1.000  C
  H84      1.0000 0.36380  0.04430  0.23330  Biso   1.000  H
  Dy5      1.0000 0.76806  0.11783  0.48754  Biso   1.000  Dy
  C137     1.0000 0.80880  0.97130  0.87220  Biso   1.000  C
  C138     1.0000 0.77340  0.96020  0.81560  Biso   1.000  C
  C139     1.0000 0.83200  0.01840  0.79230  Biso   1.000  C
  C140     1.0000 0.85440  0.00410  0.88700  Biso   1.000  C
  H85      1.0000 0.87720  0.01200  0.92370  Biso   1.000  H
  C141     1.0000 0.78390  0.98800  0.77620  Biso   1.000  C
  C142     1.0000 0.86820  0.02610  0.84870  Biso   1.000  C
  C143     1.0000 0.84780  0.04040  0.75420  Biso   1.000  C
  H86      1.0000 0.82580  0.03440  0.71720  Biso   1.000  H
  C144     1.0000 0.89500  0.07010  0.77210  Biso   1.000  C
  H87      1.0000 0.90410  0.08570  0.74670  Biso   1.000  H
  C145     1.0000 0.92970  0.07770  0.82680  Biso   1.000  C
  H88      1.0000 0.96160  0.09760  0.83770  Biso   1.000  H
  O37      1.0000 0.72910  0.92310  0.80040  Biso   1.000  O
  H89      1.0000 0.73040  0.89590  0.82620  Biso   1.000  H
  C146     1.0000 0.91750  0.20740  0.67030  Biso   1.000  C
  H90      1.0000 0.00010  0.13270  0.72260  Biso   1.000  H
  C147     1.0000 0.83530  0.23770  0.58590  Biso   1.000  C
  C148     1.0000 0.94330  0.29320  0.75190  Biso   1.000  C
  C149     1.0000 0.95260  0.22640  0.72370  Biso   1.000  C
  C150     1.0000 0.87360  0.26000  0.64290  Biso   1.000  C
  C151     1.0000 0.86610  0.32950  0.66840  Biso   1.000  C
  H91      1.0000 0.83840  0.36620  0.64950  Biso   1.000  H
  C152     1.0000 0.90020  0.34770  0.72400  Biso   1.000  C
  C153     1.0000 0.97460  0.30980  0.80810  Biso   1.000  C
  H92      1.0000 0.00260  0.27420  0.82770  Biso   1.000  H
  C154     1.0000 0.96450  0.37660  0.83390  Biso   1.000  C
  H93      1.0000 0.98520  0.38520  0.87090  Biso   1.000  H
  C155     1.0000 0.92240  0.43400  0.80460  Biso   1.000  C
  H94      1.0000 0.91660  0.48150  0.82210  Biso   1.000  H
  O38      1.0000 0.92670  0.13930  0.64510  Biso   1.000  O
  H95      1.0000 0.90040  0.11790  0.62140  Biso   1.000  H
  C156     1.0000 0.69700  0.12890  0.69810  Biso   1.000  C
  C157     1.0000 0.68570  0.11360  0.73980  Biso   1.000  C
  H96      1.0000 0.69600  0.06040  0.76010  Biso   1.000  H
  C158     1.0000 0.64380  0.25650  0.72220  Biso   1.000  C
  H97      1.0000 0.62700  0.29920  0.73100  Biso   1.000  H
  C159     1.0000 0.67940  0.21040  0.66840  Biso   1.000  C
  C160     1.0000 0.65270  0.27300  0.68110  Biso   1.000  C
  H98      1.0000 0.64110  0.32630  0.66110  Biso   1.000  H
  C161     1.0000 0.65910  0.17840  0.75030  Biso   1.000  C
  H99      1.0000 0.65170  0.16730  0.77760  Biso   1.000  H
  C162     1.0000 0.71180  0.16530  0.61070  Biso   1.000  C
  C163     1.0000 0.73020  0.08450  0.64130  Biso   1.000  C
  C164     1.0000 0.72470  0.06660  0.68590  Biso   1.000  C
  C165     1.0000 0.68730  0.22630  0.62460  Biso   1.000  C
  H100     1.0000 0.67550  0.27960  0.60470  Biso   1.000  H
  O39      1.0000 0.84090  0.16500  0.56590  Biso   1.000  O
  O40      1.0000 0.75470  0.02250  0.62820  Biso   1.000  O
  H101     1.0000 0.76160  0.04490  0.60650  Biso   1.000  H
  C166     1.0000 0.74510  0.97830  0.71740  Biso   1.000  C
  H102     1.0000 0.75890  0.94290  0.69950  Biso   1.000  H
  H103     1.0000 0.71770  0.94390  0.71530  Biso   1.000  H
  C167     1.0000 0.71890  0.18600  0.56390  Biso   1.000  C
  C168     1.0000 0.79470  0.94930  0.91340  Biso   1.000  C
  O41      1.0000 0.75120  0.92180  0.89830  Biso   1.000  O
  O42      1.0000 0.82620  0.95360  0.96350  Biso   1.000  O
  O43      1.0000 0.74060  0.12830  0.55090  Biso   1.000  O
  O44      1.0000 0.70310  0.26070  0.54060  Biso   1.000  O
  O45      1.0000 0.79920  0.28870  0.56120  Biso   1.000  O
  C169     1.0000 0.91690  0.05590  0.86390  Biso   1.000  C
  H104     1.0000 0.94040  0.06030  0.90060  Biso   1.000  H
  C170     1.0000 0.89150  0.41900  0.75210  Biso   1.000  C
  H105     1.0000 0.86380  0.45570  0.73330  Biso   1.000  H
  Dy6      1.0000 0.26806  0.61783  0.48754  Biso   1.000  Dy
  C171     1.0000 0.30880  0.47130  0.87220  Biso   1.000  C
  C172     1.0000 0.27340  0.46020  0.81560  Biso   1.000  C
  C173     1.0000 0.33200  0.51840  0.79230  Biso   1.000  C
  C174     1.0000 0.35440  0.50410  0.88700  Biso   1.000  C
  H106     1.0000 0.37720  0.51200  0.92370  Biso   1.000  H
  C175     1.0000 0.28390  0.48800  0.77620  Biso   1.000  C
  C176     1.0000 0.36820  0.52610  0.84870  Biso   1.000  C
  C177     1.0000 0.34780  0.54040  0.75420  Biso   1.000  C
  H107     1.0000 0.32580  0.53440  0.71720  Biso   1.000  H
  C178     1.0000 0.39500  0.57010  0.77210  Biso   1.000  C
  H108     1.0000 0.40410  0.58570  0.74670  Biso   1.000  H
  C179     1.0000 0.42970  0.57770  0.82680  Biso   1.000  C
  H109     1.0000 0.46160  0.59760  0.83770  Biso   1.000  H
  O46      1.0000 0.22910  0.42310  0.80040  Biso   1.000  O
  H110     1.0000 0.23040  0.39590  0.82620  Biso   1.000  H
  C180     1.0000 0.41750  0.70740  0.67030  Biso   1.000  C
  H111     1.0000 0.50010  0.63270  0.72260  Biso   1.000  H
  C181     1.0000 0.33530  0.73770  0.58590  Biso   1.000  C
  C182     1.0000 0.44330  0.79320  0.75190  Biso   1.000  C
  C183     1.0000 0.45260  0.72640  0.72370  Biso   1.000  C
  C184     1.0000 0.37360  0.76000  0.64290  Biso   1.000  C
  C185     1.0000 0.36610  0.82950  0.66840  Biso   1.000  C
  H112     1.0000 0.33840  0.86620  0.64950  Biso   1.000  H
  C186     1.0000 0.40020  0.84770  0.72400  Biso   1.000  C
  C187     1.0000 0.47460  0.80980  0.80810  Biso   1.000  C
  H113     1.0000 0.50260  0.77420  0.82770  Biso   1.000  H
  C188     1.0000 0.46450  0.87660  0.83390  Biso   1.000  C
  H114     1.0000 0.48520  0.88520  0.87090  Biso   1.000  H
  C189     1.0000 0.42240  0.93400  0.80460  Biso   1.000  C
  H115     1.0000 0.41660  0.98150  0.82210  Biso   1.000  H
  O47      1.0000 0.42670  0.63930  0.64510  Biso   1.000  O
  H116     1.0000 0.40040  0.61790  0.62140  Biso   1.000  H
  C190     1.0000 0.19700  0.62890  0.69810  Biso   1.000  C
  C191     1.0000 0.18570  0.61360  0.73980  Biso   1.000  C
  H117     1.0000 0.19600  0.56040  0.76010  Biso   1.000  H
  C192     1.0000 0.14380  0.75650  0.72220  Biso   1.000  C
  H118     1.0000 0.12700  0.79920  0.73100  Biso   1.000  H
  C193     1.0000 0.17940  0.71040  0.66840  Biso   1.000  C
  C194     1.0000 0.15270  0.77300  0.68110  Biso   1.000  C
  H119     1.0000 0.14110  0.82630  0.66110  Biso   1.000  H
  C195     1.0000 0.15910  0.67840  0.75030  Biso   1.000  C
  H120     1.0000 0.15170  0.66730  0.77760  Biso   1.000  H
  C196     1.0000 0.21180  0.66530  0.61070  Biso   1.000  C
  C197     1.0000 0.23020  0.58450  0.64130  Biso   1.000  C
  C198     1.0000 0.22470  0.56660  0.68590  Biso   1.000  C
  C199     1.0000 0.18730  0.72630  0.62460  Biso   1.000  C
  H121     1.0000 0.17550  0.77960  0.60470  Biso   1.000  H
  O48      1.0000 0.34090  0.66500  0.56590  Biso   1.000  O
  O49      1.0000 0.25470  0.52250  0.62820  Biso   1.000  O
  H122     1.0000 0.26160  0.54490  0.60650  Biso   1.000  H
  C200     1.0000 0.24510  0.47830  0.71740  Biso   1.000  C
  H123     1.0000 0.25890  0.44290  0.69950  Biso   1.000  H
  H124     1.0000 0.21770  0.44390  0.71530  Biso   1.000  H
  C201     1.0000 0.21890  0.68600  0.56390  Biso   1.000  C
  C202     1.0000 0.29470  0.44930  0.91340  Biso   1.000  C
  O50      1.0000 0.25120  0.42180  0.89830  Biso   1.000  O
  O51      1.0000 0.32620  0.45360  0.96350  Biso   1.000  O
  O52      1.0000 0.24060  0.62830  0.55090  Biso   1.000  O
  O53      1.0000 0.20310  0.76070  0.54060  Biso   1.000  O
  O54      1.0000 0.29920  0.78870  0.56120  Biso   1.000  O
  C203     1.0000 0.41690  0.55590  0.86390  Biso   1.000  C
  H125     1.0000 0.44040  0.56030  0.90060  Biso   1.000  H
  C204     1.0000 0.39150  0.91900  0.75210  Biso   1.000  C
  H126     1.0000 0.36380  0.95570  0.73330  Biso   1.000  H
  Dy7      1.0000 0.23194  0.11783  0.01246  Biso   1.000  Dy
  C205     1.0000 0.19120  0.97130  0.62780  Biso   1.000  C
  C206     1.0000 0.22660  0.96020  0.68440  Biso   1.000  C
  C207     1.0000 0.16800  0.01840  0.70770  Biso   1.000  C
  C208     1.0000 0.14560  0.00410  0.61300  Biso   1.000  C
  H127     1.0000 0.12280  0.01200  0.57630  Biso   1.000  H
  C209     1.0000 0.21610  0.98800  0.72380  Biso   1.000  C
  C210     1.0000 0.13180  0.02610  0.65130  Biso   1.000  C
  C211     1.0000 0.15220  0.04040  0.74580  Biso   1.000  C
  H128     1.0000 0.17420  0.03440  0.78280  Biso   1.000  H
  C212     1.0000 0.10500  0.07010  0.72790  Biso   1.000  C
  H129     1.0000 0.09590  0.08570  0.75330  Biso   1.000  H
  C213     1.0000 0.07030  0.07770  0.67320  Biso   1.000  C
  H130     1.0000 0.03840  0.09760  0.66230  Biso   1.000  H
  O55      1.0000 0.27090  0.92310  0.69960  Biso   1.000  O
  H131     1.0000 0.26960  0.89590  0.67380  Biso   1.000  H
  C214     1.0000 0.08250  0.20740  0.82970  Biso   1.000  C
  H132     1.0000 0.99990  0.13270  0.77740  Biso   1.000  H
  C215     1.0000 0.16470  0.23770  0.91410  Biso   1.000  C
  C216     1.0000 0.05670  0.29320  0.74810  Biso   1.000  C
  C217     1.0000 0.04740  0.22640  0.77630  Biso   1.000  C
  C218     1.0000 0.12640  0.26000  0.85710  Biso   1.000  C
  C219     1.0000 0.13390  0.32950  0.83160  Biso   1.000  C
  H133     1.0000 0.16160  0.36620  0.85050  Biso   1.000  H
  C220     1.0000 0.09980  0.34770  0.77600  Biso   1.000  C
  C221     1.0000 0.02540  0.30980  0.69190  Biso   1.000  C
  H134     1.0000 0.99740  0.27420  0.67230  Biso   1.000  H
  C222     1.0000 0.03550  0.37660  0.66610  Biso   1.000  C
  H135     1.0000 0.01480  0.38520  0.62910  Biso   1.000  H
  C223     1.0000 0.07760  0.43400  0.69540  Biso   1.000  C
  H136     1.0000 0.08340  0.48150  0.67790  Biso   1.000  H
  O56      1.0000 0.07330  0.13930  0.85490  Biso   1.000  O
  H137     1.0000 0.09960  0.11790  0.87860  Biso   1.000  H
  C224     1.0000 0.30300  0.12890  0.80190  Biso   1.000  C
  C225     1.0000 0.31430  0.11360  0.76020  Biso   1.000  C
  H138     1.0000 0.30400  0.06040  0.73990  Biso   1.000  H
  C226     1.0000 0.35620  0.25650  0.77780  Biso   1.000  C
  H139     1.0000 0.37300  0.29920  0.76900  Biso   1.000  H
  C227     1.0000 0.32060  0.21040  0.83160  Biso   1.000  C
  C228     1.0000 0.34730  0.27300  0.81890  Biso   1.000  C
  H140     1.0000 0.35890  0.32630  0.83890  Biso   1.000  H
  C229     1.0000 0.34090  0.17840  0.74970  Biso   1.000  C
  H141     1.0000 0.34830  0.16730  0.72240  Biso   1.000  H
  C230     1.0000 0.28820  0.16530  0.88930  Biso   1.000  C
  C231     1.0000 0.26980  0.08450  0.85870  Biso   1.000  C
  C232     1.0000 0.27530  0.06660  0.81410  Biso   1.000  C
  C233     1.0000 0.31270  0.22630  0.87540  Biso   1.000  C
  H142     1.0000 0.32450  0.27960  0.89530  Biso   1.000  H
  O57      1.0000 0.15910  0.16500  0.93410  Biso   1.000  O
  O58      1.0000 0.24530  0.02250  0.87180  Biso   1.000  O
  H143     1.0000 0.23840  0.04490  0.89350  Biso   1.000  H
  C234     1.0000 0.25490  0.97830  0.78260  Biso   1.000  C
  H144     1.0000 0.24110  0.94290  0.80050  Biso   1.000  H
  H145     1.0000 0.28230  0.94390  0.78470  Biso   1.000  H
  C235     1.0000 0.28110  0.18600  0.93610  Biso   1.000  C
  C236     1.0000 0.20530  0.94930  0.58660  Biso   1.000  C
  O59      1.0000 0.24880  0.92180  0.60170  Biso   1.000  O
  O60      1.0000 0.17380  0.95360  0.53650  Biso   1.000  O
  O61      1.0000 0.25940  0.12830  0.94910  Biso   1.000  O
  O62      1.0000 0.29690  0.26070  0.95940  Biso   1.000  O
  O63      1.0000 0.20080  0.28870  0.93880  Biso   1.000  O
  C237     1.0000 0.08310  0.05590  0.63610  Biso   1.000  C
  H146     1.0000 0.05960  0.06030  0.59940  Biso   1.000  H
  C238     1.0000 0.10850  0.41900  0.74790  Biso   1.000  C
  H147     1.0000 0.13620  0.45570  0.76670  Biso   1.000  H
  Dy8      1.0000 0.73194  0.61783  0.01246  Biso   1.000  Dy
  C239     1.0000 0.69120  0.47130  0.62780  Biso   1.000  C
  C240     1.0000 0.72660  0.46020  0.68440  Biso   1.000  C
  C241     1.0000 0.66800  0.51840  0.70770  Biso   1.000  C
  C242     1.0000 0.64560  0.50410  0.61300  Biso   1.000  C
  H148     1.0000 0.62280  0.51200  0.57630  Biso   1.000  H
  C243     1.0000 0.71610  0.48800  0.72380  Biso   1.000  C
  C244     1.0000 0.63180  0.52610  0.65130  Biso   1.000  C
  C245     1.0000 0.65220  0.54040  0.74580  Biso   1.000  C
  H149     1.0000 0.67420  0.53440  0.78280  Biso   1.000  H
  C246     1.0000 0.60500  0.57010  0.72790  Biso   1.000  C
  H150     1.0000 0.59590  0.58570  0.75330  Biso   1.000  H
  C247     1.0000 0.57030  0.57770  0.67320  Biso   1.000  C
  H151     1.0000 0.53840  0.59760  0.66230  Biso   1.000  H
  O64      1.0000 0.77090  0.42310  0.69960  Biso   1.000  O
  H152     1.0000 0.76960  0.39590  0.67380  Biso   1.000  H
  C248     1.0000 0.58250  0.70740  0.82970  Biso   1.000  C
  H153     1.0000 0.49990  0.63270  0.77740  Biso   1.000  H
  C249     1.0000 0.66470  0.73770  0.91410  Biso   1.000  C
  C250     1.0000 0.55670  0.79320  0.74810  Biso   1.000  C
  C251     1.0000 0.54740  0.72640  0.77630  Biso   1.000  C
  C252     1.0000 0.62640  0.76000  0.85710  Biso   1.000  C
  C253     1.0000 0.63390  0.82950  0.83160  Biso   1.000  C
  H154     1.0000 0.66160  0.86620  0.85050  Biso   1.000  H
  C254     1.0000 0.59980  0.84770  0.77600  Biso   1.000  C
  C255     1.0000 0.52540  0.80980  0.69190  Biso   1.000  C
  H155     1.0000 0.49740  0.77420  0.67230  Biso   1.000  H
  C256     1.0000 0.53550  0.87660  0.66610  Biso   1.000  C
  H156     1.0000 0.51480  0.88520  0.62910  Biso   1.000  H
  C257     1.0000 0.57760  0.93400  0.69540  Biso   1.000  C
  H157     1.0000 0.58340  0.98150  0.67790  Biso   1.000  H
  O65      1.0000 0.57330  0.63930  0.85490  Biso   1.000  O
  H158     1.0000 0.59960  0.61790  0.87860  Biso   1.000  H
  C258     1.0000 0.80300  0.62890  0.80190  Biso   1.000  C
  C259     1.0000 0.81430  0.61360  0.76020  Biso   1.000  C
  H159     1.0000 0.80400  0.56040  0.73990  Biso   1.000  H
  C260     1.0000 0.85620  0.75650  0.77780  Biso   1.000  C
  H160     1.0000 0.87300  0.79920  0.76900  Biso   1.000  H
  C261     1.0000 0.82060  0.71040  0.83160  Biso   1.000  C
  C262     1.0000 0.84730  0.77300  0.81890  Biso   1.000  C
  H161     1.0000 0.85890  0.82630  0.83890  Biso   1.000  H
  C263     1.0000 0.84090  0.67840  0.74970  Biso   1.000  C
  H162     1.0000 0.84830  0.66730  0.72240  Biso   1.000  H
  C264     1.0000 0.78820  0.66530  0.88930  Biso   1.000  C
  C265     1.0000 0.76980  0.58450  0.85870  Biso   1.000  C
  C266     1.0000 0.77530  0.56660  0.81410  Biso   1.000  C
  C267     1.0000 0.81270  0.72630  0.87540  Biso   1.000  C
  H163     1.0000 0.82450  0.77960  0.89530  Biso   1.000  H
  O66      1.0000 0.65910  0.66500  0.93410  Biso   1.000  O
  O67      1.0000 0.74530  0.52250  0.87180  Biso   1.000  O
  H164     1.0000 0.73840  0.54490  0.89350  Biso   1.000  H
  C268     1.0000 0.75490  0.47830  0.78260  Biso   1.000  C
  H165     1.0000 0.74110  0.44290  0.80050  Biso   1.000  H
  H166     1.0000 0.78230  0.44390  0.78470  Biso   1.000  H
  C269     1.0000 0.78110  0.68600  0.93610  Biso   1.000  C
  C270     1.0000 0.70530  0.44930  0.58660  Biso   1.000  C
  O68      1.0000 0.74880  0.42180  0.60170  Biso   1.000  O
  O69      1.0000 0.67380  0.45360  0.53650  Biso   1.000  O
  O70      1.0000 0.75940  0.62830  0.94910  Biso   1.000  O
  O71      1.0000 0.79690  0.76070  0.95940  Biso   1.000  O
  O72      1.0000 0.70080  0.78870  0.93880  Biso   1.000  O
  C271     1.0000 0.58310  0.55590  0.63610  Biso   1.000  C
  H167     1.0000 0.55960  0.56030  0.59940  Biso   1.000  H
  C272     1.0000 0.60850  0.91900  0.74790  Biso   1.000  C
  H168     1.0000 0.63620  0.95570  0.76670  Biso   1.000  H
  C273     1.0000 0.00000  0.82830  0.25000  Biso   1.000  C
  C274     1.0000 0.50000  0.32830  0.25000  Biso   1.000  C
  C275     1.0000 0.00000  0.17170  0.75000  Biso   1.000  C
  C276     1.0000 0.50000  0.67170  0.75000  Biso   1.000  C
