data_image0
_cell_length_a       9.5256
_cell_length_b       12.1272
_cell_length_c       15.8886
_cell_angle_alpha    88.508
_cell_angle_beta     74.677
_cell_angle_gamma    70.379

_symmetry_space_group_name_H-M    "P 1"
_symmetry_int_tables_number       1

loop_
  _symmetry_equiv_pos_as_xyz
  'x, y, z'

loop_
  _atom_site_label
  _atom_site_occupancy
  _atom_site_fract_x
  _atom_site_fract_y
  _atom_site_fract_z
  _atom_site_thermal_displace_type
  _atom_site_B_iso_or_equiv
  _atom_site_type_symbol
  Nd1      1.0000 0.29541  0.97580  0.01839  Biso   1.000  Nd
  O1       1.0000 0.13110  0.88290  0.11647  Biso   1.000  O
  O2       1.0000 0.01270  0.75880  0.09793  Biso   1.000  O
  H1       1.0000 0.98740  0.80480  0.05980  Biso   1.000  H
  O3       1.0000 0.23680  0.06540  0.16480  Biso   1.000  O
  O4       1.0000 0.44710  0.09530  0.08481  Biso   1.000  O
  O5       1.0000 0.53570  0.16660  0.91133  Biso   1.000  O
  O6       1.0000 0.31810  0.12710  0.92602  Biso   1.000  O
  O7       1.0000 0.20800  0.89220  0.91378  Biso   1.000  O
  O8       1.0000 0.96900  0.88180  0.96142  Biso   1.000  O
  C1       1.0000 0.22420  0.55090  0.44030  Biso   1.000  C
  C2       1.0000 0.27310  0.42750  0.44130  Biso   1.000  C
  C3       1.0000 0.30250  0.37650  0.51690  Biso   1.000  C
  H2       1.0000 0.33690  0.29340  0.51670  Biso   1.000  H
  C4       1.0000 0.28430  0.44090  0.59350  Biso   1.000  C
  C5       1.0000 0.23280  0.56410  0.59300  Biso   1.000  C
  C6       1.0000 0.20700  0.61520  0.51630  Biso   1.000  C
  H3       1.0000 0.17610  0.69830  0.51570  Biso   1.000  H
  C7       1.0000 0.18640  0.61500  0.36340  Biso   1.000  C
  C8       1.0000 0.21950  0.71850  0.34330  Biso   1.000  C
  H4       1.0000 0.26460  0.74840  0.38000  Biso   1.000  H
  C9       1.0000 0.18800  0.77800  0.27130  Biso   1.000  C
  H5       1.0000 0.21200  0.84760  0.25880  Biso   1.000  H
  C10      1.0000 0.12050  0.73560  0.21690  Biso   1.000  C
  C11      1.0000 0.08560  0.63350  0.23660  Biso   1.000  C
  H6       1.0000 0.04110  0.60360  0.19960  Biso   1.000  H
  C12      1.0000 0.11530  0.57550  0.30930  Biso   1.000  C
  H7       1.0000 0.08710  0.50770  0.32300  Biso   1.000  H
  C13      1.0000 0.09000  0.79850  0.13940  Biso   1.000  C
  C14      1.0000 0.29440  0.34580  0.36680  Biso   1.000  C
  C15      1.0000 0.40440  0.33680  0.28720  Biso   1.000  C
  H8       1.0000 0.46590  0.38580  0.27870  Biso   1.000  H
  C16      1.0000 0.42510  0.25660  0.21990  Biso   1.000  C
  H9       1.0000 0.50450  0.24810  0.16710  Biso   1.000  H
  C17      1.0000 0.32950  0.18890  0.22990  Biso   1.000  C
  C18      1.0000 0.21940  0.19850  0.30870  Biso   1.000  C
  H10      1.0000 0.15350  0.15310  0.31580  Biso   1.000  H
  C19      1.0000 0.20400  0.27350  0.37730  Biso   1.000  C
  H11      1.0000 0.13160  0.27600  0.43200  Biso   1.000  H
  C20      1.0000 0.33880  0.11140  0.15580  Biso   1.000  C
  C21      1.0000 0.32080  0.37450  0.66950  Biso   1.000  C
  C22      1.0000 0.27650  0.27560  0.68940  Biso   1.000  C
  H12      1.0000 0.22570  0.25110  0.65330  Biso   1.000  H
  C23      1.0000 0.30560  0.21330  0.76050  Biso   1.000  C
  H13      1.0000 0.27200  0.14780  0.77370  Biso   1.000  H
  C24      1.0000 0.38390  0.24550  0.81320  Biso   1.000  C
  C25      1.0000 0.43320  0.34140  0.79200  Biso   1.000  C
  H14      1.0000 0.49010  0.36270  0.82570  Biso   1.000  H
  C26      1.0000 0.39970  0.40530  0.72220  Biso   1.000  C
  H15      1.0000 0.43110  0.47190  0.70990  Biso   1.000  H
  C27      1.0000 0.41520  0.17540  0.88960  Biso   1.000  C
  C28      1.0000 0.19420  0.64330  0.67240  Biso   1.000  C
  C29      1.0000 0.09620  0.63030  0.75110  Biso   1.000  C
  H16      1.0000 0.05370  0.56930  0.75450  Biso   1.000  H
  C30      1.0000 0.05890  0.70450  0.82490  Biso   1.000  C
  H17      1.0000 0.98820  0.69620  0.87740  Biso   1.000  H
  C31      1.0000 0.12570  0.79070  0.82160  Biso   1.000  C
  C32      1.0000 0.22180  0.80630  0.74330  Biso   1.000  C
  H18      1.0000 0.26610  0.86620  0.74060  Biso   1.000  H
  C33      1.0000 0.25410  0.73450  0.66840  Biso   1.000  C
  H19      1.0000 0.31680  0.74770  0.61450  Biso   1.000  H
  C34      1.0000 0.09870  0.86170  0.90380  Biso   1.000  C
  Nd2      1.0000 0.70459  0.02420  0.98161  Biso   1.000  Nd
  O9       1.0000 0.86890  0.11710  0.88353  Biso   1.000  O
  O10      1.0000 0.98730  0.24120  0.90207  Biso   1.000  O
  H20      1.0000 0.01260  0.19520  0.94020  Biso   1.000  H
  O11      1.0000 0.76320  0.93460  0.83520  Biso   1.000  O
  O12      1.0000 0.55290  0.90470  0.91519  Biso   1.000  O
  O13      1.0000 0.46430  0.83340  0.08867  Biso   1.000  O
  O14      1.0000 0.68190  0.87290  0.07398  Biso   1.000  O
  O15      1.0000 0.79200  0.10780  0.08622  Biso   1.000  O
  O16      1.0000 0.03100  0.11820  0.03858  Biso   1.000  O
  C35      1.0000 0.77580  0.44910  0.55970  Biso   1.000  C
  C36      1.0000 0.72690  0.57250  0.55870  Biso   1.000  C
  C37      1.0000 0.69750  0.62350  0.48310  Biso   1.000  C
  H21      1.0000 0.66310  0.70660  0.48330  Biso   1.000  H
  C38      1.0000 0.71570  0.55910  0.40650  Biso   1.000  C
  C39      1.0000 0.76720  0.43590  0.40700  Biso   1.000  C
  C40      1.0000 0.79300  0.38480  0.48370  Biso   1.000  C
  H22      1.0000 0.82390  0.30170  0.48430  Biso   1.000  H
  C41      1.0000 0.81360  0.38500  0.63660  Biso   1.000  C
  C42      1.0000 0.78050  0.28150  0.65670  Biso   1.000  C
  H23      1.0000 0.73540  0.25160  0.62000  Biso   1.000  H
  C43      1.0000 0.81200  0.22200  0.72870  Biso   1.000  C
  H24      1.0000 0.78800  0.15240  0.74120  Biso   1.000  H
  C44      1.0000 0.87950  0.26440  0.78310  Biso   1.000  C
  C45      1.0000 0.91440  0.36650  0.76340  Biso   1.000  C
  H25      1.0000 0.95890  0.39640  0.80040  Biso   1.000  H
  C46      1.0000 0.88470  0.42450  0.69070  Biso   1.000  C
  H26      1.0000 0.91290  0.49230  0.67700  Biso   1.000  H
  C47      1.0000 0.91000  0.20150  0.86060  Biso   1.000  C
  C48      1.0000 0.70560  0.65420  0.63320  Biso   1.000  C
  C49      1.0000 0.59560  0.66320  0.71280  Biso   1.000  C
  H27      1.0000 0.53410  0.61420  0.72130  Biso   1.000  H
  C50      1.0000 0.57490  0.74340  0.78010  Biso   1.000  C
  H28      1.0000 0.49550  0.75190  0.83290  Biso   1.000  H
  C51      1.0000 0.67050  0.81110  0.77010  Biso   1.000  C
  C52      1.0000 0.78060  0.80150  0.69130  Biso   1.000  C
  H29      1.0000 0.84650  0.84690  0.68420  Biso   1.000  H
  C53      1.0000 0.79600  0.72650  0.62270  Biso   1.000  C
  H30      1.0000 0.86840  0.72400  0.56800  Biso   1.000  H
  C54      1.0000 0.66120  0.88860  0.84420  Biso   1.000  C
  C55      1.0000 0.67920  0.62550  0.33050  Biso   1.000  C
  C56      1.0000 0.72350  0.72440  0.31060  Biso   1.000  C
  H31      1.0000 0.77430  0.74890  0.34670  Biso   1.000  H
  C57      1.0000 0.69440  0.78670  0.23950  Biso   1.000  C
  H32      1.0000 0.72800  0.85220  0.22630  Biso   1.000  H
  C58      1.0000 0.61610  0.75450  0.18680  Biso   1.000  C
  C59      1.0000 0.56680  0.65860  0.20800  Biso   1.000  C
  H33      1.0000 0.50990  0.63730  0.17430  Biso   1.000  H
  C60      1.0000 0.60030  0.59470  0.27780  Biso   1.000  C
  H34      1.0000 0.56890  0.52810  0.29010  Biso   1.000  H
  C61      1.0000 0.58480  0.82460  0.11040  Biso   1.000  C
  C62      1.0000 0.80580  0.35670  0.32760  Biso   1.000  C
  C63      1.0000 0.90380  0.36970  0.24890  Biso   1.000  C
  H35      1.0000 0.94630  0.43070  0.24550  Biso   1.000  H
  C64      1.0000 0.94110  0.29550  0.17510  Biso   1.000  C
  H36      1.0000 0.01180  0.30380  0.12260  Biso   1.000  H
  C65      1.0000 0.87430  0.20930  0.17840  Biso   1.000  C
  C66      1.0000 0.77820  0.19370  0.25670  Biso   1.000  C
  H37      1.0000 0.73390  0.13380  0.25940  Biso   1.000  H
  C67      1.0000 0.74590  0.26550  0.33160  Biso   1.000  C
  H38      1.0000 0.68320  0.25230  0.38550  Biso   1.000  H
  C68      1.0000 0.90130  0.13830  0.09620  Biso   1.000  C
