data_image0
_cell_length_a       8.488
_cell_length_b       17.721
_cell_length_c       9.024
_cell_angle_alpha    90
_cell_angle_beta     106.96
_cell_angle_gamma    90

_symmetry_space_group_name_H-M    "P 1"
_symmetry_int_tables_number       1

loop_
  _symmetry_equiv_pos_as_xyz
  'x, y, z'

loop_
  _atom_site_label
  _atom_site_occupancy
  _atom_site_fract_x
  _atom_site_fract_y
  _atom_site_fract_z
  _atom_site_thermal_displace_type
  _atom_site_B_iso_or_equiv
  _atom_site_type_symbol
  Al1      1.0000 0.98326  0.17661  0.80777  Biso   1.000  Al
  Al2      1.0000 0.92775  0.29447  0.20718  Biso   1.000  Al
  Al3      1.0000 0.37140  0.39251  0.82961  Biso   1.000  Al
  P1       1.0000 0.20442  0.28997  0.02454  Biso   1.000  P
  P2       1.0000 0.73364  0.16925  0.00012  Biso   1.000  P
  P3       1.0000 0.15737  0.07138  0.63749  Biso   1.000  P
  O1       1.0000 0.16310  0.22330  0.91110  Biso   1.000  O
  O2       1.0000 0.23940  0.35908  0.94280  Biso   1.000  O
  O3       1.0000 0.05980  0.30650  0.08460  Biso   1.000  O
  O4       1.0000 0.35760  0.26890  0.15700  Biso   1.000  O
  O5       1.0000 0.87410  0.14730  0.93170  Biso   1.000  O
  O6       1.0000 0.56920  0.15880  0.87960  Biso   1.000  O
  O7       1.0000 0.74340  0.11410  0.13170  Biso   1.000  O
  O8       1.0000 0.75370  0.25038  0.05660  Biso   1.000  O
  O9       1.0000 0.04440  0.09440  0.73660  Biso   1.000  O
  O10      1.0000 0.06560  0.08370  0.46880  Biso   1.000  O
  O11      1.0000 0.31300  0.11870  0.68290  Biso   1.000  O
  O12      1.0000 0.20880  0.99073  0.67000  Biso   1.000  O
  O13      1.0000 0.96610  0.20340  0.30990  Biso   1.000  O
  H1       1.0000 0.06280  0.20450  0.37260  Biso   1.000  H
  Al4      1.0000 0.51674  0.67661  0.69223  Biso   1.000  Al
  Al5      1.0000 0.57225  0.79447  0.29282  Biso   1.000  Al
  Al6      1.0000 0.12860  0.89251  0.67039  Biso   1.000  Al
  P4       1.0000 0.29558  0.78997  0.47546  Biso   1.000  P
  P5       1.0000 0.76636  0.66925  0.49988  Biso   1.000  P
  P6       1.0000 0.34263  0.57138  0.86251  Biso   1.000  P
  O14      1.0000 0.33690  0.72330  0.58890  Biso   1.000  O
  O15      1.0000 0.26060  0.85908  0.55720  Biso   1.000  O
  O16      1.0000 0.44020  0.80650  0.41540  Biso   1.000  O
  O17      1.0000 0.14240  0.76890  0.34300  Biso   1.000  O
  O18      1.0000 0.62590  0.64730  0.56830  Biso   1.000  O
  O19      1.0000 0.93080  0.65880  0.62040  Biso   1.000  O
  O20      1.0000 0.75660  0.61410  0.36830  Biso   1.000  O
  O21      1.0000 0.74630  0.75038  0.44340  Biso   1.000  O
  O22      1.0000 0.45560  0.59440  0.76340  Biso   1.000  O
  O23      1.0000 0.43440  0.58370  0.03120  Biso   1.000  O
  O24      1.0000 0.18700  0.61870  0.81710  Biso   1.000  O
  O25      1.0000 0.29120  0.49073  0.83000  Biso   1.000  O
  O26      1.0000 0.53390  0.70340  0.19010  Biso   1.000  O
  H2       1.0000 0.43720  0.70450  0.12740  Biso   1.000  H
  Al7      1.0000 0.01674  0.82339  0.19223  Biso   1.000  Al
  Al8      1.0000 0.07225  0.70553  0.79282  Biso   1.000  Al
  Al9      1.0000 0.62860  0.60749  0.17039  Biso   1.000  Al
  P7       1.0000 0.79558  0.71003  0.97546  Biso   1.000  P
  P8       1.0000 0.26636  0.83075  0.99988  Biso   1.000  P
  P9       1.0000 0.84263  0.92862  0.36251  Biso   1.000  P
  O27      1.0000 0.83690  0.77670  0.08890  Biso   1.000  O
  O28      1.0000 0.76060  0.64092  0.05720  Biso   1.000  O
  O29      1.0000 0.94020  0.69350  0.91540  Biso   1.000  O
  O30      1.0000 0.64240  0.73110  0.84300  Biso   1.000  O
  O31      1.0000 0.12590  0.85270  0.06830  Biso   1.000  O
  O32      1.0000 0.43080  0.84120  0.12040  Biso   1.000  O
  O33      1.0000 0.25660  0.88590  0.86830  Biso   1.000  O
  O34      1.0000 0.24630  0.74962  0.94340  Biso   1.000  O
  O35      1.0000 0.95560  0.90560  0.26340  Biso   1.000  O
  O36      1.0000 0.93440  0.91630  0.53120  Biso   1.000  O
  O37      1.0000 0.68700  0.88130  0.31710  Biso   1.000  O
  O38      1.0000 0.79120  0.00927  0.33000  Biso   1.000  O
  O39      1.0000 0.03390  0.79660  0.69010  Biso   1.000  O
  H3       1.0000 0.93720  0.79550  0.62740  Biso   1.000  H
  Al10     1.0000 0.48326  0.32339  0.30777  Biso   1.000  Al
  Al11     1.0000 0.42775  0.20553  0.70718  Biso   1.000  Al
  Al12     1.0000 0.87140  0.10749  0.32961  Biso   1.000  Al
  P10      1.0000 0.70442  0.21003  0.52454  Biso   1.000  P
  P11      1.0000 0.23364  0.33075  0.50012  Biso   1.000  P
  P12      1.0000 0.65737  0.42862  0.13749  Biso   1.000  P
  O40      1.0000 0.66310  0.27670  0.41110  Biso   1.000  O
  O41      1.0000 0.73940  0.14092  0.44280  Biso   1.000  O
  O42      1.0000 0.55980  0.19350  0.58460  Biso   1.000  O
  O43      1.0000 0.85760  0.23110  0.65700  Biso   1.000  O
  O44      1.0000 0.37410  0.35270  0.43170  Biso   1.000  O
  O45      1.0000 0.06920  0.34120  0.37960  Biso   1.000  O
  O46      1.0000 0.24340  0.38590  0.63170  Biso   1.000  O
  O47      1.0000 0.25370  0.24962  0.55660  Biso   1.000  O
  O48      1.0000 0.54440  0.40560  0.23660  Biso   1.000  O
  O49      1.0000 0.56560  0.41630  0.96880  Biso   1.000  O
  O50      1.0000 0.81300  0.38130  0.18290  Biso   1.000  O
  O51      1.0000 0.70880  0.50927  0.17000  Biso   1.000  O
  O52      1.0000 0.46610  0.29660  0.80990  Biso   1.000  O
  H4       1.0000 0.56280  0.29550  0.87260  Biso   1.000  H
