data_image0
_cell_length_a       9.5603
_cell_length_b       12.1386
_cell_length_c       15.9458
_cell_angle_alpha    88.455
_cell_angle_beta     74.417
_cell_angle_gamma    70.233

_symmetry_space_group_name_H-M    "P 1"
_symmetry_int_tables_number       1

loop_
  _symmetry_equiv_pos_as_xyz
  'x, y, z'

loop_
  _atom_site_label
  _atom_site_occupancy
  _atom_site_fract_x
  _atom_site_fract_y
  _atom_site_fract_z
  _atom_site_thermal_displace_type
  _atom_site_B_iso_or_equiv
  _atom_site_type_symbol
  Ce1      1.0000 0.29554  0.97447  0.01829  Biso   1.000  Ce
  O1       1.0000 0.12540  0.88350  0.11778  Biso   1.000  O
  O2       1.0000 0.01090  0.75750  0.09946  Biso   1.000  O
  H1       1.0000 0.99180  0.79980  0.05850  Biso   1.000  H
  O3       1.0000 0.23690  0.06280  0.16735  Biso   1.000  O
  O4       1.0000 0.44120  0.09820  0.08460  Biso   1.000  O
  O5       1.0000 0.53420  0.16920  0.90960  Biso   1.000  O
  O6       1.0000 0.32130  0.12400  0.92131  Biso   1.000  O
  O7       1.0000 0.20630  0.89060  0.91296  Biso   1.000  O
  O8       1.0000 0.96970  0.87830  0.96102  Biso   1.000  O
  C1       1.0000 0.22380  0.55110  0.43960  Biso   1.000  C
  C2       1.0000 0.27300  0.42810  0.44050  Biso   1.000  C
  C3       1.0000 0.30440  0.37640  0.51550  Biso   1.000  C
  H2       1.0000 0.33980  0.29320  0.51490  Biso   1.000  H
  C4       1.0000 0.28670  0.44050  0.59170  Biso   1.000  C
  C5       1.0000 0.23320  0.56440  0.59210  Biso   1.000  C
  C6       1.0000 0.20740  0.61500  0.51550  Biso   1.000  C
  H3       1.0000 0.17690  0.69800  0.51490  Biso   1.000  H
  C7       1.0000 0.18390  0.61610  0.36360  Biso   1.000  C
  C8       1.0000 0.11270  0.57600  0.31060  Biso   1.000  C
  H4       1.0000 0.08510  0.50820  0.32460  Biso   1.000  H
  C9       1.0000 0.08230  0.63380  0.23840  Biso   1.000  C
  H5       1.0000 0.03730  0.60390  0.20210  Biso   1.000  H
  C10      1.0000 0.11710  0.73540  0.21810  Biso   1.000  C
  C11      1.0000 0.18390  0.77890  0.27150  Biso   1.000  C
  H6       1.0000 0.20700  0.84880  0.25860  Biso   1.000  H
  C12      1.0000 0.21620  0.71960  0.34320  Biso   1.000  C
  H7       1.0000 0.26120  0.74960  0.37950  Biso   1.000  H
  C13      1.0000 0.08600  0.79890  0.14080  Biso   1.000  C
  C14      1.0000 0.29400  0.34630  0.36610  Biso   1.000  C
  C15      1.0000 0.40270  0.33710  0.28670  Biso   1.000  C
  H8       1.0000 0.46470  0.38550  0.27770  Biso   1.000  H
  C16      1.0000 0.42150  0.25730  0.22000  Biso   1.000  C
  H9       1.0000 0.49970  0.24900  0.16680  Biso   1.000  H
  C17      1.0000 0.32760  0.19010  0.23020  Biso   1.000  C
  C18      1.0000 0.21820  0.19910  0.31020  Biso   1.000  C
  H10      1.0000 0.15350  0.15280  0.31810  Biso   1.000  H
  C19      1.0000 0.20300  0.27440  0.37790  Biso   1.000  C
  H11      1.0000 0.13060  0.27770  0.43270  Biso   1.000  H
  C20      1.0000 0.33650  0.11220  0.15750  Biso   1.000  C
  C21      1.0000 0.32220  0.37410  0.66790  Biso   1.000  C
  C22      1.0000 0.27990  0.27520  0.68730  Biso   1.000  C
  H12      1.0000 0.23010  0.25040  0.65110  Biso   1.000  H
  C23      1.0000 0.30860  0.21270  0.75780  Biso   1.000  C
  H13      1.0000 0.27490  0.14740  0.77110  Biso   1.000  H
  C24      1.0000 0.38710  0.24450  0.80990  Biso   1.000  C
  C25      1.0000 0.43470  0.34070  0.78980  Biso   1.000  C
  H14      1.0000 0.49030  0.36230  0.82380  Biso   1.000  H
  C26      1.0000 0.40110  0.40530  0.71970  Biso   1.000  C
  H15      1.0000 0.43250  0.47170  0.70700  Biso   1.000  H
  C27      1.0000 0.41700  0.17510  0.88640  Biso   1.000  C
  C28      1.0000 0.19520  0.64300  0.67130  Biso   1.000  C
  C29      1.0000 0.09640  0.62950  0.74950  Biso   1.000  C
  H16      1.0000 0.05330  0.56910  0.75250  Biso   1.000  H
  C30      1.0000 0.06000  0.70320  0.82320  Biso   1.000  C
  H17      1.0000 0.98940  0.69470  0.87550  Biso   1.000  H
  C31      1.0000 0.12660  0.78950  0.82060  Biso   1.000  C
  C32      1.0000 0.22410  0.80430  0.74280  Biso   1.000  C
  H18      1.0000 0.26980  0.86300  0.74060  Biso   1.000  H
  C33      1.0000 0.25560  0.73370  0.66800  Biso   1.000  C
  H19      1.0000 0.31850  0.74720  0.61440  Biso   1.000  H
  C34      1.0000 0.09920  0.85910  0.90250  Biso   1.000  C
  Ce2      1.0000 0.70446  0.02553  0.98171  Biso   1.000  Ce
  O9       1.0000 0.87460  0.11650  0.88222  Biso   1.000  O
  O10      1.0000 0.98910  0.24250  0.90054  Biso   1.000  O
  H20      1.0000 0.00820  0.20020  0.94150  Biso   1.000  H
  O11      1.0000 0.76310  0.93720  0.83265  Biso   1.000  O
  O12      1.0000 0.55880  0.90180  0.91540  Biso   1.000  O
  O13      1.0000 0.46580  0.83080  0.09040  Biso   1.000  O
  O14      1.0000 0.67870  0.87600  0.07869  Biso   1.000  O
  O15      1.0000 0.79370  0.10940  0.08704  Biso   1.000  O
  O16      1.0000 0.03030  0.12170  0.03898  Biso   1.000  O
  C35      1.0000 0.77620  0.44890  0.56040  Biso   1.000  C
  C36      1.0000 0.72700  0.57190  0.55950  Biso   1.000  C
  C37      1.0000 0.69560  0.62360  0.48450  Biso   1.000  C
  H21      1.0000 0.66020  0.70680  0.48510  Biso   1.000  H
  C38      1.0000 0.71330  0.55950  0.40830  Biso   1.000  C
  C39      1.0000 0.76680  0.43560  0.40790  Biso   1.000  C
  C40      1.0000 0.79260  0.38500  0.48450  Biso   1.000  C
  H22      1.0000 0.82310  0.30200  0.48510  Biso   1.000  H
  C41      1.0000 0.81610  0.38390  0.63640  Biso   1.000  C
  C42      1.0000 0.88730  0.42400  0.68940  Biso   1.000  C
  H23      1.0000 0.91490  0.49180  0.67540  Biso   1.000  H
  C43      1.0000 0.91770  0.36620  0.76160  Biso   1.000  C
  H24      1.0000 0.96270  0.39610  0.79790  Biso   1.000  H
  C44      1.0000 0.88290  0.26460  0.78190  Biso   1.000  C
  C45      1.0000 0.81610  0.22110  0.72850  Biso   1.000  C
  H25      1.0000 0.79300  0.15120  0.74140  Biso   1.000  H
  C46      1.0000 0.78380  0.28040  0.65680  Biso   1.000  C
  H26      1.0000 0.73880  0.25040  0.62050  Biso   1.000  H
  C47      1.0000 0.91400  0.20110  0.85920  Biso   1.000  C
  C48      1.0000 0.70600  0.65370  0.63390  Biso   1.000  C
  C49      1.0000 0.59730  0.66290  0.71330  Biso   1.000  C
  H27      1.0000 0.53530  0.61450  0.72230  Biso   1.000  H
  C50      1.0000 0.57850  0.74270  0.78000  Biso   1.000  C
  H28      1.0000 0.50030  0.75100  0.83320  Biso   1.000  H
  C51      1.0000 0.67240  0.80990  0.76980  Biso   1.000  C
  C52      1.0000 0.78180  0.80090  0.68980  Biso   1.000  C
  H29      1.0000 0.84650  0.84720  0.68190  Biso   1.000  H
  C53      1.0000 0.79700  0.72560  0.62210  Biso   1.000  C
  H30      1.0000 0.86940  0.72230  0.56730  Biso   1.000  H
  C54      1.0000 0.66350  0.88780  0.84250  Biso   1.000  C
  C55      1.0000 0.67780  0.62590  0.33210  Biso   1.000  C
  C56      1.0000 0.72010  0.72480  0.31270  Biso   1.000  C
  H31      1.0000 0.76990  0.74960  0.34890  Biso   1.000  H
  C57      1.0000 0.69140  0.78730  0.24220  Biso   1.000  C
  H32      1.0000 0.72510  0.85260  0.22890  Biso   1.000  H
  C58      1.0000 0.61290  0.75550  0.19010  Biso   1.000  C
  C59      1.0000 0.56530  0.65930  0.21020  Biso   1.000  C
  H33      1.0000 0.50970  0.63770  0.17620  Biso   1.000  H
  C60      1.0000 0.59890  0.59470  0.28030  Biso   1.000  C
  H34      1.0000 0.56750  0.52830  0.29300  Biso   1.000  H
  C61      1.0000 0.58300  0.82490  0.11360  Biso   1.000  C
  C62      1.0000 0.80480  0.35700  0.32870  Biso   1.000  C
  C63      1.0000 0.90360  0.37050  0.25050  Biso   1.000  C
  H35      1.0000 0.94670  0.43090  0.24750  Biso   1.000  H
  C64      1.0000 0.94000  0.29680  0.17680  Biso   1.000  C
  H36      1.0000 0.01060  0.30530  0.12450  Biso   1.000  H
  C65      1.0000 0.87340  0.21050  0.17940  Biso   1.000  C
  C66      1.0000 0.77590  0.19570  0.25720  Biso   1.000  C
  H37      1.0000 0.73020  0.13700  0.25940  Biso   1.000  H
  C67      1.0000 0.74440  0.26630  0.33200  Biso   1.000  C
  H38      1.0000 0.68150  0.25280  0.38560  Biso   1.000  H
  C68      1.0000 0.90080  0.14090  0.09750  Biso   1.000  C
