data_image0
_cell_length_a       8.1452
_cell_length_b       8.9029
_cell_length_c       10.4452
_cell_angle_alpha    111.437
_cell_angle_beta     103.734
_cell_angle_gamma    102.096

_symmetry_space_group_name_H-M    "P 1"
_symmetry_int_tables_number       1

loop_
  _symmetry_equiv_pos_as_xyz
  'x, y, z'

loop_
  _atom_site_label
  _atom_site_occupancy
  _atom_site_fract_x
  _atom_site_fract_y
  _atom_site_fract_z
  _atom_site_thermal_displace_type
  _atom_site_B_iso_or_equiv
  _atom_site_type_symbol
  Ga1      1.0000 0.23199  0.94593  0.94719  Biso   1.000  Ga
  Ga2      1.0000 0.31196  0.49083  0.14081  Biso   1.000  Ga
  P1       1.0000 0.16393  0.18126  0.21716  Biso   1.000  P
  P2       1.0000 0.53704  0.25796  0.99019  Biso   1.000  P
  O1       1.0000 0.23350  0.04030  0.13340  Biso   1.000  O
  O2       1.0000 0.03140  0.90760  0.80090  Biso   1.000  O
  O3       1.0000 0.15350  0.30280  0.14650  Biso   1.000  O
  O4       1.0000 0.27720  0.26480  0.37740  Biso   1.000  O
  O5       1.0000 0.48110  0.37460  0.10550  Biso   1.000  O
  O6       1.0000 0.40170  0.07640  0.90970  Biso   1.000  O
  O7       1.0000 0.28340  0.74880  0.92530  Biso   1.000  O
  O8       1.0000 0.44590  0.68470  0.12700  Biso   1.000  O
  O9       1.0000 0.14410  0.39740  0.93260  Biso   1.000  O
  O10      1.0000 0.13170  0.61350  0.18440  Biso   1.000  O
  F1       1.0000 0.43320  0.59520  0.34390  Biso   1.000  F
  C1       1.0000 0.00380  0.43790  0.92710  Biso   1.000  C
  Ga3      1.0000 0.76801  0.05407  0.05281  Biso   1.000  Ga
  Ga4      1.0000 0.68804  0.50917  0.85919  Biso   1.000  Ga
  P3       1.0000 0.83607  0.81874  0.78284  Biso   1.000  P
  P4       1.0000 0.46296  0.74204  0.00981  Biso   1.000  P
  O11      1.0000 0.76650  0.95970  0.86660  Biso   1.000  O
  O12      1.0000 0.96860  0.09240  0.19910  Biso   1.000  O
  O13      1.0000 0.84650  0.69720  0.85350  Biso   1.000  O
  O14      1.0000 0.72280  0.73520  0.62260  Biso   1.000  O
  O15      1.0000 0.51890  0.62540  0.89450  Biso   1.000  O
  O16      1.0000 0.59830  0.92360  0.09030  Biso   1.000  O
  O17      1.0000 0.71660  0.25120  0.07470  Biso   1.000  O
  O18      1.0000 0.55410  0.31530  0.87300  Biso   1.000  O
  O19      1.0000 0.85590  0.60260  0.06740  Biso   1.000  O
  O20      1.0000 0.86830  0.38650  0.81560  Biso   1.000  O
  F2       1.0000 0.56680  0.40480  0.65610  Biso   1.000  F
  C2       1.0000 0.99620  0.56210  0.07290  Biso   1.000  C
  Mn1      1.0000 0.50000  0.50000  0.50000  Biso   1.000  Mn
