data_image0
_cell_length_a       9.1427
_cell_length_b       24.503
_cell_length_c       24.588
_cell_angle_alpha    90
_cell_angle_beta     91.089
_cell_angle_gamma    90

_symmetry_space_group_name_H-M    "P 1"
_symmetry_int_tables_number       1

loop_
  _symmetry_equiv_pos_as_xyz
  'x, y, z'

loop_
  _atom_site_label
  _atom_site_occupancy
  _atom_site_fract_x
  _atom_site_fract_y
  _atom_site_fract_z
  _atom_site_thermal_displace_type
  _atom_site_B_iso_or_equiv
  _atom_site_type_symbol
  C1       1.0000 0.14950  0.84810  0.01640  Biso   1.000  C
  C2       1.0000 0.19320  0.82290  0.10270  Biso   1.000  C
  C3       1.0000 0.10350  0.76130  0.04360  Biso   1.000  C
  C4       1.0000 0.14540  0.86880  0.91660  Biso   1.000  C
  H1       1.0000 0.24270  0.86180  0.90330  Biso   1.000  H
  H2       1.0000 0.08950  0.83530  0.91390  Biso   1.000  H
  C5       1.0000 0.07480  0.91100  0.88330  Biso   1.000  C
  H3       1.0000 0.97370  0.91580  0.89490  Biso   1.000  H
  C6       1.0000 0.15770  0.96510  0.89060  Biso   1.000  C
  H4       1.0000 0.25560  0.96150  0.87640  Biso   1.000  H
  H5       1.0000 0.10750  0.99370  0.87040  Biso   1.000  H
  C7       1.0000 0.16630  0.97980  0.94950  Biso   1.000  C
  H6       1.0000 0.22320  0.01300  0.95360  Biso   1.000  H
  H7       1.0000 0.06830  0.98740  0.96200  Biso   1.000  H
  C8       1.0000 0.23070  0.93820  0.98380  Biso   1.000  C
  H8       1.0000 0.22330  0.94870  0.02170  Biso   1.000  H
  H9       1.0000 0.33360  0.93420  0.97560  Biso   1.000  H
  C9       1.0000 0.07440  0.89250  0.82390  Biso   1.000  C
  C10      1.0000 0.29180  0.89310  0.16640  Biso   1.000  C
  H10      1.0000 0.38850  0.89570  0.18320  Biso   1.000  H
  H11      1.0000 0.28830  0.91640  0.13460  Biso   1.000  H
  C11      1.0000 0.17850  0.90970  0.20550  Biso   1.000  C
  H12      1.0000 0.08360  0.90650  0.18660  Biso   1.000  H
  C12      1.0000 0.17320  0.87420  0.25410  Biso   1.000  C
  H13      1.0000 0.09300  0.88570  0.27670  Biso   1.000  H
  H14      1.0000 0.26330  0.87830  0.27520  Biso   1.000  H
  C13      1.0000 0.15310  0.81510  0.23900  Biso   1.000  C
  H15      1.0000 0.05410  0.80950  0.22520  Biso   1.000  H
  H16      1.0000 0.16690  0.79260  0.27110  Biso   1.000  H
  C14      1.0000 0.26110  0.79770  0.19590  Biso   1.000  C
  H17      1.0000 0.35890  0.79630  0.21190  Biso   1.000  H
  H18      1.0000 0.23620  0.76150  0.18290  Biso   1.000  H
  C15      1.0000 0.19910  0.97000  0.22000  Biso   1.000  C
  C16      1.0000 0.01240  0.67150  0.07710  Biso   1.000  C
  H19      1.0000 0.90780  0.66790  0.08210  Biso   1.000  H
  H20      1.0000 0.05710  0.68330  0.11120  Biso   1.000  H
  C17      1.0000 0.07680  0.61780  0.05960  Biso   1.000  C
  H21      1.0000 0.05600  0.59030  0.08670  Biso   1.000  H
  H22      1.0000 0.18220  0.62140  0.05760  Biso   1.000  H
  C18      1.0000 0.01620  0.59900  0.00460  Biso   1.000  C
  H23      1.0000 0.06150  0.56480  0.99460  Biso   1.000  H
  H24      1.0000 0.91160  0.59320  0.00680  Biso   1.000  H
  C19      1.0000 0.04680  0.64180  0.96190  Biso   1.000  C
  H25      1.0000 0.15330  0.64620  0.96160  Biso   1.000  H
  C20      1.0000 0.98310  0.69810  0.97840  Biso   1.000  C
  H26      1.0000 0.01080  0.72570  0.95230  Biso   1.000  H
  H27      1.0000 0.87720  0.69630  0.97910  Biso   1.000  H
  C21      1.0000 0.00000  0.62710  0.90400  Biso   1.000  C
  C22      1.0000 0.45550  0.15510  0.90290  Biso   1.000  C
  C23      1.0000 0.39150  0.22200  0.95770  Biso   1.000  C
  C24      1.0000 0.50570  0.14920  0.99480  Biso   1.000  C
  C25      1.0000 0.54490  0.08250  0.84370  Biso   1.000  C
  H28      1.0000 0.57720  0.06650  0.87790  Biso   1.000  H
  H29      1.0000 0.63070  0.09050  0.82250  Biso   1.000  H
  C26      1.0000 0.44720  0.04230  0.81280  Biso   1.000  C
  H30      1.0000 0.35800  0.03600  0.83340  Biso   1.000  H
  C27      1.0000 0.40640  0.06980  0.75810  Biso   1.000  C
  H31      1.0000 0.34340  0.04570  0.73690  Biso   1.000  H
  H32      1.0000 0.49440  0.07630  0.73770  Biso   1.000  H
  C28      1.0000 0.32610  0.12510  0.76790  Biso   1.000  C
  H33      1.0000 0.31180  0.14410  0.73360  Biso   1.000  H
  H34      1.0000 0.23080  0.11830  0.78320  Biso   1.000  H
  C29      1.0000 0.41390  0.15870  0.80530  Biso   1.000  C
  H35      1.0000 0.49860  0.17180  0.78600  Biso   1.000  H
  H36      1.0000 0.35630  0.19040  0.81500  Biso   1.000  H
  C30      1.0000 0.52680  0.98850  0.80550  Biso   1.000  C
  C31      1.0000 0.26360  0.30190  0.91610  Biso   1.000  C
  H37      1.0000 0.29070  0.28310  0.88310  Biso   1.000  H
  H38      1.0000 0.15780  0.30210  0.91800  Biso   1.000  H
  C32      1.0000 0.31860  0.35770  0.91530  Biso   1.000  C
  H39      1.0000 0.27240  0.37700  0.88500  Biso   1.000  H
  H40      1.0000 0.42300  0.35690  0.90890  Biso   1.000  H
  C33      1.0000 0.29130  0.38970  0.96790  Biso   1.000  C
  H41      1.0000 0.18740  0.39180  0.97480  Biso   1.000  H
  H42      1.0000 0.32980  0.42650  0.96520  Biso   1.000  H
  C34      1.0000 0.37120  0.35810  0.01410  Biso   1.000  C
  H43      1.0000 0.47610  0.35640  0.00690  Biso   1.000  H
  C35      1.0000 0.30660  0.29990  0.01500  Biso   1.000  C
  H44      1.0000 0.35350  0.27900  0.04400  Biso   1.000  H
  H45      1.0000 0.20280  0.30180  0.02230  Biso   1.000  H
  C36      1.0000 0.34560  0.39040  0.06750  Biso   1.000  C
  C37      1.0000 0.51870  0.13220  0.08910  Biso   1.000  C
  H46      1.0000 0.48570  0.16980  0.08970  Biso   1.000  H
  H47      1.0000 0.60650  0.13010  0.11180  Biso   1.000  H
  C38      1.0000 0.40410  0.09790  0.11490  Biso   1.000  C
  H48      1.0000 0.30830  0.10890  0.10020  Biso   1.000  H
  C39      1.0000 0.42890  0.03640  0.10100  Biso   1.000  C
  H49      1.0000 0.50270  0.02170  0.12580  Biso   1.000  H
  H50      1.0000 0.33870  0.01660  0.10680  Biso   1.000  H
  C40      1.0000 0.47530  0.02750  0.04500  Biso   1.000  C
  H51      1.0000 0.39210  0.03340  0.02060  Biso   1.000  H
  H52      1.0000 0.50520  0.98970  0.04120  Biso   1.000  H
  C41      1.0000 0.59880  0.06370  0.02780  Biso   1.000  C
  H53      1.0000 0.68590  0.05570  0.04950  Biso   1.000  H
  H54      1.0000 0.62050  0.05700  0.98990  Biso   1.000  H
  C42      1.0000 0.39900  0.09980  0.17680  Biso   1.000  C
  C43      1.0000 0.56500  0.81180  0.49810  Biso   1.000  C
  C44      1.0000 0.63730  0.73090  0.46330  Biso   1.000  C
  C45      1.0000 0.61020  0.80430  0.41010  Biso   1.000  C
  C46      1.0000 0.50430  0.90290  0.53310  Biso   1.000  C
  H55      1.0000 0.47530  0.91150  0.49600  Biso   1.000  H
  H56      1.0000 0.42970  0.91670  0.55700  Biso   1.000  H
  C47      1.0000 0.64520  0.92920  0.54640  Biso   1.000  C
  H57      1.0000 0.63720  0.96840  0.54180  Biso   1.000  H
  H58      1.0000 0.72030  0.91590  0.52240  Biso   1.000  H
  C48      1.0000 0.68650  0.91500  0.60740  Biso   1.000  C
  H59      1.0000 0.78360  0.92910  0.61570  Biso   1.000  H
  H60      1.0000 0.61850  0.93340  0.63100  Biso   1.000  H
  C49      1.0000 0.68410  0.85360  0.62000  Biso   1.000  C
  H61      1.0000 0.76880  0.83610  0.60340  Biso   1.000  H
  C50      1.0000 0.53900  0.82680  0.59620  Biso   1.000  C
  H62      1.0000 0.54600  0.78730  0.59870  Biso   1.000  H
  H63      1.0000 0.45620  0.83850  0.61730  Biso   1.000  H
  C51      1.0000 0.69950  0.85050  0.67840  Biso   1.000  C
  C52      1.0000 0.67110  0.64950  0.52290  Biso   1.000  C
  H64      1.0000 0.76440  0.63280  0.53240  Biso   1.000  H
  H65      1.0000 0.64720  0.67520  0.55140  Biso   1.000  H
  C53      1.0000 0.55930  0.60770  0.51950  Biso   1.000  C
  H66      1.0000 0.46430  0.62570  0.51470  Biso   1.000  H
  C54      1.0000 0.58140  0.56860  0.47000  Biso   1.000  C
  H67      1.0000 0.49770  0.54450  0.46610  Biso   1.000  H
  H68      1.0000 0.66790  0.54640  0.47630  Biso   1.000  H
  C55      1.0000 0.59910  0.60300  0.41670  Biso   1.000  C
  H69      1.0000 0.62440  0.57920  0.38680  Biso   1.000  H
  H70      1.0000 0.50760  0.62110  0.40740  Biso   1.000  H
  C56      1.0000 0.71930  0.64540  0.42580  Biso   1.000  C
  H71      1.0000 0.81170  0.62710  0.43330  Biso   1.000  H
  H72      1.0000 0.72990  0.66730  0.39330  Biso   1.000  H
  C57      1.0000 0.55270  0.57170  0.56990  Biso   1.000  C
  C58      1.0000 0.65170  0.79560  0.31380  Biso   1.000  C
  H73      1.0000 0.56120  0.78680  0.29460  Biso   1.000  H
  H74      1.0000 0.69870  0.76170  0.32460  Biso   1.000  H
  C59      1.0000 0.75200  0.82760  0.27620  Biso   1.000  C
  H75      1.0000 0.84680  0.83250  0.29390  Biso   1.000  H
  H76      1.0000 0.76630  0.80690  0.24310  Biso   1.000  H
  C60      1.0000 0.68740  0.88260  0.26230  Biso   1.000  C
  H77      1.0000 0.59640  0.87760  0.24200  Biso   1.000  H
  H78      1.0000 0.75430  0.90250  0.23940  Biso   1.000  H
  C61      1.0000 0.65820  0.91620  0.31370  Biso   1.000  C
  H79      1.0000 0.75180  0.92360  0.33230  Biso   1.000  H
  C62      1.0000 0.56160  0.88100  0.35200  Biso   1.000  C
  H80      1.0000 0.55470  0.89900  0.38690  Biso   1.000  H
  H81      1.0000 0.46360  0.87820  0.33640  Biso   1.000  H
  C63      1.0000 0.58440  0.96880  0.30180  Biso   1.000  C
  C64      1.0000 0.90830  0.10490  0.51040  Biso   1.000  C
  C65      1.0000 0.92200  0.19150  0.53670  Biso   1.000  C
  C66      1.0000 0.85260  0.12600  0.59570  Biso   1.000  C
  C67      1.0000 0.92620  0.08540  0.41290  Biso   1.000  C
  H82      1.0000 0.82980  0.08190  0.39600  Biso   1.000  H
  H83      1.0000 0.95510  0.12340  0.41100  Biso   1.000  H
  C68      1.0000 0.03130  0.05160  0.38330  Biso   1.000  C
  H84      1.0000 0.12880  0.05700  0.39960  Biso   1.000  H
  C69      1.0000 0.99070  0.98910  0.38700  Biso   1.000  C
  H85      1.0000 0.89600  0.98250  0.36980  Biso   1.000  H
  H86      1.0000 0.06330  0.96720  0.36880  Biso   1.000  H
  C70      1.0000 0.98680  0.97490  0.44610  Biso   1.000  C
  H87      1.0000 0.95420  0.93750  0.44990  Biso   1.000  H
  H88      1.0000 0.08500  0.97740  0.46160  Biso   1.000  H
  C71      1.0000 0.88870  0.01110  0.47670  Biso   1.000  C
  H89      1.0000 0.78850  0.00440  0.46480  Biso   1.000  H
  H90      1.0000 0.89620  0.00200  0.51510  Biso   1.000  H
  C72      1.0000 0.03790  0.06450  0.32200  Biso   1.000  C
  C73      1.0000 0.99150  0.26280  0.47310  Biso   1.000  C
  H91      1.0000 0.98580  0.23240  0.44800  Biso   1.000  H
  H92      1.0000 0.08970  0.27770  0.47230  Biso   1.000  H
  C74      1.0000 0.88210  0.30600  0.45650  Biso   1.000  C
  H93      1.0000 0.78550  0.28870  0.45520  Biso   1.000  H
  C75      1.0000 0.87480  0.35100  0.49540  Biso   1.000  C
  H94      1.0000 0.79620  0.37560  0.48490  Biso   1.000  H
  H95      1.0000 0.96580  0.37130  0.49530  Biso   1.000  H
  C76      1.0000 0.84740  0.32820  0.55410  Biso   1.000  C
  H96      1.0000 0.85600  0.35780  0.58020  Biso   1.000  H
  H97      1.0000 0.74880  0.31380  0.55570  Biso   1.000  H
  C77      1.0000 0.95360  0.28450  0.56890  Biso   1.000  C
  H98      1.0000 0.04990  0.30040  0.57440  Biso   1.000  H
  H99      1.0000 0.92490  0.26760  0.60270  Biso   1.000  H
  C78      1.0000 0.91510  0.32670  0.39700  Biso   1.000  C
  C79      1.0000 0.78840  0.05390  0.66110  Biso   1.000  C
  H100     1.0000 0.79070  0.03040  0.62940  Biso   1.000  H
  H101     1.0000 0.69620  0.04800  0.67910  Biso   1.000  H
  C80      1.0000 0.91190  0.03980  0.69890  Biso   1.000  C
  H102     1.0000 0.00520  0.04530  0.68070  Biso   1.000  H
  C81      1.0000 0.90240  0.07800  0.74830  Biso   1.000  C
  H103     1.0000 0.81100  0.07170  0.76670  Biso   1.000  H
  H104     1.0000 0.98190  0.06990  0.77380  Biso   1.000  H
  C82      1.0000 0.91100  0.13600  0.73130  Biso   1.000  C
  H105     1.0000 0.00730  0.14360  0.71730  Biso   1.000  H
  H106     1.0000 0.89590  0.15950  0.76250  Biso   1.000  H
  C83      1.0000 0.79420  0.14790  0.68740  Biso   1.000  C
  H107     1.0000 0.69830  0.14600  0.70340  Biso   1.000  H
  H108     1.0000 0.80770  0.18470  0.67390  Biso   1.000  H
  C84      1.0000 0.89560  0.98140  0.71420  Biso   1.000  C
  Gd1      1.0000 0.08031  0.85996  0.70944  Biso   1.000  Gd
  Gd2      1.0000 0.69650  0.88953  0.79039  Biso   1.000  Gd
  Gd3      1.0000 0.40866  0.06615  0.28767  Biso   1.000  Gd
  Gd4      1.0000 0.01872  0.09213  0.20519  Biso   1.000  Gd
  N1       1.0000 0.19210  0.86430  0.06560  Biso   1.000  N
  N2       1.0000 0.14990  0.77300  0.09510  Biso   1.000  N
  N3       1.0000 0.10760  0.79640  0.00150  Biso   1.000  N
  N4       1.0000 0.15550  0.88640  0.97470  Biso   1.000  N
  N5       1.0000 0.25910  0.83520  0.15090  Biso   1.000  N
  N6       1.0000 0.04260  0.71190  0.03310  Biso   1.000  N
  N7       1.0000 0.39210  0.20190  0.90810  Biso   1.000  N
  N8       1.0000 0.44490  0.19870  0.00360  Biso   1.000  N
  N9       1.0000 0.50790  0.12460  0.94650  Biso   1.000  N
  N10      1.0000 0.46360  0.13320  0.85400  Biso   1.000  N
  N11      1.0000 0.32750  0.27300  0.96440  Biso   1.000  N
  N12      1.0000 0.55790  0.11950  0.03490  Biso   1.000  N
  N13      1.0000 0.59660  0.75860  0.50780  Biso   1.000  N
  N14      1.0000 0.65440  0.75090  0.41350  Biso   1.000  N
  N15      1.0000 0.56900  0.83610  0.44810  Biso   1.000  N
  N16      1.0000 0.51680  0.84280  0.53940  Biso   1.000  N
  N17      1.0000 0.68390  0.67930  0.47000  Biso   1.000  N
  N18      1.0000 0.62120  0.82650  0.35990  Biso   1.000  N
  N19      1.0000 0.93110  0.15700  0.49650  Biso   1.000  N
  N20      1.0000 0.88060  0.17930  0.58790  Biso   1.000  N
  N21      1.0000 0.86950  0.08670  0.55840  Biso   1.000  N
  N22      1.0000 0.92060  0.06800  0.47010  Biso   1.000  N
  N23      1.0000 0.95930  0.24450  0.52760  Biso   1.000  N
  N24      1.0000 0.79990  0.11160  0.64410  Biso   1.000  N
  O1       1.0000 0.94640  0.88890  0.80040  Biso   1.000  O
  O2       1.0000 0.18920  0.88300  0.80110  Biso   1.000  O
  O3       1.0000 0.10240  0.00310  0.20320  Biso   1.000  O
  O4       1.0000 0.31300  0.98460  0.24520  Biso   1.000  O
  O5       1.0000 0.99090  0.57630  0.89240  Biso   1.000  O
  O6       1.0000 0.97530  0.66150  0.86960  Biso   1.000  O
  O7       1.0000 0.62850  0.97370  0.83760  Biso   1.000  O
  O8       1.0000 0.49450  0.95630  0.76570  Biso   1.000  O
  O9       1.0000 0.40410  0.43710  0.06620  Biso   1.000  O
  H109     1.0000 0.38890  0.45320  0.09480  Biso   1.000  H
  O10      1.0000 0.27850  0.37310  0.10490  Biso   1.000  O
  O11      1.0000 0.27500  0.09980  0.19830  Biso   1.000  O
  O12      1.0000 0.50890  0.09640  0.20420  Biso   1.000  O
  O13      1.0000 0.58860  0.85330  0.70840  Biso   1.000  O
  O14      1.0000 0.81910  0.85110  0.70210  Biso   1.000  O
  O15      1.0000 0.60990  0.58470  0.61040  Biso   1.000  O
  O16      1.0000 0.47950  0.52840  0.56530  Biso   1.000  O
  H110     1.0000 0.48220  0.51180  0.59430  Biso   1.000  H
  O17      1.0000 0.61180  0.99690  0.26340  Biso   1.000  O
  O18      1.0000 0.50010  0.98940  0.33820  Biso   1.000  O
  O19      1.0000 0.15690  0.07120  0.29920  Biso   1.000  O
  O20      1.0000 0.91960  0.06880  0.29640  Biso   1.000  O
  O21      1.0000 0.94180  0.29090  0.36310  Biso   1.000  O
  O22      1.0000 0.91300  0.37520  0.38650  Biso   1.000  O
  O23      1.0000 0.78600  0.96450  0.73910  Biso   1.000  O
  O24      1.0000 0.00060  0.94920  0.70160  Biso   1.000  O
  C85      1.0000 0.85050  0.34810  0.98360  Biso   1.000  C
  C86      1.0000 0.80680  0.32290  0.89730  Biso   1.000  C
  C87      1.0000 0.89650  0.26130  0.95640  Biso   1.000  C
  C88      1.0000 0.85460  0.36880  0.08340  Biso   1.000  C
  H111     1.0000 0.75730  0.36180  0.09670  Biso   1.000  H
  H112     1.0000 0.91050  0.33530  0.08610  Biso   1.000  H
  C89      1.0000 0.92520  0.41100  0.11670  Biso   1.000  C
  H113     1.0000 0.02630  0.41580  0.10510  Biso   1.000  H
  C90      1.0000 0.84230  0.46510  0.10940  Biso   1.000  C
  H114     1.0000 0.74440  0.46150  0.12360  Biso   1.000  H
  H115     1.0000 0.89250  0.49370  0.12960  Biso   1.000  H
  C91      1.0000 0.83370  0.47980  0.05050  Biso   1.000  C
  H116     1.0000 0.77680  0.51300  0.04640  Biso   1.000  H
  H117     1.0000 0.93170  0.48740  0.03800  Biso   1.000  H
  C92      1.0000 0.76930  0.43820  0.01620  Biso   1.000  C
  H118     1.0000 0.77670  0.44870  0.97830  Biso   1.000  H
  H119     1.0000 0.66640  0.43420  0.02440  Biso   1.000  H
  C93      1.0000 0.92560  0.39250  0.17610  Biso   1.000  C
  C94      1.0000 0.70820  0.39310  0.83360  Biso   1.000  C
  H120     1.0000 0.61150  0.39570  0.81680  Biso   1.000  H
  H121     1.0000 0.71170  0.41640  0.86540  Biso   1.000  H
  C95      1.0000 0.82150  0.40970  0.79450  Biso   1.000  C
  H122     1.0000 0.91640  0.40650  0.81340  Biso   1.000  H
  C96      1.0000 0.82680  0.37420  0.74590  Biso   1.000  C
  H123     1.0000 0.90700  0.38570  0.72330  Biso   1.000  H
  H124     1.0000 0.73670  0.37830  0.72480  Biso   1.000  H
  C97      1.0000 0.84690  0.31510  0.76100  Biso   1.000  C
  H125     1.0000 0.94590  0.30950  0.77480  Biso   1.000  H
  H126     1.0000 0.83310  0.29260  0.72890  Biso   1.000  H
  C98      1.0000 0.73890  0.29770  0.80410  Biso   1.000  C
  H127     1.0000 0.64110  0.29630  0.78810  Biso   1.000  H
  H128     1.0000 0.76380  0.26150  0.81710  Biso   1.000  H
  C99      1.0000 0.80090  0.47000  0.78000  Biso   1.000  C
  C100     1.0000 0.98760  0.17150  0.92290  Biso   1.000  C
  H129     1.0000 0.09220  0.16790  0.91790  Biso   1.000  H
  H130     1.0000 0.94290  0.18330  0.88880  Biso   1.000  H
  C101     1.0000 0.92320  0.11780  0.94040  Biso   1.000  C
  H131     1.0000 0.94400  0.09030  0.91330  Biso   1.000  H
  H132     1.0000 0.81780  0.12140  0.94240  Biso   1.000  H
  C102     1.0000 0.98380  0.09900  0.99540  Biso   1.000  C
  H133     1.0000 0.93850  0.06480  0.00540  Biso   1.000  H
  H134     1.0000 0.08840  0.09320  0.99320  Biso   1.000  H
  C103     1.0000 0.95320  0.14180  0.03810  Biso   1.000  C
  H135     1.0000 0.84670  0.14620  0.03840  Biso   1.000  H
  C104     1.0000 0.01690  0.19810  0.02160  Biso   1.000  C
  H136     1.0000 0.98920  0.22570  0.04770  Biso   1.000  H
  H137     1.0000 0.12280  0.19630  0.02090  Biso   1.000  H
  C105     1.0000 0.00000  0.12710  0.09600  Biso   1.000  C
  C106     1.0000 0.54450  0.65510  0.09710  Biso   1.000  C
  C107     1.0000 0.60850  0.72200  0.04230  Biso   1.000  C
  C108     1.0000 0.49430  0.64920  0.00520  Biso   1.000  C
  C109     1.0000 0.45510  0.58250  0.15630  Biso   1.000  C
  H138     1.0000 0.42280  0.56650  0.12210  Biso   1.000  H
  H139     1.0000 0.36930  0.59050  0.17750  Biso   1.000  H
  C110     1.0000 0.55280  0.54230  0.18720  Biso   1.000  C
  H140     1.0000 0.64200  0.53600  0.16660  Biso   1.000  H
  C111     1.0000 0.59360  0.56980  0.24190  Biso   1.000  C
  H141     1.0000 0.65660  0.54570  0.26310  Biso   1.000  H
  H142     1.0000 0.50560  0.57630  0.26230  Biso   1.000  H
  C112     1.0000 0.67390  0.62510  0.23210  Biso   1.000  C
  H143     1.0000 0.68820  0.64410  0.26640  Biso   1.000  H
  H144     1.0000 0.76920  0.61830  0.21680  Biso   1.000  H
  C113     1.0000 0.58610  0.65870  0.19470  Biso   1.000  C
  H145     1.0000 0.50140  0.67180  0.21400  Biso   1.000  H
  H146     1.0000 0.64370  0.69040  0.18500  Biso   1.000  H
  C114     1.0000 0.47320  0.48850  0.19450  Biso   1.000  C
  C115     1.0000 0.73640  0.80190  0.08390  Biso   1.000  C
  H147     1.0000 0.70930  0.78310  0.11690  Biso   1.000  H
  H148     1.0000 0.84220  0.80210  0.08200  Biso   1.000  H
  C116     1.0000 0.68140  0.85770  0.08470  Biso   1.000  C
  H149     1.0000 0.72760  0.87700  0.11500  Biso   1.000  H
  H150     1.0000 0.57700  0.85690  0.09110  Biso   1.000  H
  C117     1.0000 0.70870  0.88970  0.03210  Biso   1.000  C
  H151     1.0000 0.81260  0.89180  0.02520  Biso   1.000  H
  H152     1.0000 0.67020  0.92650  0.03480  Biso   1.000  H
  C118     1.0000 0.62880  0.85810  0.98590  Biso   1.000  C
  H153     1.0000 0.52390  0.85640  0.99310  Biso   1.000  H
  C119     1.0000 0.69340  0.79990  0.98500  Biso   1.000  C
  H154     1.0000 0.64650  0.77900  0.95600  Biso   1.000  H
  H155     1.0000 0.79720  0.80180  0.97770  Biso   1.000  H
  C120     1.0000 0.65440  0.89040  0.93250  Biso   1.000  C
  C121     1.0000 0.48130  0.63220  0.91090  Biso   1.000  C
  H156     1.0000 0.51430  0.66980  0.91030  Biso   1.000  H
  H157     1.0000 0.39350  0.63010  0.88820  Biso   1.000  H
  C122     1.0000 0.59590  0.59790  0.88510  Biso   1.000  C
  H158     1.0000 0.69170  0.60890  0.89980  Biso   1.000  H
  C123     1.0000 0.57110  0.53640  0.89900  Biso   1.000  C
  H159     1.0000 0.49730  0.52170  0.87420  Biso   1.000  H
  H160     1.0000 0.66130  0.51660  0.89320  Biso   1.000  H
  C124     1.0000 0.52470  0.52750  0.95500  Biso   1.000  C
  H161     1.0000 0.60790  0.53340  0.97940  Biso   1.000  H
  H162     1.0000 0.49480  0.48970  0.95880  Biso   1.000  H
  C125     1.0000 0.40120  0.56370  0.97220  Biso   1.000  C
  H163     1.0000 0.31410  0.55570  0.95050  Biso   1.000  H
  H164     1.0000 0.37950  0.55700  0.01010  Biso   1.000  H
  C126     1.0000 0.60100  0.59980  0.82320  Biso   1.000  C
  C127     1.0000 0.43500  0.31180  0.50190  Biso   1.000  C
  C128     1.0000 0.36270  0.23090  0.53670  Biso   1.000  C
  C129     1.0000 0.38980  0.30430  0.58990  Biso   1.000  C
  C130     1.0000 0.49570  0.40290  0.46690  Biso   1.000  C
  H165     1.0000 0.52470  0.41150  0.50400  Biso   1.000  H
  H166     1.0000 0.57030  0.41670  0.44300  Biso   1.000  H
  C131     1.0000 0.35480  0.42920  0.45360  Biso   1.000  C
  H167     1.0000 0.36280  0.46840  0.45820  Biso   1.000  H
  H168     1.0000 0.27970  0.41590  0.47760  Biso   1.000  H
  C132     1.0000 0.31350  0.41500  0.39260  Biso   1.000  C
  H169     1.0000 0.21640  0.42910  0.38430  Biso   1.000  H
  H170     1.0000 0.38150  0.43340  0.36900  Biso   1.000  H
  C133     1.0000 0.31590  0.35360  0.38000  Biso   1.000  C
  H171     1.0000 0.23120  0.33610  0.39660  Biso   1.000  H
  C134     1.0000 0.46100  0.32680  0.40380  Biso   1.000  C
  H172     1.0000 0.45400  0.28730  0.40130  Biso   1.000  H
  H173     1.0000 0.54380  0.33850  0.38270  Biso   1.000  H
  C135     1.0000 0.30050  0.35050  0.32160  Biso   1.000  C
  C136     1.0000 0.32890  0.14950  0.47710  Biso   1.000  C
  H174     1.0000 0.23560  0.13280  0.46760  Biso   1.000  H
  H175     1.0000 0.35280  0.17520  0.44860  Biso   1.000  H
  C137     1.0000 0.44070  0.10770  0.48050  Biso   1.000  C
  H176     1.0000 0.53570  0.12570  0.48530  Biso   1.000  H
  C138     1.0000 0.41860  0.06860  0.53000  Biso   1.000  C
  H177     1.0000 0.50230  0.04450  0.53390  Biso   1.000  H
  H178     1.0000 0.33210  0.04640  0.52370  Biso   1.000  H
  C139     1.0000 0.40090  0.10300  0.58330  Biso   1.000  C
  H179     1.0000 0.37560  0.07920  0.61320  Biso   1.000  H
  H180     1.0000 0.49240  0.12110  0.59260  Biso   1.000  H
  C140     1.0000 0.28070  0.14540  0.57420  Biso   1.000  C
  H181     1.0000 0.18830  0.12710  0.56670  Biso   1.000  H
  H182     1.0000 0.27010  0.16730  0.60670  Biso   1.000  H
  C141     1.0000 0.44730  0.07170  0.43010  Biso   1.000  C
  C142     1.0000 0.34830  0.29560  0.68620  Biso   1.000  C
  H183     1.0000 0.43880  0.28680  0.70540  Biso   1.000  H
  H184     1.0000 0.30130  0.26170  0.67540  Biso   1.000  H
  C143     1.0000 0.24800  0.32760  0.72380  Biso   1.000  C
  H185     1.0000 0.15320  0.33250  0.70610  Biso   1.000  H
  H186     1.0000 0.23370  0.30690  0.75690  Biso   1.000  H
  C144     1.0000 0.31260  0.38260  0.73770  Biso   1.000  C
  H187     1.0000 0.40360  0.37760  0.75800  Biso   1.000  H
  H188     1.0000 0.24570  0.40250  0.76060  Biso   1.000  H
  C145     1.0000 0.34180  0.41620  0.68630  Biso   1.000  C
  H189     1.0000 0.24820  0.42360  0.66770  Biso   1.000  H
  C146     1.0000 0.43840  0.38100  0.64800  Biso   1.000  C
  H190     1.0000 0.44530  0.39900  0.61310  Biso   1.000  H
  H191     1.0000 0.53640  0.37820  0.66360  Biso   1.000  H
  C147     1.0000 0.41560  0.46880  0.69820  Biso   1.000  C
  C148     1.0000 0.09170  0.60490  0.48960  Biso   1.000  C
  C149     1.0000 0.07800  0.69150  0.46330  Biso   1.000  C
  C150     1.0000 0.14740  0.62600  0.40430  Biso   1.000  C
  C151     1.0000 0.07380  0.58540  0.58710  Biso   1.000  C
  H192     1.0000 0.17020  0.58190  0.60400  Biso   1.000  H
  H193     1.0000 0.04490  0.62340  0.58900  Biso   1.000  H
  C152     1.0000 0.96870  0.55160  0.61670  Biso   1.000  C
  H194     1.0000 0.87120  0.55700  0.60040  Biso   1.000  H
  C153     1.0000 0.00930  0.48910  0.61300  Biso   1.000  C
  H195     1.0000 0.10400  0.48250  0.63020  Biso   1.000  H
  H196     1.0000 0.93670  0.46720  0.63120  Biso   1.000  H
  C154     1.0000 0.01320  0.47490  0.55390  Biso   1.000  C
  H197     1.0000 0.04580  0.43750  0.55010  Biso   1.000  H
  H198     1.0000 0.91500  0.47740  0.53840  Biso   1.000  H
  C155     1.0000 0.11130  0.51110  0.52330  Biso   1.000  C
  H199     1.0000 0.21150  0.50440  0.53520  Biso   1.000  H
  H200     1.0000 0.10380  0.50200  0.48490  Biso   1.000  H
  C156     1.0000 0.96210  0.56450  0.67800  Biso   1.000  C
  C157     1.0000 0.00850  0.76280  0.52690  Biso   1.000  C
  H201     1.0000 0.01420  0.73240  0.55200  Biso   1.000  H
  H202     1.0000 0.91030  0.77770  0.52770  Biso   1.000  H
  C158     1.0000 0.11790  0.80600  0.54350  Biso   1.000  C
  H203     1.0000 0.21450  0.78870  0.54480  Biso   1.000  H
  C159     1.0000 0.12520  0.85100  0.50460  Biso   1.000  C
  H204     1.0000 0.20380  0.87560  0.51510  Biso   1.000  H
  H205     1.0000 0.03420  0.87130  0.50470  Biso   1.000  H
  C160     1.0000 0.15260  0.82820  0.44590  Biso   1.000  C
  H206     1.0000 0.14400  0.85780  0.41980  Biso   1.000  H
  H207     1.0000 0.25120  0.81380  0.44430  Biso   1.000  H
  C161     1.0000 0.04640  0.78450  0.43110  Biso   1.000  C
  H208     1.0000 0.95010  0.80040  0.42560  Biso   1.000  H
  H209     1.0000 0.07510  0.76760  0.39730  Biso   1.000  H
  C162     1.0000 0.08490  0.82670  0.60300  Biso   1.000  C
  C163     1.0000 0.21160  0.55390  0.33890  Biso   1.000  C
  H210     1.0000 0.20930  0.53040  0.37060  Biso   1.000  H
  H211     1.0000 0.30380  0.54800  0.32090  Biso   1.000  H
  C164     1.0000 0.08810  0.53980  0.30110  Biso   1.000  C
  H212     1.0000 0.99480  0.54530  0.31930  Biso   1.000  H
  C165     1.0000 0.09760  0.57800  0.25170  Biso   1.000  C
  H213     1.0000 0.18900  0.57170  0.23330  Biso   1.000  H
  H214     1.0000 0.01810  0.56990  0.22620  Biso   1.000  H
  C166     1.0000 0.08900  0.63600  0.26870  Biso   1.000  C
  H215     1.0000 0.99270  0.64360  0.28270  Biso   1.000  H
  H216     1.0000 0.10410  0.65950  0.23750  Biso   1.000  H
  C167     1.0000 0.20580  0.64790  0.31260  Biso   1.000  C
  H217     1.0000 0.30170  0.64600  0.29660  Biso   1.000  H
  H218     1.0000 0.19230  0.68470  0.32610  Biso   1.000  H
  C168     1.0000 0.10440  0.48140  0.28580  Biso   1.000  C
  Gd5      1.0000 0.91969  0.35996  0.29056  Biso   1.000  Gd
  Gd6      1.0000 0.30350  0.38953  0.20961  Biso   1.000  Gd
  Gd7      1.0000 0.59134  0.56615  0.71233  Biso   1.000  Gd
  Gd8      1.0000 0.98128  0.59213  0.79481  Biso   1.000  Gd
  N25      1.0000 0.80790  0.36430  0.93440  Biso   1.000  N
  N26      1.0000 0.85010  0.27300  0.90490  Biso   1.000  N
  N27      1.0000 0.89240  0.29640  0.99850  Biso   1.000  N
  N28      1.0000 0.84450  0.38640  0.02530  Biso   1.000  N
  N29      1.0000 0.74090  0.33520  0.84910  Biso   1.000  N
  N30      1.0000 0.95740  0.21190  0.96690  Biso   1.000  N
  N31      1.0000 0.60790  0.70190  0.09190  Biso   1.000  N
  N32      1.0000 0.55510  0.69870  0.99640  Biso   1.000  N
  N33      1.0000 0.49210  0.62460  0.05350  Biso   1.000  N
  N34      1.0000 0.53640  0.63320  0.14600  Biso   1.000  N
  N35      1.0000 0.67250  0.77300  0.03560  Biso   1.000  N
  N36      1.0000 0.44210  0.61950  0.96510  Biso   1.000  N
  N37      1.0000 0.40340  0.25860  0.49220  Biso   1.000  N
  N38      1.0000 0.34560  0.25090  0.58650  Biso   1.000  N
  N39      1.0000 0.43100  0.33610  0.55190  Biso   1.000  N
  N40      1.0000 0.48320  0.34280  0.46060  Biso   1.000  N
  N41      1.0000 0.31610  0.17930  0.53000  Biso   1.000  N
  N42      1.0000 0.37880  0.32650  0.64010  Biso   1.000  N
  N43      1.0000 0.06890  0.65700  0.50350  Biso   1.000  N
  N44      1.0000 0.11940  0.67930  0.41210  Biso   1.000  N
  N45      1.0000 0.13050  0.58670  0.44160  Biso   1.000  N
  N46      1.0000 0.07940  0.56800  0.52990  Biso   1.000  N
  N47      1.0000 0.04070  0.74450  0.47240  Biso   1.000  N
  N48      1.0000 0.20010  0.61160  0.35590  Biso   1.000  N
  O25      1.0000 0.05360  0.38890  0.19960  Biso   1.000  O
  O26      1.0000 0.81080  0.38300  0.19890  Biso   1.000  O
  O27      1.0000 0.89760  0.50310  0.79680  Biso   1.000  O
  O28      1.0000 0.68700  0.48460  0.75480  Biso   1.000  O
  O29      1.0000 0.00910  0.07630  0.10760  Biso   1.000  O
  O30      1.0000 0.02470  0.16150  0.13040  Biso   1.000  O
  O31      1.0000 0.37150  0.47370  0.16240  Biso   1.000  O
  O32      1.0000 0.50550  0.45630  0.23430  Biso   1.000  O
  O33      1.0000 0.59590  0.93710  0.93380  Biso   1.000  O
  H219     1.0000 0.61110  0.95320  0.90520  Biso   1.000  H
  O34      1.0000 0.72150  0.87310  0.89510  Biso   1.000  O
  O35      1.0000 0.72500  0.59980  0.80170  Biso   1.000  O
  O36      1.0000 0.49110  0.59640  0.79580  Biso   1.000  O
  O37      1.0000 0.41140  0.35330  0.29160  Biso   1.000  O
  O38      1.0000 0.18090  0.35110  0.29790  Biso   1.000  O
  O39      1.0000 0.39010  0.08470  0.38960  Biso   1.000  O
  O40      1.0000 0.52050  0.02840  0.43470  Biso   1.000  O
  H220     1.0000 0.51780  0.01180  0.40570  Biso   1.000  H
  O41      1.0000 0.38820  0.49690  0.73660  Biso   1.000  O
  O42      1.0000 0.49990  0.48940  0.66180  Biso   1.000  O
  O43      1.0000 0.84310  0.57120  0.70080  Biso   1.000  O
  O44      1.0000 0.08040  0.56880  0.70360  Biso   1.000  O
  O45      1.0000 0.05820  0.79090  0.63690  Biso   1.000  O
  O46      1.0000 0.08700  0.87520  0.61350  Biso   1.000  O
  O47      1.0000 0.21400  0.46450  0.26090  Biso   1.000  O
  O48      1.0000 0.99940  0.44920  0.29840  Biso   1.000  O
