data_image0
_cell_length_a       16.3187
_cell_length_b       17.0365
_cell_length_c       18.9426
_cell_angle_alpha    88.412
_cell_angle_beta     70.681
_cell_angle_gamma    62.592

_symmetry_space_group_name_H-M    "P 1"
_symmetry_int_tables_number       1

loop_
  _symmetry_equiv_pos_as_xyz
  'x, y, z'

loop_
  _atom_site_label
  _atom_site_occupancy
  _atom_site_fract_x
  _atom_site_fract_y
  _atom_site_fract_z
  _atom_site_thermal_displace_type
  _atom_site_B_iso_or_equiv
  _atom_site_type_symbol
  Cd1      1.0000 0.67246  0.63001  0.44488  Biso   1.000  Cd
  Cd2      1.0000 0.76104  0.71682  0.26259  Biso   1.000  Cd
  Cd3      1.0000 0.85101  0.80512  0.07699  Biso   1.000  Cd
  O1       1.0000 0.77840  0.68220  0.37820  Biso   1.000  O
  O2       1.0000 0.69380  0.74190  0.49940  Biso   1.000  O
  O3       1.0000 0.59640  0.78030  0.31300  Biso   1.000  O
  O4       1.0000 0.57400  0.67780  0.37930  Biso   1.000  O
  O5       1.0000 0.71360  0.48650  0.39200  Biso   1.000  O
  O6       1.0000 0.78560  0.49850  0.46850  Biso   1.000  O
  O7       1.0000 0.74360  0.75120  0.14760  Biso   1.000  O
  O8       1.0000 0.83130  0.69240  0.03090  Biso   1.000  O
  O9       1.0000 0.84500  0.94210  0.04630  Biso   1.000  O
  O10      1.0000 0.71950  0.94250  0.11740  Biso   1.000  O
  O11      1.0000 0.92560  0.65850  0.20550  Biso   1.000  O
  O12      1.0000 0.93720  0.77500  0.15530  Biso   1.000  O
  N1       1.0000 0.54680  0.65410  0.55310  Biso   1.000  N
  N2       1.0000 1.00000  0.74450  0.97700  Biso   1.000  N
  C1       1.0000 0.51380  0.59520  0.57060  Biso   1.000  C
  H1       1.0000 0.54500  0.54160  0.53620  Biso   1.000  H
  C2       1.0000 0.43650  0.60790  0.63610  Biso   1.000  C
  H2       1.0000 0.41550  0.56380  0.64640  Biso   1.000  H
  C3       1.0000 0.39060  0.68500  0.68590  Biso   1.000  C
  C4       1.0000 0.42850  0.74370  0.66970  Biso   1.000  C
  H3       1.0000 0.40300  0.79620  0.70380  Biso   1.000  H
  C5       1.0000 0.50430  0.72280  0.60250  Biso   1.000  C
  H4       1.0000 0.52810  0.76480  0.59110  Biso   1.000  H
  C6       1.0000 0.30470  0.70770  0.75760  Biso   1.000  C
  H5       1.0000 0.27810  0.76390  0.78710  Biso   1.000  H
  C7       1.0000 0.26290  0.65980  0.78380  Biso   1.000  C
  H6       1.0000 0.29210  0.60180  0.75660  Biso   1.000  H
  C8       1.0000 0.17360  0.68620  0.85230  Biso   1.000  C
  C9       1.0000 0.13670  0.63260  0.88020  Biso   1.000  C
  H7       1.0000 0.17030  0.57170  0.85800  Biso   1.000  H
  C10      1.0000 0.04810  0.66550  0.94240  Biso   1.000  C
  H8       1.0000 0.02250  0.62570  0.95990  Biso   1.000  H
  C11      1.0000 0.03610  0.80150  0.95170  Biso   1.000  C
  H9       1.0000 0.00270  0.86140  0.97630  Biso   1.000  H
  C12      1.0000 0.12260  0.77080  0.88930  Biso   1.000  C
  H10      1.0000 0.14740  0.81110  0.87150  Biso   1.000  H
  C13      1.0000 0.75950  0.73330  0.43480  Biso   1.000  C
  C14      1.0000 0.81390  0.78440  0.42950  Biso   1.000  C
  C15      1.0000 0.90560  0.75470  0.37030  Biso   1.000  C
  H11      1.0000 0.93070  0.70410  0.33410  Biso   1.000  H
  C16      1.0000 0.95930  0.79980  0.36500  Biso   1.000  C
  H12      1.0000 0.02380  0.77650  0.32790  Biso   1.000  H
  C17      1.0000 0.92080  0.87730  0.41250  Biso   1.000  C
  C18      1.0000 0.82740  0.90890  0.47040  Biso   1.000  C
  H13      1.0000 0.80000  0.96240  0.50390  Biso   1.000  H
  C19      1.0000 0.77560  0.86130  0.47820  Biso   1.000  C
  H14      1.0000 0.71310  0.88220  0.51760  Biso   1.000  H
  C20      1.0000 0.97780  0.92650  0.40610  Biso   1.000  C
  C21      1.0000 0.07850  0.88230  0.39140  Biso   1.000  C
  H15      1.0000 0.11240  0.81890  0.38480  Biso   1.000  H
  C22      1.0000 0.13120  0.92870  0.38590  Biso   1.000  C
  C23      1.0000 0.08090  0.02180  0.39220  Biso   1.000  C
  H16      1.0000 0.11610  0.05410  0.38930  Biso   1.000  H
  C24      1.0000 0.98020  0.06900  0.40280  Biso   1.000  C
  C25      1.0000 0.92870  0.01990  0.41130  Biso   1.000  C
  H17      1.0000 0.85970  0.05050  0.42070  Biso   1.000  H
  C26      1.0000 0.23780  0.88180  0.37580  Biso   1.000  C
  C27      1.0000 0.27390  0.80880  0.41210  Biso   1.000  C
  H18      1.0000 0.23010  0.78930  0.44350  Biso   1.000  H
  C28      1.0000 0.37360  0.76350  0.40320  Biso   1.000  C
  H19      1.0000 0.39830  0.71220  0.42690  Biso   1.000  H
  C29      1.0000 0.43710  0.79500  0.35850  Biso   1.000  C
  C30      1.0000 0.40090  0.86840  0.32450  Biso   1.000  C
  H20      1.0000 0.44380  0.88970  0.29490  Biso   1.000  H
  C31      1.0000 0.30130  0.91240  0.33290  Biso   1.000  C
  H21      1.0000 0.27680  0.96370  0.30900  Biso   1.000  H
  C32      1.0000 0.54520  0.74660  0.34970  Biso   1.000  C
  C33      1.0000 0.92800  0.16630  0.40900  Biso   1.000  C
  C34      1.0000 0.95420  0.21990  0.44140  Biso   1.000  C
  H22      1.0000 0.00890  0.19210  0.45770  Biso   1.000  H
  C35      1.0000 0.90350  0.31120  0.45010  Biso   1.000  C
  H23      1.0000 0.91940  0.34600  0.47620  Biso   1.000  H
  C36      1.0000 0.82790  0.35350  0.42060  Biso   1.000  C
  C37      1.0000 0.80310  0.29970  0.38820  Biso   1.000  C
  H24      1.0000 0.75060  0.32670  0.36940  Biso   1.000  H
  C38      1.0000 0.85290  0.20760  0.38260  Biso   1.000  C
  H25      1.0000 0.83420  0.17260  0.35990  Biso   1.000  H
  C39      1.0000 0.77170  0.45100  0.42990  Biso   1.000  C
  C40      1.0000 0.76790  0.69920  0.08990  Biso   1.000  C
  C41      1.0000 0.71010  0.64960  0.09490  Biso   1.000  C
  C42      1.0000 0.74780  0.57700  0.04110  Biso   1.000  C
  H26      1.0000 0.80930  0.55870  0.00100  Biso   1.000  H
  C43      1.0000 0.69480  0.53030  0.04580  Biso   1.000  C
  H27      1.0000 0.72360  0.47760  0.01100  Biso   1.000  H
  C44      1.0000 0.60360  0.55870  0.09900  Biso   1.000  C
  C45      1.0000 0.56550  0.63360  0.15260  Biso   1.000  C
  H28      1.0000 0.50270  0.65360  0.19160  Biso   1.000  H
  C46      1.0000 0.61740  0.67700  0.14900  Biso   1.000  C
  H29      1.0000 0.58920  0.72850  0.18510  Biso   1.000  H
  C47      1.0000 0.54790  0.50840  0.10050  Biso   1.000  C
  C48      1.0000 0.59570  0.41680  0.09020  Biso   1.000  C
  H30      1.0000 0.66500  0.38570  0.07920  Biso   1.000  H
  C49      1.0000 0.54610  0.36790  0.09530  Biso   1.000  C
  C50      1.0000 0.44710  0.41420  0.10740  Biso   1.000  C
  H31      1.0000 0.41270  0.38130  0.10970  Biso   1.000  H
  C51      1.0000 0.39480  0.50640  0.11620  Biso   1.000  C
  C52      1.0000 0.44800  0.55360  0.11310  Biso   1.000  C
  H32      1.0000 0.41450  0.61710  0.11990  Biso   1.000  H
  C53      1.0000 0.59890  0.26870  0.09220  Biso   1.000  C
  C54      1.0000 0.69730  0.21810  0.04640  Biso   1.000  C
  H33      1.0000 0.73060  0.24590  0.01360  Biso   1.000  H
  C55      1.0000 0.74820  0.12540  0.04800  Biso   1.000  C
  H34      1.0000 0.81730  0.09240  0.02070  Biso   1.000  H
  C56      1.0000 0.69970  0.08360  0.08800  Biso   1.000  C
  C57      1.0000 0.60280  0.13300  0.13370  Biso   1.000  C
  H35      1.0000 0.56810  0.10430  0.16300  Biso   1.000  H
  C58      1.0000 0.55650  0.22310  0.13710  Biso   1.000  C
  H36      1.0000 0.49100  0.25640  0.17250  Biso   1.000  H
  C59      1.0000 0.75630  0.98240  0.08260  Biso   1.000  C
  C60      1.0000 0.28680  0.55670  0.13150  Biso   1.000  C
  C61      1.0000 0.22610  0.51830  0.16290  Biso   1.000  C
  H37      1.0000 0.25430  0.45970  0.17550  Biso   1.000  H
  C62      1.0000 0.12810  0.56270  0.17580  Biso   1.000  C
  H38      1.0000 0.08860  0.53490  0.19750  Biso   1.000  H
  C63      1.0000 0.08460  0.64810  0.15790  Biso   1.000  C
  C64      1.0000 0.14220  0.68760  0.12540  Biso   1.000  C
  H39      1.0000 0.11340  0.74540  0.11140  Biso   1.000  H
  C65      1.0000 0.24100  0.64340  0.11340  Biso   1.000  C
  H40      1.0000 0.27980  0.67180  0.09210  Biso   1.000  H
  C66      1.0000 0.97400  0.69710  0.17320  Biso   1.000  C
  Cd4      1.0000 0.32754  0.36999  0.55512  Biso   1.000  Cd
  Cd5      1.0000 0.23896  0.28318  0.73741  Biso   1.000  Cd
  Cd6      1.0000 0.14899  0.19488  0.92301  Biso   1.000  Cd
  O13      1.0000 0.22160  0.31780  0.62180  Biso   1.000  O
  O14      1.0000 0.30620  0.25810  0.50060  Biso   1.000  O
  O15      1.0000 0.40360  0.21970  0.68700  Biso   1.000  O
  O16      1.0000 0.42600  0.32220  0.62070  Biso   1.000  O
  O17      1.0000 0.28640  0.51350  0.60800  Biso   1.000  O
  O18      1.0000 0.21440  0.50150  0.53150  Biso   1.000  O
  O19      1.0000 0.25640  0.24880  0.85240  Biso   1.000  O
  O20      1.0000 0.16870  0.30760  0.96910  Biso   1.000  O
  O21      1.0000 0.15500  0.05790  0.95370  Biso   1.000  O
  O22      1.0000 0.28050  0.05750  0.88260  Biso   1.000  O
  O23      1.0000 0.07440  0.34150  0.79450  Biso   1.000  O
  O24      1.0000 0.06280  0.22500  0.84470  Biso   1.000  O
  N3       1.0000 0.45320  0.34590  0.44690  Biso   1.000  N
  N4       1.0000 0.00000  0.25550  0.02300  Biso   1.000  N
  C67      1.0000 0.48620  0.40480  0.42940  Biso   1.000  C
  H41      1.0000 0.45500  0.45840  0.46380  Biso   1.000  H
  C68      1.0000 0.56350  0.39210  0.36390  Biso   1.000  C
  H42      1.0000 0.58450  0.43620  0.35360  Biso   1.000  H
  C69      1.0000 0.60940  0.31500  0.31410  Biso   1.000  C
  C70      1.0000 0.57150  0.25630  0.33030  Biso   1.000  C
  H43      1.0000 0.59700  0.20380  0.29620  Biso   1.000  H
  C71      1.0000 0.49570  0.27720  0.39750  Biso   1.000  C
  H44      1.0000 0.47190  0.23520  0.40890  Biso   1.000  H
  C72      1.0000 0.69530  0.29230  0.24240  Biso   1.000  C
  H45      1.0000 0.72190  0.23610  0.21290  Biso   1.000  H
  C73      1.0000 0.73710  0.34020  0.21620  Biso   1.000  C
  H46      1.0000 0.70790  0.39820  0.24340  Biso   1.000  H
  C74      1.0000 0.82640  0.31380  0.14770  Biso   1.000  C
  C75      1.0000 0.86330  0.36740  0.11980  Biso   1.000  C
  H47      1.0000 0.82970  0.42830  0.14200  Biso   1.000  H
  C76      1.0000 0.95190  0.33450  0.05760  Biso   1.000  C
  H48      1.0000 0.97750  0.37430  0.04010  Biso   1.000  H
  C77      1.0000 0.96390  0.19850  0.04830  Biso   1.000  C
  H49      1.0000 0.99730  0.13860  0.02370  Biso   1.000  H
  C78      1.0000 0.87740  0.22920  0.11070  Biso   1.000  C
  H50      1.0000 0.85260  0.18890  0.12850  Biso   1.000  H
  C79      1.0000 0.24050  0.26670  0.56520  Biso   1.000  C
  C80      1.0000 0.18610  0.21560  0.57050  Biso   1.000  C
  C81      1.0000 0.09440  0.24530  0.62970  Biso   1.000  C
  H51      1.0000 0.06930  0.29590  0.66590  Biso   1.000  H
  C82      1.0000 0.04070  0.20020  0.63500  Biso   1.000  C
  H52      1.0000 0.97620  0.22350  0.67210  Biso   1.000  H
  C83      1.0000 0.07920  0.12270  0.58750  Biso   1.000  C
  C84      1.0000 0.17260  0.09110  0.52960  Biso   1.000  C
  H53      1.0000 0.20000  0.03760  0.49610  Biso   1.000  H
  C85      1.0000 0.22440  0.13870  0.52180  Biso   1.000  C
  H54      1.0000 0.28690  0.11780  0.48240  Biso   1.000  H
  C86      1.0000 0.02220  0.07350  0.59390  Biso   1.000  C
  C87      1.0000 0.92150  0.11770  0.60860  Biso   1.000  C
  H55      1.0000 0.88760  0.18110  0.61520  Biso   1.000  H
  C88      1.0000 0.86880  0.07130  0.61410  Biso   1.000  C
  C89      1.0000 0.91910  0.97820  0.60780  Biso   1.000  C
  H56      1.0000 0.88390  0.94590  0.61070  Biso   1.000  H
  C90      1.0000 0.01980  0.93100  0.59720  Biso   1.000  C
  C91      1.0000 0.07130  0.98010  0.58870  Biso   1.000  C
  H57      1.0000 0.14030  0.94950  0.57930  Biso   1.000  H
  C92      1.0000 0.76220  0.11820  0.62420  Biso   1.000  C
  C93      1.0000 0.72610  0.19120  0.58790  Biso   1.000  C
  H58      1.0000 0.76990  0.21070  0.55650  Biso   1.000  H
  C94      1.0000 0.62640  0.23650  0.59680  Biso   1.000  C
  H59      1.0000 0.60170  0.28780  0.57310  Biso   1.000  H
  C95      1.0000 0.56290  0.20500  0.64150  Biso   1.000  C
  C96      1.0000 0.59910  0.13160  0.67550  Biso   1.000  C
  H60      1.0000 0.55620  0.11030  0.70510  Biso   1.000  H
  C97      1.0000 0.69870  0.08760  0.66710  Biso   1.000  C
  H61      1.0000 0.72320  0.03630  0.69100  Biso   1.000  H
  C98      1.0000 0.45480  0.25340  0.65030  Biso   1.000  C
  C99      1.0000 0.07200  0.83370  0.59100  Biso   1.000  C
  C100     1.0000 0.04580  0.78010  0.55860  Biso   1.000  C
  H62      1.0000 0.99110  0.80790  0.54230  Biso   1.000  H
  C101     1.0000 0.09650  0.68880  0.54990  Biso   1.000  C
  H63      1.0000 0.08060  0.65400  0.52380  Biso   1.000  H
  C102     1.0000 0.17210  0.64650  0.57940  Biso   1.000  C
  C103     1.0000 0.19690  0.70030  0.61180  Biso   1.000  C
  H64      1.0000 0.24940  0.67330  0.63060  Biso   1.000  H
  C104     1.0000 0.14710  0.79240  0.61740  Biso   1.000  C
  H65      1.0000 0.16580  0.82740  0.64010  Biso   1.000  H
  C105     1.0000 0.22830  0.54900  0.57010  Biso   1.000  C
  C106     1.0000 0.23210  0.30080  0.91010  Biso   1.000  C
  C107     1.0000 0.28990  0.35040  0.90510  Biso   1.000  C
  C108     1.0000 0.25220  0.42300  0.95890  Biso   1.000  C
  H66      1.0000 0.19070  0.44130  0.99900  Biso   1.000  H
  C109     1.0000 0.30520  0.46970  0.95420  Biso   1.000  C
  H67      1.0000 0.27640  0.52240  0.98900  Biso   1.000  H
  C110     1.0000 0.39640  0.44130  0.90100  Biso   1.000  C
  C111     1.0000 0.43450  0.36640  0.84740  Biso   1.000  C
  H68      1.0000 0.49730  0.34640  0.80840  Biso   1.000  H
  C112     1.0000 0.38260  0.32300  0.85100  Biso   1.000  C
  H69      1.0000 0.41080  0.27150  0.81490  Biso   1.000  H
  C113     1.0000 0.45210  0.49160  0.89950  Biso   1.000  C
  C114     1.0000 0.40430  0.58320  0.90980  Biso   1.000  C
  H70      1.0000 0.33500  0.61430  0.92080  Biso   1.000  H
  C115     1.0000 0.45390  0.63210  0.90470  Biso   1.000  C
  C116     1.0000 0.55290  0.58580  0.89260  Biso   1.000  C
  H71      1.0000 0.58730  0.61870  0.89030  Biso   1.000  H
  C117     1.0000 0.60520  0.49360  0.88380  Biso   1.000  C
  C118     1.0000 0.55200  0.44640  0.88690  Biso   1.000  C
  H72      1.0000 0.58550  0.38290  0.88010  Biso   1.000  H
  C119     1.0000 0.40110  0.73130  0.90780  Biso   1.000  C
  C120     1.0000 0.30270  0.78190  0.95360  Biso   1.000  C
  H73      1.0000 0.26940  0.75410  0.98640  Biso   1.000  H
  C121     1.0000 0.25180  0.87460  0.95200  Biso   1.000  C
  H74      1.0000 0.18270  0.90760  0.97930  Biso   1.000  H
  C122     1.0000 0.30030  0.91640  0.91200  Biso   1.000  C
  C123     1.0000 0.39720  0.86700  0.86630  Biso   1.000  C
  H75      1.0000 0.43190  0.89570  0.83700  Biso   1.000  H
  C124     1.0000 0.44350  0.77690  0.86290  Biso   1.000  C
  H76      1.0000 0.50900  0.74360  0.82750  Biso   1.000  H
  C125     1.0000 0.24370  0.01760  0.91740  Biso   1.000  C
  C126     1.0000 0.71320  0.44330  0.86850  Biso   1.000  C
  C127     1.0000 0.77390  0.48170  0.83710  Biso   1.000  C
  H77      1.0000 0.74570  0.54030  0.82450  Biso   1.000  H
  C128     1.0000 0.87190  0.43730  0.82420  Biso   1.000  C
  H78      1.0000 0.91140  0.46510  0.80250  Biso   1.000  H
  C129     1.0000 0.91540  0.35190  0.84210  Biso   1.000  C
  C130     1.0000 0.85780  0.31240  0.87460  Biso   1.000  C
  H79      1.0000 0.88660  0.25460  0.88860  Biso   1.000  H
  C131     1.0000 0.75900  0.35660  0.88660  Biso   1.000  C
  H80      1.0000 0.72020  0.32820  0.90790  Biso   1.000  H
  C132     1.0000 0.02600  0.30290  0.82680  Biso   1.000  C
