data_image0
_cell_length_a       16.4918
_cell_length_b       16.8382
_cell_length_c       18.4883
_cell_angle_alpha    69.539
_cell_angle_beta     66.786
_cell_angle_gamma    63.792

_symmetry_space_group_name_H-M    "P 1"
_symmetry_int_tables_number       1

loop_
  _symmetry_equiv_pos_as_xyz
  'x, y, z'

loop_
  _atom_site_label
  _atom_site_occupancy
  _atom_site_fract_x
  _atom_site_fract_y
  _atom_site_fract_z
  _atom_site_thermal_displace_type
  _atom_site_B_iso_or_equiv
  _atom_site_type_symbol
  Cd1      1.0000 0.52168  0.22466  0.54501  Biso   1.000  Cd
  Cd2      1.0000 0.44475  0.29490  0.74787  Biso   1.000  Cd
  Cd3      1.0000 0.37417  0.37397  0.93916  Biso   1.000  Cd
  O1       1.0000 0.57910  0.34380  0.50400  Biso   1.000  O
  O2       1.0000 0.56170  0.26990  0.62970  Biso   1.000  O
  O3       1.0000 0.33590  0.35030  0.68520  Biso   1.000  O
  O4       1.0000 0.36730  0.27280  0.59530  Biso   1.000  O
  O5       1.0000 0.65340  0.09380  0.56370  Biso   1.000  O
  O6       1.0000 0.53480  0.07800  0.54960  Biso   1.000  O
  O7       1.0000 0.55200  0.23070  0.81520  Biso   1.000  O
  O8       1.0000 0.52830  0.33430  0.87730  Biso   1.000  O
  O9       1.0000 0.32420  0.32620  0.86660  Biso   1.000  O
  O10      1.0000 0.30520  0.25990  0.99440  Biso   1.000  O
  O11      1.0000 0.23950  0.50170  0.95980  Biso   1.000  O
  O12      1.0000 0.37080  0.52360  0.88130  Biso   1.000  O
  N1       1.0000 0.52890  0.25700  0.40930  Biso   1.000  N
  N2       1.0000 0.40880  0.34650  0.05480  Biso   1.000  N
  C1       1.0000 0.50580  0.34090  0.36560  Biso   1.000  C
  H1       1.0000 0.50400  0.38790  0.38400  Biso   1.000  H
  C2       1.0000 0.48410  0.36300  0.29370  Biso   1.000  C
  H2       1.0000 0.46720  0.42400  0.26470  Biso   1.000  H
  C3       1.0000 0.48710  0.29650  0.26470  Biso   1.000  C
  C4       1.0000 0.51800  0.20770  0.30760  Biso   1.000  C
  H3       1.0000 0.52610  0.15890  0.28770  Biso   1.000  H
  C5       1.0000 0.53690  0.19080  0.37940  Biso   1.000  C
  H4       1.0000 0.55630  0.13000  0.40860  Biso   1.000  H
  C6       1.0000 0.45920  0.31660  0.19220  Biso   1.000  C
  C7       1.0000 0.48030  0.38090  0.12390  Biso   1.000  C
  H5       1.0000 0.51240  0.41640  0.12300  Biso   1.000  H
  C8       1.0000 0.45480  0.39300  0.05750  Biso   1.000  C
  H6       1.0000 0.47070  0.43690  0.01110  Biso   1.000  H
  C9       1.0000 0.38890  0.28410  0.11950  Biso   1.000  C
  H7       1.0000 0.35780  0.24930  0.11740  Biso   1.000  H
  C10      1.0000 0.41050  0.26680  0.18890  Biso   1.000  C
  H8       1.0000 0.39330  0.22240  0.23410  Biso   1.000  H
  C11      1.0000 0.58850  0.33000  0.57060  Biso   1.000  C
  C12      1.0000 0.63910  0.37740  0.58170  Biso   1.000  C
  C13      1.0000 0.68320  0.33950  0.64360  Biso   1.000  C
  H9       1.0000 0.67950  0.28390  0.67920  Biso   1.000  H
  C14      1.0000 0.73170  0.38270  0.65310  Biso   1.000  C
  H10      1.0000 0.76180  0.35650  0.69470  Biso   1.000  H
  C15      1.0000 0.73630  0.46490  0.60130  Biso   1.000  C
  C16      1.0000 0.69100  0.50270  0.54030  Biso   1.000  C
  H11      1.0000 0.69330  0.55910  0.50540  Biso   1.000  H
  C17      1.0000 0.64340  0.45930  0.53050  Biso   1.000  C
  H12      1.0000 0.61370  0.48530  0.48870  Biso   1.000  H
  C18      1.0000 0.79030  0.51350  0.60550  Biso   1.000  C
  C19      1.0000 0.88080  0.46740  0.61680  Biso   1.000  C
  H13      1.0000 0.90670  0.40320  0.62630  Biso   1.000  H
  C20      1.0000 0.93290  0.51590  0.61400  Biso   1.000  C
  C21      1.0000 0.89220  0.60920  0.60170  Biso   1.000  C
  H14      1.0000 0.92780  0.64230  0.59890  Biso   1.000  H
  C22      1.0000 0.80200  0.65690  0.59320  Biso   1.000  C
  C23      1.0000 0.75290  0.60630  0.59500  Biso   1.000  C
  H15      1.0000 0.69130  0.63730  0.58860  Biso   1.000  H
  C24      1.0000 0.02880  0.46610  0.62270  Biso   1.000  C
  C25      1.0000 0.08410  0.38220  0.60220  Biso   1.000  C
  H16      1.0000 0.05920  0.35540  0.58260  Biso   1.000  H
  C26      1.0000 0.17420  0.33690  0.60980  Biso   1.000  C
  H17      1.0000 0.20980  0.27960  0.59550  Biso   1.000  H
  C27      1.0000 0.21380  0.37300  0.63770  Biso   1.000  C
  C28      1.0000 0.15930  0.45590  0.66120  Biso   1.000  C
  H18      1.0000 0.18420  0.48060  0.68300  Biso   1.000  H
  C29      1.0000 0.06860  0.50240  0.65280  Biso   1.000  C
  H19      1.0000 0.03290  0.55950  0.66760  Biso   1.000  H
  C30      1.0000 0.31370  0.32850  0.64070  Biso   1.000  C
  C31      1.0000 0.75740  0.75770  0.58230  Biso   1.000  C
  C32      1.0000 0.78470  0.80600  0.60930  Biso   1.000  C
  H20      1.0000 0.83370  0.77510  0.63470  Biso   1.000  H
  C33      1.0000 0.74120  0.89920  0.59970  Biso   1.000  C
  H21      1.0000 0.76190  0.93210  0.61700  Biso   1.000  H
  C34      1.0000 0.66690  0.94500  0.56490  Biso   1.000  C
  C35      1.0000 0.63990  0.89640  0.53780  Biso   1.000  C
  H22      1.0000 0.58920  0.92650  0.51440  Biso   1.000  H
  C36      1.0000 0.68640  0.80440  0.54470  Biso   1.000  C
  H23      1.0000 0.66930  0.77230  0.52330  Biso   1.000  H
  C37      1.0000 0.61530  0.04550  0.55880  Biso   1.000  C
  C38      1.0000 0.57820  0.26450  0.84940  Biso   1.000  C
  C39      1.0000 0.67690  0.21590  0.85720  Biso   1.000  C
  C40      1.0000 0.70620  0.24500  0.90140  Biso   1.000  C
  H24      1.0000 0.66450  0.29500  0.92630  Biso   1.000  H
  C41      1.0000 0.79620  0.20050  0.90850  Biso   1.000  C
  H25      1.0000 0.81570  0.21950  0.93960  Biso   1.000  H
  C42      1.0000 0.85980  0.12790  0.87130  Biso   1.000  C
  C43      1.0000 0.82930  0.10140  0.82650  Biso   1.000  C
  H26      1.0000 0.87130  0.05270  0.80000  Biso   1.000  H
  C44      1.0000 0.73890  0.14490  0.81990  Biso   1.000  C
  H27      1.0000 0.71900  0.12560  0.78920  Biso   1.000  H
  C45      1.0000 0.95690  0.08030  0.87960  Biso   1.000  C
  C46      1.0000 0.00640  0.12610  0.88540  Biso   1.000  C
  H28      1.0000 0.97740  0.18960  0.88230  Biso   1.000  H
  C47      1.0000 0.09560  0.08290  0.89550  Biso   1.000  C
  C48      1.0000 0.13850  0.98730  0.89960  Biso   1.000  C
  H29      1.0000 0.19970  0.95580  0.90690  Biso   1.000  H
  C49      1.0000 0.09140  0.93970  0.89300  Biso   1.000  C
  C50      1.0000 0.00030  0.98640  0.88370  Biso   1.000  C
  H30      1.0000 0.96760  0.95410  0.88010  Biso   1.000  H
  C51      1.0000 0.14640  0.13190  0.90210  Biso   1.000  C
  C52      1.0000 0.14890  0.21350  0.85150  Biso   1.000  C
  H31      1.0000 0.11700  0.23920  0.81110  Biso   1.000  H
  C53      1.0000 0.19760  0.25920  0.85840  Biso   1.000  C
  H32      1.0000 0.20080  0.31430  0.82150  Biso   1.000  H
  C54      1.0000 0.24160  0.22400  0.91930  Biso   1.000  C
  C55      1.0000 0.23870  0.14140  0.97130  Biso   1.000  C
  H33      1.0000 0.26880  0.11680  0.01270  Biso   1.000  H
  C56      1.0000 0.19250  0.09520  0.96330  Biso   1.000  C
  H34      1.0000 0.19170  0.03870  0.99860  Biso   1.000  H
  C57      1.0000 0.29230  0.27210  0.92780  Biso   1.000  C
  C58      1.0000 0.13890  0.84150  0.89560  Biso   1.000  C
  C59      1.0000 0.23350  0.80590  0.85610  Biso   1.000  C
  H35      1.0000 0.26710  0.84590  0.82400  Biso   1.000  H
  C60      1.0000 0.28100  0.71260  0.86210  Biso   1.000  C
  H36      1.0000 0.34640  0.68940  0.83530  Biso   1.000  H
  C61      1.0000 0.23140  0.65370  0.90800  Biso   1.000  C
  C62      1.0000 0.13580  0.68920  0.94430  Biso   1.000  C
  H37      1.0000 0.10120  0.64960  0.97390  Biso   1.000  H
  C63      1.0000 0.08950  0.78220  0.93800  Biso   1.000  C
  H38      1.0000 0.02360  0.80550  0.96290  Biso   1.000  H
  C64      1.0000 0.28320  0.55460  0.91600  Biso   1.000  C
  Cd4      1.0000 0.47832  0.77534  0.45499  Biso   1.000  Cd
  Cd5      1.0000 0.55525  0.70510  0.25213  Biso   1.000  Cd
  Cd6      1.0000 0.62583  0.62603  0.06084  Biso   1.000  Cd
  O13      1.0000 0.42090  0.65620  0.49600  Biso   1.000  O
  O14      1.0000 0.43830  0.73010  0.37030  Biso   1.000  O
  O15      1.0000 0.66410  0.64970  0.31480  Biso   1.000  O
  O16      1.0000 0.63270  0.72720  0.40470  Biso   1.000  O
  O17      1.0000 0.34660  0.90620  0.43630  Biso   1.000  O
  O18      1.0000 0.46520  0.92200  0.45040  Biso   1.000  O
  O19      1.0000 0.44800  0.76930  0.18480  Biso   1.000  O
  O20      1.0000 0.47170  0.66570  0.12270  Biso   1.000  O
  O21      1.0000 0.67580  0.67380  0.13340  Biso   1.000  O
  O22      1.0000 0.69480  0.74010  0.00560  Biso   1.000  O
  O23      1.0000 0.76050  0.49830  0.04020  Biso   1.000  O
  O24      1.0000 0.62920  0.47640  0.11870  Biso   1.000  O
  N3       1.0000 0.47110  0.74300  0.59070  Biso   1.000  N
  N4       1.0000 0.59120  0.65350  0.94520  Biso   1.000  N
  C65      1.0000 0.49420  0.65910  0.63440  Biso   1.000  C
  H39      1.0000 0.49600  0.61210  0.61600  Biso   1.000  H
  C66      1.0000 0.51590  0.63700  0.70630  Biso   1.000  C
  H40      1.0000 0.53280  0.57600  0.73530  Biso   1.000  H
  C67      1.0000 0.51290  0.70350  0.73530  Biso   1.000  C
  C68      1.0000 0.48200  0.79230  0.69240  Biso   1.000  C
  H41      1.0000 0.47390  0.84110  0.71230  Biso   1.000  H
  C69      1.0000 0.46310  0.80920  0.62060  Biso   1.000  C
  H42      1.0000 0.44370  0.87000  0.59140  Biso   1.000  H
  C70      1.0000 0.54080  0.68340  0.80780  Biso   1.000  C
  C71      1.0000 0.51970  0.61910  0.87610  Biso   1.000  C
  H43      1.0000 0.48760  0.58360  0.87700  Biso   1.000  H
  C72      1.0000 0.54520  0.60700  0.94250  Biso   1.000  C
  H44      1.0000 0.52930  0.56310  0.98890  Biso   1.000  H
  C73      1.0000 0.61110  0.71590  0.88050  Biso   1.000  C
  H45      1.0000 0.64220  0.75070  0.88260  Biso   1.000  H
  C74      1.0000 0.58950  0.73320  0.81110  Biso   1.000  C
  H46      1.0000 0.60670  0.77760  0.76590  Biso   1.000  H
  C75      1.0000 0.41150  0.67000  0.42940  Biso   1.000  C
  C76      1.0000 0.36090  0.62260  0.41830  Biso   1.000  C
  C77      1.0000 0.31680  0.66050  0.35640  Biso   1.000  C
  H47      1.0000 0.32050  0.71610  0.32080  Biso   1.000  H
  C78      1.0000 0.26830  0.61730  0.34690  Biso   1.000  C
  H48      1.0000 0.23820  0.64350  0.30530  Biso   1.000  H
  C79      1.0000 0.26370  0.53510  0.39870  Biso   1.000  C
  C80      1.0000 0.30900  0.49730  0.45970  Biso   1.000  C
  H49      1.0000 0.30670  0.44090  0.49460  Biso   1.000  H
  C81      1.0000 0.35660  0.54070  0.46950  Biso   1.000  C
  H50      1.0000 0.38630  0.51470  0.51130  Biso   1.000  H
  C82      1.0000 0.20970  0.48650  0.39450  Biso   1.000  C
  C83      1.0000 0.11920  0.53260  0.38320  Biso   1.000  C
  H51      1.0000 0.09330  0.59680  0.37370  Biso   1.000  H
  C84      1.0000 0.06710  0.48410  0.38600  Biso   1.000  C
  C85      1.0000 0.10780  0.39080  0.39830  Biso   1.000  C
  H52      1.0000 0.07220  0.35770  0.40110  Biso   1.000  H
  C86      1.0000 0.19800  0.34310  0.40680  Biso   1.000  C
  C87      1.0000 0.24710  0.39370  0.40500  Biso   1.000  C
  H53      1.0000 0.30870  0.36270  0.41140  Biso   1.000  H
  C88      1.0000 0.97120  0.53390  0.37730  Biso   1.000  C
  C89      1.0000 0.91590  0.61780  0.39780  Biso   1.000  C
  H54      1.0000 0.94080  0.64460  0.41740  Biso   1.000  H
  C90      1.0000 0.82580  0.66310  0.39020  Biso   1.000  C
  H55      1.0000 0.79020  0.72040  0.40450  Biso   1.000  H
  C91      1.0000 0.78620  0.62700  0.36230  Biso   1.000  C
  C92      1.0000 0.84070  0.54410  0.33880  Biso   1.000  C
  H56      1.0000 0.81580  0.51940  0.31700  Biso   1.000  H
  C93      1.0000 0.93140  0.49760  0.34720  Biso   1.000  C
  H57      1.0000 0.96710  0.44050  0.33240  Biso   1.000  H
  C94      1.0000 0.68630  0.67150  0.35930  Biso   1.000  C
  C95      1.0000 0.24260  0.24230  0.41770  Biso   1.000  C
  C96      1.0000 0.21530  0.19400  0.39070  Biso   1.000  C
  H58      1.0000 0.16630  0.22490  0.36530  Biso   1.000  H
  C97      1.0000 0.25880  0.10080  0.40030  Biso   1.000  C
  H59      1.0000 0.23810  0.06790  0.38300  Biso   1.000  H
  C98      1.0000 0.33310  0.05500  0.43510  Biso   1.000  C
  C99      1.0000 0.36010  0.10360  0.46220  Biso   1.000  C
  H60      1.0000 0.41080  0.07350  0.48560  Biso   1.000  H
  C100     1.0000 0.31360  0.19560  0.45530  Biso   1.000  C
  H61      1.0000 0.33070  0.22770  0.47670  Biso   1.000  H
  C101     1.0000 0.38470  0.95450  0.44120  Biso   1.000  C
  C102     1.0000 0.42180  0.73550  0.15060  Biso   1.000  C
  C103     1.0000 0.32310  0.78410  0.14280  Biso   1.000  C
  C104     1.0000 0.29380  0.75500  0.09860  Biso   1.000  C
  H62      1.0000 0.33550  0.70500  0.07370  Biso   1.000  H
  C105     1.0000 0.20380  0.79950  0.09150  Biso   1.000  C
  H63      1.0000 0.18430  0.78050  0.06040  Biso   1.000  H
  C106     1.0000 0.14020  0.87210  0.12870  Biso   1.000  C
  C107     1.0000 0.17070  0.89860  0.17350  Biso   1.000  C
  H64      1.0000 0.12870  0.94730  0.20000  Biso   1.000  H
  C108     1.0000 0.26110  0.85510  0.18010  Biso   1.000  C
  H65      1.0000 0.28100  0.87440  0.21080  Biso   1.000  H
  C109     1.0000 0.04310  0.91970  0.12040  Biso   1.000  C
  C110     1.0000 0.99360  0.87390  0.11460  Biso   1.000  C
  H66      1.0000 0.02260  0.81040  0.11770  Biso   1.000  H
  C111     1.0000 0.90440  0.91710  0.10450  Biso   1.000  C
  C112     1.0000 0.86150  0.01270  0.10040  Biso   1.000  C
  H67      1.0000 0.80030  0.04420  0.09310  Biso   1.000  H
  C113     1.0000 0.90860  0.06030  0.10700  Biso   1.000  C
  C114     1.0000 0.99970  0.01360  0.11630  Biso   1.000  C
  H68      1.0000 0.03240  0.04590  0.11990  Biso   1.000  H
  C115     1.0000 0.85360  0.86810  0.09790  Biso   1.000  C
  C116     1.0000 0.85110  0.78650  0.14850  Biso   1.000  C
  H69      1.0000 0.88300  0.76080  0.18890  Biso   1.000  H
  C117     1.0000 0.80240  0.74080  0.14160  Biso   1.000  C
  H70      1.0000 0.79920  0.68570  0.17850  Biso   1.000  H
  C118     1.0000 0.75840  0.77600  0.08070  Biso   1.000  C
  C119     1.0000 0.76130  0.85860  0.02870  Biso   1.000  C
  H71      1.0000 0.73120  0.88320  0.98730  Biso   1.000  H
  C120     1.0000 0.80750  0.90480  0.03670  Biso   1.000  C
  H72      1.0000 0.80830  0.96130  0.00140  Biso   1.000  H
  C121     1.0000 0.70770  0.72790  0.07220  Biso   1.000  C
  C122     1.0000 0.86110  0.15850  0.10440  Biso   1.000  C
  C123     1.0000 0.76650  0.19410  0.14390  Biso   1.000  C
  H73      1.0000 0.73290  0.15410  0.17600  Biso   1.000  H
  C124     1.0000 0.71900  0.28740  0.13790  Biso   1.000  C
  H74      1.0000 0.65360  0.31060  0.16470  Biso   1.000  H
  C125     1.0000 0.76860  0.34630  0.09200  Biso   1.000  C
  C126     1.0000 0.86420  0.31080  0.05570  Biso   1.000  C
  H75      1.0000 0.89880  0.35040  0.02610  Biso   1.000  H
  C127     1.0000 0.91050  0.21780  0.06200  Biso   1.000  C
  H76      1.0000 0.97640  0.19450  0.03710  Biso   1.000  H
  C128     1.0000 0.71680  0.44540  0.08400  Biso   1.000  C
