data_image0
_cell_length_a       8.0769
_cell_length_b       10.8723
_cell_length_c       12.909
_cell_angle_alpha    101.511
_cell_angle_beta     96.399
_cell_angle_gamma    109.817

_symmetry_space_group_name_H-M    "P 1"
_symmetry_int_tables_number       1

loop_
  _symmetry_equiv_pos_as_xyz
  'x, y, z'

loop_
  _atom_site_label
  _atom_site_occupancy
  _atom_site_fract_x
  _atom_site_fract_y
  _atom_site_fract_z
  _atom_site_thermal_displace_type
  _atom_site_B_iso_or_equiv
  _atom_site_type_symbol
  Zn1      1.0000 0.51291  0.64882  0.49816  Biso   1.000  Zn
  Zn2      1.0000 0.10138  0.36887  0.47758  Biso   1.000  Zn
  O1       1.0000 0.32900  0.45190  0.43680  Biso   1.000  O
  H1       1.0000 0.31100  0.41900  0.37000  Biso   1.000  H
  Cl1      1.0000 0.43630  0.90550  0.01390  Biso   1.000  Cl
  N1       1.0000 0.64090  0.98920  0.41110  Biso   1.000  N
  H2       1.0000 0.74400  0.04700  0.39900  Biso   1.000  H
  H3       1.0000 0.68200  0.96400  0.46900  Biso   1.000  H
  N2       1.0000 0.36230  0.75540  0.42800  Biso   1.000  N
  H4       1.0000 0.24200  0.71900  0.42200  Biso   1.000  H
  H5       1.0000 0.39600  0.82200  0.49000  Biso   1.000  H
  C1       1.0000 0.52000  0.89970  0.31880  Biso   1.000  C
  C2       1.0000 0.37890  0.78600  0.32660  Biso   1.000  C
  C3       1.0000 0.25640  0.69950  0.23410  Biso   1.000  C
  H6       1.0000 0.16290  0.62090  0.23950  Biso   1.000  H
  C4       1.0000 0.26990  0.72710  0.13470  Biso   1.000  C
  H7       1.0000 0.18540  0.66830  0.07210  Biso   1.000  H
  C5       1.0000 0.40630  0.84020  0.12690  Biso   1.000  C
  C6       1.0000 0.53310  0.92670  0.21830  Biso   1.000  C
  H8       1.0000 0.62800  0.00370  0.21170  Biso   1.000  H
  O2       1.0000 0.01710  0.17380  0.39410  Biso   1.000  O
  O3       1.0000 0.28780  0.16080  0.42710  Biso   1.000  O
  C7       1.0000 0.12610  0.11170  0.38290  Biso   1.000  C
  C8       1.0000 0.05240  0.96830  0.31750  Biso   1.000  C
  H9       1.0000 0.07300  0.96520  0.24380  Biso   1.000  H
  H10      1.0000 0.92330  0.92900  0.31610  Biso   1.000  H
  H11      1.0000 0.11270  0.91660  0.34980  Biso   1.000  H
  O4       1.0000 0.86780  0.38560  0.44060  Biso   1.000  O
  O5       1.0000 0.58810  0.32300  0.35580  Biso   1.000  O
  C9       1.0000 0.74860  0.33990  0.35380  Biso   1.000  C
  C10      1.0000 0.80670  0.31040  0.24820  Biso   1.000  C
  H12      1.0000 0.70410  0.28290  0.18900  Biso   1.000  H
  H13      1.0000 0.85260  0.23730  0.24510  Biso   1.000  H
  H14      1.0000 0.90140  0.39170  0.24160  Biso   1.000  H
  O6       1.0000 0.10700  0.36170  0.62950  Biso   1.000  O
  O7       1.0000 0.38830  0.37020  0.64540  Biso   1.000  O
  C11      1.0000 0.25200  0.36650  0.68210  Biso   1.000  C
  C12      1.0000 0.26000  0.37030  0.79930  Biso   1.000  C
  H15      1.0000 0.35500  0.34010  0.82450  Biso   1.000  H
  H16      1.0000 0.14450  0.31040  0.80940  Biso   1.000  H
  H17      1.0000 0.28580  0.46290  0.84060  Biso   1.000  H
  Cl2      1.0000 0.10900  0.59490  0.02200  Biso   1.000  Cl
  H18      1.0000 0.41450  0.85980  0.05880  Biso   1.000  H
  Zn3      1.0000 0.48709  0.35118  0.50184  Biso   1.000  Zn
  Zn4      1.0000 0.89862  0.63113  0.52242  Biso   1.000  Zn
  O8       1.0000 0.67100  0.54810  0.56320  Biso   1.000  O
  H19      1.0000 0.68900  0.58100  0.63000  Biso   1.000  H
  Cl3      1.0000 0.56370  0.09450  0.98610  Biso   1.000  Cl
  N3       1.0000 0.35910  0.01080  0.58890  Biso   1.000  N
  H20      1.0000 0.25600  0.95300  0.60100  Biso   1.000  H
  H21      1.0000 0.31800  0.03600  0.53100  Biso   1.000  H
  N4       1.0000 0.63770  0.24460  0.57200  Biso   1.000  N
  H22      1.0000 0.75800  0.28100  0.57800  Biso   1.000  H
  H23      1.0000 0.60400  0.17800  0.51000  Biso   1.000  H
  C13      1.0000 0.48000  0.10030  0.68120  Biso   1.000  C
  C14      1.0000 0.62110  0.21400  0.67340  Biso   1.000  C
  C15      1.0000 0.74360  0.30050  0.76590  Biso   1.000  C
  H24      1.0000 0.83710  0.37910  0.76050  Biso   1.000  H
  C16      1.0000 0.73010  0.27290  0.86530  Biso   1.000  C
  H25      1.0000 0.81460  0.33170  0.92790  Biso   1.000  H
  C17      1.0000 0.59370  0.15980  0.87310  Biso   1.000  C
  C18      1.0000 0.46690  0.07330  0.78170  Biso   1.000  C
  H26      1.0000 0.37200  0.99630  0.78830  Biso   1.000  H
  O9       1.0000 0.98290  0.82620  0.60590  Biso   1.000  O
  O10      1.0000 0.71220  0.83920  0.57290  Biso   1.000  O
  C19      1.0000 0.87390  0.88830  0.61710  Biso   1.000  C
  C20      1.0000 0.94760  0.03170  0.68250  Biso   1.000  C
  H27      1.0000 0.92700  0.03480  0.75620  Biso   1.000  H
  H28      1.0000 0.07670  0.07100  0.68390  Biso   1.000  H
  H29      1.0000 0.88730  0.08340  0.65020  Biso   1.000  H
  O11      1.0000 0.13220  0.61440  0.55940  Biso   1.000  O
  O12      1.0000 0.41190  0.67700  0.64420  Biso   1.000  O
  C21      1.0000 0.25140  0.66010  0.64620  Biso   1.000  C
  C22      1.0000 0.19330  0.68960  0.75180  Biso   1.000  C
  H30      1.0000 0.29590  0.71710  0.81100  Biso   1.000  H
  H31      1.0000 0.14740  0.76270  0.75490  Biso   1.000  H
  H32      1.0000 0.09860  0.60830  0.75840  Biso   1.000  H
  O13      1.0000 0.89300  0.63830  0.37050  Biso   1.000  O
  O14      1.0000 0.61170  0.62980  0.35460  Biso   1.000  O
  C23      1.0000 0.74800  0.63350  0.31790  Biso   1.000  C
  C24      1.0000 0.74000  0.62970  0.20070  Biso   1.000  C
  H33      1.0000 0.64500  0.65990  0.17550  Biso   1.000  H
  H34      1.0000 0.85550  0.68960  0.19060  Biso   1.000  H
  H35      1.0000 0.71420  0.53710  0.15940  Biso   1.000  H
  Cl4      1.0000 0.89100  0.40510  0.97800  Biso   1.000  Cl
  H36      1.0000 0.58550  0.14020  0.94120  Biso   1.000  H
