data_FOHCIP_clean
_audit_creation_date              2014-07-02
_audit_creation_method            'Materials Studio'
_symmetry_space_group_name_H-M    'P1'
_symmetry_Int_Tables_number       1
_symmetry_cell_setting            triclinic
loop_
_symmetry_equiv_pos_as_xyz
  x,y,z
_cell_length_a                    7.7670
_cell_length_b                    16.2440
_cell_length_c                    15.3043
_cell_angle_alpha                 90.0000
_cell_angle_beta                  90.0000
_cell_angle_gamma                 90.0000
loop_
_atom_site_label
_atom_site_type_symbol
_atom_site_fract_x
_atom_site_fract_y
_atom_site_fract_z
_atom_site_U_iso_or_equiv
_atom_site_adp_type
_atom_site_occupancy
Cd1    Cd    0.49298   0.37922   0.75983   0.01267  Uiso   1.00
Cd2    Cd    0.50702   0.62078   0.25983   0.01267  Uiso   1.00
Cd3    Cd    0.00702   0.87922   0.75983   0.01267  Uiso   1.00
Cd4    Cd    0.99298   0.12078   0.25983   0.01267  Uiso   1.00
Hg1    Hg    0.95951   0.57107   0.56483   0.01267  Uiso   1.00
Hg2    Hg    0.04049   0.42893   0.06483   0.01267  Uiso   1.00
Hg3    Hg    0.54049   0.07107   0.56483   0.01267  Uiso   1.00
Hg4    Hg    0.45951   0.92893   0.06483   0.01267  Uiso   1.00
C1     C     0.33000   0.49790   0.59580   0.01267  Uiso   1.00
C2     C     0.85100   0.75520   0.59530   0.01267  Uiso   1.00
C3     C     0.70100   0.50690   0.42150   0.01267  Uiso   1.00
C4     C     0.84460   0.50300   0.75310   0.01267  Uiso   1.00
C5     C     0.67000   0.50210   0.09580   0.01267  Uiso   1.00
C6     C     0.14900   0.24480   0.09530   0.01267  Uiso   1.00
C7     C     0.29900   0.49310   0.92150   0.01267  Uiso   1.00
C8     C     0.15540   0.49700   0.25310   0.01267  Uiso   1.00
C9     C     0.17000   0.99790   0.59580   0.01267  Uiso   1.00
C10    C     0.64900   0.25520   0.59530   0.01267  Uiso   1.00
C11    C     0.79900   0.00690   0.42150   0.01267  Uiso   1.00
C12    C     0.65540   0.00300   0.75310   0.01267  Uiso   1.00
C13    C     0.83000   0.00210   0.09580   0.01267  Uiso   1.00
C14    C     0.35100   0.74480   0.09530   0.01267  Uiso   1.00
C15    C     0.20100   0.99310   0.92150   0.01267  Uiso   1.00
C16    C     0.34460   0.99700   0.25310   0.01267  Uiso   1.00
S1     S     0.26560   0.55330   0.51190   0.01267  Uiso   1.00
S2     S     0.77020   0.45350   0.50560   0.01267  Uiso   1.00
S3     S     0.98640   0.57400   0.72960   0.01267  Uiso   1.00
S4     S     0.79520   0.69580   0.51270   0.01267  Uiso   1.00
S5     S     0.73440   0.44670   0.01190   0.01267  Uiso   1.00
S6     S     0.22980   0.54650   0.00560   0.01267  Uiso   1.00
S7     S     0.01360   0.42600   0.22960   0.01267  Uiso   1.00
S8     S     0.20480   0.30420   0.01270   0.01267  Uiso   1.00
S9     S     0.23440   0.05330   0.51190   0.01267  Uiso   1.00
S10    S     0.72980   0.95350   0.50560   0.01267  Uiso   1.00
S11    S     0.51360   0.07400   0.72960   0.01267  Uiso   1.00
S12    S     0.70480   0.19580   0.51270   0.01267  Uiso   1.00
S13    S     0.76560   0.94670   0.01190   0.01267  Uiso   1.00
S14    S     0.27020   0.04650   0.00560   0.01267  Uiso   1.00
S15    S     0.48640   0.92600   0.22960   0.01267  Uiso   1.00
S16    S     0.29520   0.80420   0.01270   0.01267  Uiso   1.00
N1     N     0.37700   0.46220   0.65510   0.01267  Uiso   1.00
N2     N     0.88020   0.79560   0.65430   0.01267  Uiso   1.00
N3     N     0.65200   0.54690   0.36650   0.01267  Uiso   1.00
N4     N     0.74200   0.45380   0.76720   0.01267  Uiso   1.00
N5     N     0.62300   0.53780   0.15510   0.01267  Uiso   1.00
N6     N     0.11980   0.20440   0.15430   0.01267  Uiso   1.00
N7     N     0.34800   0.45310   0.86650   0.01267  Uiso   1.00
N8     N     0.25800   0.54620   0.26720   0.01267  Uiso   1.00
N9     N     0.12300   0.96220   0.65510   0.01267  Uiso   1.00
N10    N     0.61980   0.29560   0.65430   0.01267  Uiso   1.00
N11    N     0.84800   0.04690   0.36650   0.01267  Uiso   1.00
N12    N     0.75800   0.95380   0.76720   0.01267  Uiso   1.00
N13    N     0.87700   0.03780   0.15510   0.01267  Uiso   1.00
N14    N     0.38020   0.70440   0.15430   0.01267  Uiso   1.00
N15    N     0.15200   0.95310   0.86650   0.01267  Uiso   1.00
N16    N     0.24200   0.04620   0.26720   0.01267  Uiso   1.00
