data_image0
_cell_length_a       10.125
_cell_length_b       10.7664
_cell_length_c       13.2928
_cell_angle_alpha    86.521
_cell_angle_beta     73.151
_cell_angle_gamma    85.317

_symmetry_space_group_name_H-M    "P 1"
_symmetry_int_tables_number       1

loop_
  _symmetry_equiv_pos_as_xyz
  'x, y, z'

loop_
  _atom_site_label
  _atom_site_occupancy
  _atom_site_fract_x
  _atom_site_fract_y
  _atom_site_fract_z
  _atom_site_thermal_displace_type
  _atom_site_B_iso_or_equiv
  _atom_site_type_symbol
  Mn1      1.0000 0.86159  0.59120  0.30786  Biso   1.000  Mn
  C1       1.0000 0.12050  0.25010  0.07230  Biso   1.000  C
  C2       1.0000 0.19990  0.22600  0.15220  Biso   1.000  C
  C3       1.0000 0.25380  0.32190  0.19080  Biso   1.000  C
  H1       1.0000 0.23490  0.40460  0.17220  Biso   1.000  H
  C4       1.0000 0.33570  0.29220  0.25680  Biso   1.000  C
  H2       1.0000 0.37180  0.35610  0.28240  Biso   1.000  H
  C5       1.0000 0.36530  0.17050  0.28570  Biso   1.000  C
  H3       1.0000 0.42280  0.15270  0.32880  Biso   1.000  H
  C6       1.0000 0.30890  0.07450  0.25010  Biso   1.000  C
  C7       1.0000 0.22540  0.10430  0.18430  Biso   1.000  C
  H4       1.0000 0.18580  0.04070  0.16120  Biso   1.000  H
  C8       1.0000 0.33390  0.94020  0.27770  Biso   1.000  C
  C9       1.0000 0.46220  0.88690  0.28240  Biso   1.000  C
  H5       1.0000 0.53600  0.93690  0.27260  Biso   1.000  H
  C10      1.0000 0.48010  0.75820  0.30210  Biso   1.000  C
  C11      1.0000 0.62050  0.69980  0.29970  Biso   1.000  C
  C12      1.0000 0.37010  0.68290  0.31900  Biso   1.000  C
  H6       1.0000 0.38240  0.59760  0.33250  Biso   1.000  H
  C13      1.0000 0.24150  0.73600  0.31570  Biso   1.000  C
  C14      1.0000 0.11990  0.65760  0.32990  Biso   1.000  C
  C15      1.0000 0.22530  0.86190  0.29400  Biso   1.000  C
  H7       1.0000 0.13950  0.89600  0.29000  Biso   1.000  H
  C16      1.0000 0.82780  0.30470  0.26860  Biso   1.000  C
  H8       1.0000 0.78560  0.32680  0.21600  Biso   1.000  H
  C17      1.0000 0.85180  0.18850  0.30200  Biso   1.000  C
  H9       1.0000 0.83080  0.11580  0.27720  Biso   1.000  H
  C18      1.0000 0.92680  0.31790  0.38920  Biso   1.000  C
  H10      1.0000 0.96740  0.34910  0.43600  Biso   1.000  H
  C19      1.0000 0.57440  0.15490  0.03380  Biso   1.000  C
  H11      1.0000 0.48090  0.14510  0.04420  Biso   1.000  H
  C20      1.0000 0.67260  0.06440  0.03800  Biso   1.000  C
  H12      1.0000 0.65710  0.98050  0.05280  Biso   1.000  H
  C21      1.0000 0.77440  0.23460  0.00120  Biso   1.000  C
  H13      1.0000 0.84180  0.29220  0.98520  Biso   1.000  H
  C22      1.0000 0.57150  0.38600  0.00360  Biso   1.000  C
  C23      1.0000 0.47120  0.39870  0.95110  Biso   1.000  C
  H14      1.0000 0.45190  0.33100  0.91880  Biso   1.000  H
  C24      1.0000 0.60090  0.48500  0.05270  Biso   1.000  C
  H15      1.0000 0.66810  0.47480  0.08820  Biso   1.000  H
  C25      1.0000 0.95870  0.09600  0.44110  Biso   1.000  C
  C26      1.0000 0.89380  0.98490  0.45640  Biso   1.000  C
  H16      1.0000 0.82270  0.97550  0.42680  Biso   1.000  H
  C27      1.0000 0.06450  0.11152  0.48419  Biso   1.000  C
  H17      1.0000 0.10740  0.18630  0.47330  Biso   1.000  H
  N1       1.0000 0.87443  0.38720  0.32318  Biso   1.000  N
  N2       1.0000 0.91399  0.19707  0.38036  Biso   1.000  N
  N3       1.0000 0.79952  0.11385  0.01711  Biso   1.000  N
  N4       1.0000 0.63930  0.26439  0.01111  Biso   1.000  N
  O1       1.0000 0.09533  0.36148  0.04575  Biso   1.000  O
  O2       1.0000 0.08750  0.15768  0.03482  Biso   1.000  O
  O3       1.0000 0.72158  0.76600  0.28249  Biso   1.000  O
  O4       1.0000 0.63660  0.58449  0.31350  Biso   1.000  O
  O5       1.0000 0.11590  0.55269  0.37449  Biso   1.000  O
  O6       1.0000 0.02340  0.70710  0.29301  Biso   1.000  O
  Mn2      1.0000 0.13841  0.40880  0.69214  Biso   1.000  Mn
  C28      1.0000 0.87950  0.74990  0.92770  Biso   1.000  C
  C29      1.0000 0.80010  0.77400  0.84780  Biso   1.000  C
  C30      1.0000 0.74620  0.67810  0.80920  Biso   1.000  C
  H18      1.0000 0.76510  0.59540  0.82780  Biso   1.000  H
  C31      1.0000 0.66430  0.70780  0.74320  Biso   1.000  C
  H19      1.0000 0.62820  0.64390  0.71760  Biso   1.000  H
  C32      1.0000 0.63470  0.82950  0.71430  Biso   1.000  C
  H20      1.0000 0.57720  0.84730  0.67120  Biso   1.000  H
  C33      1.0000 0.69110  0.92550  0.74990  Biso   1.000  C
  C34      1.0000 0.77460  0.89570  0.81570  Biso   1.000  C
  H21      1.0000 0.81420  0.95930  0.83880  Biso   1.000  H
  C35      1.0000 0.66610  0.05980  0.72230  Biso   1.000  C
  C36      1.0000 0.53780  0.11310  0.71760  Biso   1.000  C
  H22      1.0000 0.46400  0.06310  0.72740  Biso   1.000  H
  C37      1.0000 0.51990  0.24180  0.69790  Biso   1.000  C
  C38      1.0000 0.37950  0.30020  0.70030  Biso   1.000  C
  C39      1.0000 0.62990  0.31710  0.68100  Biso   1.000  C
  H23      1.0000 0.61760  0.40240  0.66750  Biso   1.000  H
  C40      1.0000 0.75850  0.26400  0.68430  Biso   1.000  C
  C41      1.0000 0.88010  0.34240  0.67010  Biso   1.000  C
  C42      1.0000 0.77470  0.13810  0.70600  Biso   1.000  C
  H24      1.0000 0.86050  0.10400  0.71000  Biso   1.000  H
  C43      1.0000 0.17220  0.69530  0.73140  Biso   1.000  C
  H25      1.0000 0.21440  0.67320  0.78400  Biso   1.000  H
  C44      1.0000 0.14820  0.81150  0.69800  Biso   1.000  C
  H26      1.0000 0.16920  0.88420  0.72280  Biso   1.000  H
  C45      1.0000 0.07320  0.68210  0.61080  Biso   1.000  C
  H27      1.0000 0.03260  0.65090  0.56400  Biso   1.000  H
  C46      1.0000 0.42560  0.84510  0.96620  Biso   1.000  C
  H28      1.0000 0.51910  0.85490  0.95580  Biso   1.000  H
  C47      1.0000 0.32740  0.93560  0.96200  Biso   1.000  C
  H29      1.0000 0.34290  0.01950  0.94720  Biso   1.000  H
  C48      1.0000 0.22560  0.76540  0.99880  Biso   1.000  C
  H30      1.0000 0.15820  0.70780  0.01480  Biso   1.000  H
  C49      1.0000 0.42850  0.61400  0.99640  Biso   1.000  C
  C50      1.0000 0.52880  0.60130  0.04890  Biso   1.000  C
  H31      1.0000 0.54810  0.66900  0.08120  Biso   1.000  H
  C51      1.0000 0.39910  0.51500  0.94730  Biso   1.000  C
  H32      1.0000 0.33190  0.52520  0.91180  Biso   1.000  H
  C52      1.0000 0.04130  0.90400  0.55890  Biso   1.000  C
  C53      1.0000 0.10620  0.01510  0.54360  Biso   1.000  C
  H33      1.0000 0.17730  0.02450  0.57320  Biso   1.000  H
  C54      1.0000 0.93550  0.88848  0.51581  Biso   1.000  C
  H34      1.0000 0.89260  0.81370  0.52670  Biso   1.000  H
  N5       1.0000 0.12557  0.61280  0.67682  Biso   1.000  N
  N6       1.0000 0.08601  0.80293  0.61964  Biso   1.000  N
  N7       1.0000 0.20048  0.88615  0.98289  Biso   1.000  N
  N8       1.0000 0.36070  0.73561  0.98889  Biso   1.000  N
  O7       1.0000 0.90467  0.63852  0.95425  Biso   1.000  O
  O8       1.0000 0.91250  0.84232  0.96518  Biso   1.000  O
  O9       1.0000 0.27842  0.23400  0.71751  Biso   1.000  O
  O10      1.0000 0.36340  0.41551  0.68650  Biso   1.000  O
  O11      1.0000 0.88410  0.44731  0.62551  Biso   1.000  O
  O12      1.0000 0.97660  0.29290  0.70699  Biso   1.000  O
  Mn3      1.0000 0.00000  0.00000  0.00000  Biso   1.000  Mn
