data_FOHSAW01_clean
_audit_creation_date              2014-07-02
_audit_creation_method            'Materials Studio'
_symmetry_space_group_name_H-M    'P1'
_symmetry_Int_Tables_number       1
_symmetry_cell_setting            triclinic
loop_
_symmetry_equiv_pos_as_xyz
  x,y,z
_cell_length_a                    6.7745
_cell_length_b                    14.2200
_cell_length_c                    15.6290
_cell_angle_alpha                 90.0000
_cell_angle_beta                  101.1000
_cell_angle_gamma                 90.0000
loop_
_atom_site_label
_atom_site_type_symbol
_atom_site_fract_x
_atom_site_fract_y
_atom_site_fract_z
_atom_site_U_iso_or_equiv
_atom_site_adp_type
_atom_site_occupancy
Sr1    Sr    0.23083   0.58473   0.45173   0.01267  Uiso   1.00
Sr2    Sr    0.76917   0.08473   0.04827   0.01267  Uiso   1.00
Sr3    Sr    0.76917   0.41527   0.54827   0.01267  Uiso   1.00
Sr4    Sr    0.23083   0.91527   0.95173   0.01267  Uiso   1.00
Ni1    Ni    0.22202   0.73529   0.70571   0.01267  Uiso   1.00
Ni2    Ni    0.77798   0.23529   0.79429   0.01267  Uiso   1.00
Ni3    Ni    0.77798   0.26471   0.29429   0.01267  Uiso   1.00
Ni4    Ni    0.22202   0.76471   0.20571   0.01267  Uiso   1.00
H1     H     0.49110   0.53700   0.76800   0.01267  Uiso   1.00
H2     H     0.69430   0.54160   0.73500   0.01267  Uiso   1.00
H3     H     0.71440   0.60000   0.19580   0.01267  Uiso   1.00
H4     H     0.87250   0.56390   0.14350   0.01267  Uiso   1.00
H5     H     0.08140   0.37770   0.44560   0.01267  Uiso   1.00
H6     H     0.22490   0.40140   0.52130   0.01267  Uiso   1.00
H7     H     0.50890   0.03700   0.73200   0.01267  Uiso   1.00
H8     H     0.30570   0.04160   0.76500   0.01267  Uiso   1.00
H9     H     0.28560   0.10000   0.30420   0.01267  Uiso   1.00
H10    H     0.12750   0.06390   0.35650   0.01267  Uiso   1.00
H11    H     0.91860   0.87770   0.05440   0.01267  Uiso   1.00
H12    H     0.77510   0.90140   0.97870   0.01267  Uiso   1.00
H13    H     0.50890   0.46300   0.23200   0.01267  Uiso   1.00
H14    H     0.30570   0.45840   0.26500   0.01267  Uiso   1.00
H15    H     0.28560   0.40000   0.80420   0.01267  Uiso   1.00
H16    H     0.12750   0.43610   0.85650   0.01267  Uiso   1.00
H17    H     0.91860   0.62230   0.55440   0.01267  Uiso   1.00
H18    H     0.77510   0.59860   0.47870   0.01267  Uiso   1.00
H19    H     0.49110   0.96300   0.26800   0.01267  Uiso   1.00
H20    H     0.69430   0.95840   0.23500   0.01267  Uiso   1.00
H21    H     0.71440   0.90000   0.69580   0.01267  Uiso   1.00
H22    H     0.87250   0.93610   0.64350   0.01267  Uiso   1.00
H23    H     0.08140   0.12230   0.94560   0.01267  Uiso   1.00
H24    H     0.22490   0.09860   0.02130   0.01267  Uiso   1.00
C1     C     0.45690   0.58360   0.64370   0.01267  Uiso   1.00
C2     C     0.57030   0.57540   0.73590   0.01267  Uiso   1.00
C3     C     0.62350   0.66550   0.78640   0.01267  Uiso   1.00
C4     C     0.99650   0.60730   0.26370   0.01267  Uiso   1.00
C5     C     0.84350   0.61450   0.18090   0.01267  Uiso   1.00
C6     C     0.81250   0.70120   0.12520   0.01267  Uiso   1.00
C7     C     0.54310   0.08360   0.85630   0.01267  Uiso   1.00
C8     C     0.42970   0.07540   0.76410   0.01267  Uiso   1.00
C9     C     0.37650   0.16550   0.71360   0.01267  Uiso   1.00
C10    C     0.00350   0.10730   0.23630   0.01267  Uiso   1.00
C11    C     0.15650   0.11450   0.31910   0.01267  Uiso   1.00
C12    C     0.18750   0.20120   0.37480   0.01267  Uiso   1.00
C13    C     0.54310   0.41640   0.35630   0.01267  Uiso   1.00
C14    C     0.42970   0.42460   0.26410   0.01267  Uiso   1.00
C15    C     0.37650   0.33450   0.21360   0.01267  Uiso   1.00
C16    C     0.00350   0.39270   0.73630   0.01267  Uiso   1.00
C17    C     0.15650   0.38550   0.81910   0.01267  Uiso   1.00
C18    C     0.18750   0.29880   0.87480   0.01267  Uiso   1.00
C19    C     0.45690   0.91640   0.14370   0.01267  Uiso   1.00
C20    C     0.57030   0.92460   0.23590   0.01267  Uiso   1.00
C21    C     0.62350   0.83450   0.28640   0.01267  Uiso   1.00
C22    C     0.99650   0.89270   0.76370   0.01267  Uiso   1.00
C23    C     0.84350   0.88550   0.68090   0.01267  Uiso   1.00
C24    C     0.81250   0.79880   0.62520   0.01267  Uiso   1.00
O1     O     0.30990   0.64013   0.62355   0.01267  Uiso   1.00
O2     O     0.50630   0.53042   0.58789   0.01267  Uiso   1.00
O3     O     0.79100   0.66560   0.83750   0.01267  Uiso   1.00
O4     O     0.50060   0.73100   0.78045   0.01267  Uiso   1.00
O5     O     0.13540   0.66635   0.28471   0.01267  Uiso   1.00
O6     O     0.97900   0.53826   0.31083   0.01267  Uiso   1.00
O7     O     0.94610   0.76060   0.12803   0.01267  Uiso   1.00
O8     O     0.64710   0.70650   0.07290   0.01267  Uiso   1.00
O9     O     0.11450   0.41616   0.48759   0.01267  Uiso   1.00
O10    O     0.69010   0.14013   0.87645   0.01267  Uiso   1.00
O11    O     0.49370   0.03042   0.91211   0.01267  Uiso   1.00
O12    O     0.20900   0.16560   0.66250   0.01267  Uiso   1.00
O13    O     0.49940   0.23100   0.71955   0.01267  Uiso   1.00
O14    O     0.86460   0.16635   0.21529   0.01267  Uiso   1.00
O15    O     0.02100   0.03826   0.18917   0.01267  Uiso   1.00
O16    O     0.05390   0.26060   0.37197   0.01267  Uiso   1.00
O17    O     0.35290   0.20650   0.42710   0.01267  Uiso   1.00
O18    O     0.88550   0.91616   0.01241   0.01267  Uiso   1.00
O19    O     0.69010   0.35987   0.37645   0.01267  Uiso   1.00
O20    O     0.49370   0.46958   0.41211   0.01267  Uiso   1.00
O21    O     0.20900   0.33440   0.16250   0.01267  Uiso   1.00
O22    O     0.49940   0.26900   0.21955   0.01267  Uiso   1.00
O23    O     0.86460   0.33365   0.71529   0.01267  Uiso   1.00
O24    O     0.02100   0.46174   0.68917   0.01267  Uiso   1.00
O25    O     0.05390   0.23940   0.87197   0.01267  Uiso   1.00
O26    O     0.35290   0.29350   0.92710   0.01267  Uiso   1.00
O27    O     0.88550   0.58384   0.51241   0.01267  Uiso   1.00
O28    O     0.30990   0.85987   0.12355   0.01267  Uiso   1.00
O29    O     0.50630   0.96958   0.08789   0.01267  Uiso   1.00
O30    O     0.79100   0.83440   0.33750   0.01267  Uiso   1.00
O31    O     0.50060   0.76900   0.28045   0.01267  Uiso   1.00
O32    O     0.13540   0.83365   0.78471   0.01267  Uiso   1.00
O33    O     0.97900   0.96174   0.81083   0.01267  Uiso   1.00
O34    O     0.94610   0.73940   0.62803   0.01267  Uiso   1.00
O35    O     0.64710   0.79350   0.57290   0.01267  Uiso   1.00
O36    O     0.11450   0.08384   0.98759   0.01267  Uiso   1.00
