data_image0
_cell_length_a       7.1722
_cell_length_b       12.8109
_cell_length_c       17.3162
_cell_angle_alpha    90
_cell_angle_beta     90.933
_cell_angle_gamma    90

_symmetry_space_group_name_H-M    "P 1"
_symmetry_int_tables_number       1

loop_
  _symmetry_equiv_pos_as_xyz
  'x, y, z'

loop_
  _atom_site_label
  _atom_site_occupancy
  _atom_site_fract_x
  _atom_site_fract_y
  _atom_site_fract_z
  _atom_site_thermal_displace_type
  _atom_site_B_iso_or_equiv
  _atom_site_type_symbol
  O1       1.0000 0.10440  0.38175  0.06817  Biso   1.000  O
  O2       1.0000 0.40913  0.40769  0.08749  Biso   1.000  O
  O3       1.0000 0.08254  0.07144  0.39912  Biso   1.000  O
  O4       1.0000 0.38757  0.09719  0.41828  Biso   1.000  O
  O5       1.0000 0.74973  0.40901  0.00547  Biso   1.000  O
  H1       1.0000 0.75860  0.35230  0.98030  Biso   1.000  H
  H2       1.0000 0.74890  0.39100  0.05150  Biso   1.000  H
  C1       1.0000 0.25710  0.36354  0.10175  Biso   1.000  C
  C2       1.0000 0.23890  0.10445  0.37877  Biso   1.000  C
  C3       1.0000 0.25560  0.28494  0.16699  Biso   1.000  C
  C4       1.0000 0.10220  0.28266  0.21314  Biso   1.000  C
  H3       1.0000 0.99910  0.32340  0.20020  Biso   1.000  H
  C5       1.0000 0.09770  0.21981  0.27971  Biso   1.000  C
  H4       1.0000 0.99040  0.21840  0.30910  Biso   1.000  H
  C6       1.0000 0.24850  0.16061  0.30203  Biso   1.000  C
  C7       1.0000 0.40830  0.15625  0.25359  Biso   1.000  C
  C8       1.0000 0.40980  0.21744  0.18448  Biso   1.000  C
  C9       1.0000 0.56160  0.20563  0.13380  Biso   1.000  C
  H5       1.0000 0.56210  0.24310  0.08780  Biso   1.000  H
  C10      1.0000 0.70680  0.14072  0.15099  Biso   1.000  C
  H6       1.0000 0.80570  0.13500  0.11720  Biso   1.000  H
  C11      1.0000 0.70770  0.08256  0.21955  Biso   1.000  C
  H7       1.0000 0.80800  0.03900  0.23140  Biso   1.000  H
  C12      1.0000 0.56280  0.08942  0.26884  Biso   1.000  C
  H8       1.0000 0.56470  0.04940  0.31370  Biso   1.000  H
  O6       1.0000 0.89560  0.88175  0.43183  Biso   1.000  O
  O7       1.0000 0.59087  0.90769  0.41251  Biso   1.000  O
  O8       1.0000 0.91746  0.57144  0.10088  Biso   1.000  O
  O9       1.0000 0.61243  0.59719  0.08172  Biso   1.000  O
  O10      1.0000 0.25027  0.90901  0.49453  Biso   1.000  O
  H9       1.0000 0.24140  0.85230  0.51970  Biso   1.000  H
  H10      1.0000 0.25110  0.89100  0.44850  Biso   1.000  H
  C13      1.0000 0.74290  0.86354  0.39825  Biso   1.000  C
  C14      1.0000 0.76110  0.60445  0.12123  Biso   1.000  C
  C15      1.0000 0.74440  0.78494  0.33301  Biso   1.000  C
  C16      1.0000 0.89780  0.78266  0.28686  Biso   1.000  C
  H11      1.0000 0.00090  0.82340  0.29980  Biso   1.000  H
  C17      1.0000 0.90230  0.71981  0.22029  Biso   1.000  C
  H12      1.0000 0.00960  0.71840  0.19090  Biso   1.000  H
  C18      1.0000 0.75150  0.66061  0.19797  Biso   1.000  C
  C19      1.0000 0.59170  0.65625  0.24641  Biso   1.000  C
  C20      1.0000 0.59020  0.71744  0.31552  Biso   1.000  C
  C21      1.0000 0.43840  0.70563  0.36620  Biso   1.000  C
  H13      1.0000 0.43790  0.74310  0.41220  Biso   1.000  H
  C22      1.0000 0.29320  0.64072  0.34901  Biso   1.000  C
  H14      1.0000 0.19430  0.63500  0.38280  Biso   1.000  H
  C23      1.0000 0.29230  0.58256  0.28045  Biso   1.000  C
  H15      1.0000 0.19200  0.53900  0.26860  Biso   1.000  H
  C24      1.0000 0.43720  0.58942  0.23116  Biso   1.000  C
  H16      1.0000 0.43530  0.54940  0.18630  Biso   1.000  H
  O11      1.0000 0.89560  0.61825  0.93183  Biso   1.000  O
  O12      1.0000 0.59087  0.59231  0.91251  Biso   1.000  O
  O13      1.0000 0.91746  0.92856  0.60088  Biso   1.000  O
  O14      1.0000 0.61243  0.90281  0.58172  Biso   1.000  O
  O15      1.0000 0.25027  0.59099  0.99453  Biso   1.000  O
  H17      1.0000 0.24140  0.64770  0.01970  Biso   1.000  H
  H18      1.0000 0.25110  0.60900  0.94850  Biso   1.000  H
  C25      1.0000 0.74290  0.63646  0.89825  Biso   1.000  C
  C26      1.0000 0.76110  0.89555  0.62123  Biso   1.000  C
  C27      1.0000 0.74440  0.71506  0.83301  Biso   1.000  C
  C28      1.0000 0.89780  0.71734  0.78686  Biso   1.000  C
  H19      1.0000 0.00090  0.67660  0.79980  Biso   1.000  H
  C29      1.0000 0.90230  0.78019  0.72029  Biso   1.000  C
  H20      1.0000 0.00960  0.78160  0.69090  Biso   1.000  H
  C30      1.0000 0.75150  0.83939  0.69797  Biso   1.000  C
  C31      1.0000 0.59170  0.84375  0.74641  Biso   1.000  C
  C32      1.0000 0.59020  0.78256  0.81552  Biso   1.000  C
  C33      1.0000 0.43840  0.79437  0.86620  Biso   1.000  C
  H21      1.0000 0.43790  0.75690  0.91220  Biso   1.000  H
  C34      1.0000 0.29320  0.85928  0.84901  Biso   1.000  C
  H22      1.0000 0.19430  0.86500  0.88280  Biso   1.000  H
  C35      1.0000 0.29230  0.91744  0.78045  Biso   1.000  C
  H23      1.0000 0.19200  0.96100  0.76860  Biso   1.000  H
  C36      1.0000 0.43720  0.91058  0.73116  Biso   1.000  C
  H24      1.0000 0.43530  0.95060  0.68630  Biso   1.000  H
  O16      1.0000 0.10440  0.11825  0.56817  Biso   1.000  O
  O17      1.0000 0.40913  0.09231  0.58749  Biso   1.000  O
  O18      1.0000 0.08254  0.42856  0.89912  Biso   1.000  O
  O19      1.0000 0.38757  0.40281  0.91828  Biso   1.000  O
  O20      1.0000 0.74973  0.09099  0.50547  Biso   1.000  O
  H25      1.0000 0.75860  0.14770  0.48030  Biso   1.000  H
  H26      1.0000 0.74890  0.10900  0.55150  Biso   1.000  H
  C37      1.0000 0.25710  0.13646  0.60175  Biso   1.000  C
  C38      1.0000 0.23890  0.39555  0.87877  Biso   1.000  C
  C39      1.0000 0.25560  0.21506  0.66699  Biso   1.000  C
  C40      1.0000 0.10220  0.21734  0.71314  Biso   1.000  C
  H27      1.0000 0.99910  0.17660  0.70020  Biso   1.000  H
  C41      1.0000 0.09770  0.28019  0.77971  Biso   1.000  C
  H28      1.0000 0.99040  0.28160  0.80910  Biso   1.000  H
  C42      1.0000 0.24850  0.33939  0.80203  Biso   1.000  C
  C43      1.0000 0.40830  0.34375  0.75359  Biso   1.000  C
  C44      1.0000 0.40980  0.28256  0.68448  Biso   1.000  C
  C45      1.0000 0.56160  0.29437  0.63380  Biso   1.000  C
  H29      1.0000 0.56210  0.25690  0.58780  Biso   1.000  H
  C46      1.0000 0.70680  0.35928  0.65099  Biso   1.000  C
  H30      1.0000 0.80570  0.36500  0.61720  Biso   1.000  H
  C47      1.0000 0.70770  0.41744  0.71955  Biso   1.000  C
  H31      1.0000 0.80800  0.46100  0.73140  Biso   1.000  H
  C48      1.0000 0.56280  0.41058  0.76884  Biso   1.000  C
  H32      1.0000 0.56470  0.45060  0.81370  Biso   1.000  H
  Mg1      1.0000 0.50000  0.50000  0.00000  Biso   1.000  Mg
  Mg2      1.0000 0.50000  0.00000  0.50000  Biso   1.000  Mg
  Mg3      1.0000 0.00000  0.50000  0.00000  Biso   1.000  Mg
  Mg4      1.0000 0.00000  0.00000  0.50000  Biso   1.000  Mg
