data_image0
_cell_length_a       36.991
_cell_length_b       8.394
_cell_length_c       36.94
_cell_angle_alpha    90
_cell_angle_beta     116.75
_cell_angle_gamma    90

_symmetry_space_group_name_H-M    "P 1"
_symmetry_int_tables_number       1

loop_
  _symmetry_equiv_pos_as_xyz
  'x, y, z'

loop_
  _atom_site_label
  _atom_site_occupancy
  _atom_site_fract_x
  _atom_site_fract_y
  _atom_site_fract_z
  _atom_site_thermal_displace_type
  _atom_site_B_iso_or_equiv
  _atom_site_type_symbol
  Zn1      1.0000 0.83075  0.03267  0.17702  Biso   1.000  Zn
  O1       1.0000 0.59234  0.19700  0.02214  Biso   1.000  O
  O2       1.0000 0.41362  0.04650  0.87831  Biso   1.000  O
  O3       1.0000 0.42730  0.32090  0.02048  Biso   1.000  O
  O4       1.0000 0.76270  0.87630  0.13257  Biso   1.000  O
  O5       1.0000 0.77862  0.13200  0.14470  Biso   1.000  O
  O6       1.0000 0.34648  0.63750  0.71711  Biso   1.000  O
  O7       1.0000 0.32210  0.51190  0.75030  Biso   1.000  O
  O8       1.0000 0.35552  0.45970  0.14270  Biso   1.000  O
  O9       1.0000 0.36360  0.71830  0.12770  Biso   1.000  O
  C1       1.0000 0.50161  0.15370  0.94336  Biso   1.000  C
  C2       1.0000 0.46296  0.21970  0.92191  Biso   1.000  C
  C3       1.0000 0.44450  0.30550  0.94164  Biso   1.000  C
  C4       1.0000 0.46558  0.32700  0.98378  Biso   1.000  C
  C5       1.0000 0.50302  0.25380  0.00574  Biso   1.000  C
  C6       1.0000 0.52061  0.16220  0.98485  Biso   1.000  C
  C7       1.0000 0.52260  0.07680  0.92050  Biso   1.000  C
  H1       1.0000 0.50500  0.08050  0.89190  Biso   1.000  H
  H2       1.0000 0.52900  0.96790  0.92900  Biso   1.000  H
  H3       1.0000 0.54720  0.13360  0.92630  Biso   1.000  H
  C8       1.0000 0.40203  0.36980  0.91849  Biso   1.000  C
  H4       1.0000 0.39200  0.34530  0.89020  Biso   1.000  H
  H5       1.0000 0.40230  0.48320  0.92200  Biso   1.000  H
  H6       1.0000 0.38480  0.32170  0.92860  Biso   1.000  H
  C9       1.0000 0.52452  0.26960  0.05139  Biso   1.000  C
  H7       1.0000 0.54970  0.21300  0.06180  Biso   1.000  H
  H8       1.0000 0.50790  0.22570  0.06270  Biso   1.000  H
  H9       1.0000 0.52960  0.38010  0.05860  Biso   1.000  H
  C10      1.0000 0.56014  0.07690  0.00913  Biso   1.000  C
  H10      1.0000 0.55990  0.02530  0.03250  Biso   1.000  H
  H11      1.0000 0.56440  0.99630  0.99260  Biso   1.000  H
  C11      1.0000 0.63061  0.14380  0.04721  Biso   1.000  C
  C12      1.0000 0.65991  0.26290  0.06288  Biso   1.000  C
  H12      1.0000 0.65290  0.36910  0.05630  Biso   1.000  H
  C13      1.0000 0.69953  0.22090  0.08839  Biso   1.000  C
  H13      1.0000 0.71930  0.29960  0.09850  Biso   1.000  H
  C14      1.0000 0.71007  0.06400  0.09905  Biso   1.000  C
  C15      1.0000 0.68069  0.94700  0.08166  Biso   1.000  C
  H14      1.0000 0.68790  0.84060  0.08780  Biso   1.000  H
  C16      1.0000 0.64167  0.98460  0.05589  Biso   1.000  C
  H15      1.0000 0.62250  0.90450  0.04420  Biso   1.000  H
  C17      1.0000 0.75348  0.01490  0.12749  Biso   1.000  C
  C18      1.0000 0.43883  0.17680  0.87780  Biso   1.000  C
  H16      1.0000 0.45650  0.14390  0.86610  Biso   1.000  H
  H17      1.0000 0.42250  0.26610  0.86240  Biso   1.000  H
  C19      1.0000 0.39647  0.94900  0.84462  Biso   1.000  C
  C20      1.0000 0.37590  0.81740  0.84930  Biso   1.000  C
  H18      1.0000 0.37320  0.80300  0.87290  Biso   1.000  H
  C21      1.0000 0.35980  0.71060  0.81820  Biso   1.000  C
  H19      1.0000 0.34760  0.61900  0.82160  Biso   1.000  H
  C22      1.0000 0.36119  0.73360  0.78223  Biso   1.000  C
  C23      1.0000 0.38010  0.86460  0.77765  Biso   1.000  C
  H20      1.0000 0.38130  0.88090  0.75330  Biso   1.000  H
  C24      1.0000 0.39760  0.97410  0.80850  Biso   1.000  C
  H21      1.0000 0.41020  0.06440  0.80480  Biso   1.000  H
  C25      1.0000 0.34370  0.61430  0.74780  Biso   1.000  C
  C26      1.0000 0.44799  0.42510  0.00534  Biso   1.000  C
  H22      1.0000 0.46930  0.48200  0.02760  Biso   1.000  H
  H23      1.0000 0.42920  0.50240  0.98690  Biso   1.000  H
  C27      1.0000 0.41323  0.39050  0.04511  Biso   1.000  C
  C28      1.0000 0.41233  0.55240  0.05169  Biso   1.000  C
  H24      1.0000 0.42250  0.62410  0.03930  Biso   1.000  H
  C29      1.0000 0.39620  0.60730  0.07690  Biso   1.000  C
  H25      1.0000 0.39450  0.71630  0.08040  Biso   1.000  H
  C30      1.0000 0.38240  0.49960  0.09710  Biso   1.000  C
  C31      1.0000 0.38280  0.34210  0.09020  Biso   1.000  C
  H26      1.0000 0.37230  0.27100  0.10240  Biso   1.000  H
  C32      1.0000 0.39890  0.28440  0.06460  Biso   1.000  C
  H27      1.0000 0.39990  0.17530  0.06070  Biso   1.000  H
  C33      1.0000 0.36620  0.56330  0.12540  Biso   1.000  C
  H28      1.0000 0.37900  0.80330  0.12140  Biso   1.000  H
  Zn2      1.0000 0.33075  0.53267  0.17702  Biso   1.000  Zn
  O10      1.0000 0.09234  0.69700  0.02214  Biso   1.000  O
  O11      1.0000 0.91362  0.54650  0.87831  Biso   1.000  O
  O12      1.0000 0.92730  0.82090  0.02048  Biso   1.000  O
  O13      1.0000 0.26270  0.37630  0.13257  Biso   1.000  O
  O14      1.0000 0.27862  0.63200  0.14470  Biso   1.000  O
  O15      1.0000 0.84648  0.13750  0.71711  Biso   1.000  O
  O16      1.0000 0.82210  0.01190  0.75030  Biso   1.000  O
  O17      1.0000 0.85552  0.95970  0.14270  Biso   1.000  O
  O18      1.0000 0.86360  0.21830  0.12770  Biso   1.000  O
  C34      1.0000 0.00161  0.65370  0.94336  Biso   1.000  C
  C35      1.0000 0.96296  0.71970  0.92191  Biso   1.000  C
  C36      1.0000 0.94450  0.80550  0.94164  Biso   1.000  C
  C37      1.0000 0.96558  0.82700  0.98378  Biso   1.000  C
  C38      1.0000 0.00302  0.75380  0.00574  Biso   1.000  C
  C39      1.0000 0.02061  0.66220  0.98485  Biso   1.000  C
  C40      1.0000 0.02260  0.57680  0.92050  Biso   1.000  C
  H29      1.0000 0.00500  0.58050  0.89190  Biso   1.000  H
  H30      1.0000 0.02900  0.46790  0.92900  Biso   1.000  H
  H31      1.0000 0.04720  0.63360  0.92630  Biso   1.000  H
  C41      1.0000 0.90203  0.86980  0.91849  Biso   1.000  C
  H32      1.0000 0.89200  0.84530  0.89020  Biso   1.000  H
  H33      1.0000 0.90230  0.98320  0.92200  Biso   1.000  H
  H34      1.0000 0.88480  0.82170  0.92860  Biso   1.000  H
  C42      1.0000 0.02452  0.76960  0.05139  Biso   1.000  C
  H35      1.0000 0.04970  0.71300  0.06180  Biso   1.000  H
  H36      1.0000 0.00790  0.72570  0.06270  Biso   1.000  H
  H37      1.0000 0.02960  0.88010  0.05860  Biso   1.000  H
  C43      1.0000 0.06014  0.57690  0.00913  Biso   1.000  C
  H38      1.0000 0.05990  0.52530  0.03250  Biso   1.000  H
  H39      1.0000 0.06440  0.49630  0.99260  Biso   1.000  H
  C44      1.0000 0.13061  0.64380  0.04721  Biso   1.000  C
  C45      1.0000 0.15991  0.76290  0.06288  Biso   1.000  C
  H40      1.0000 0.15290  0.86910  0.05630  Biso   1.000  H
  C46      1.0000 0.19953  0.72090  0.08839  Biso   1.000  C
  H41      1.0000 0.21930  0.79960  0.09850  Biso   1.000  H
  C47      1.0000 0.21007  0.56400  0.09905  Biso   1.000  C
  C48      1.0000 0.18069  0.44700  0.08166  Biso   1.000  C
  H42      1.0000 0.18790  0.34060  0.08780  Biso   1.000  H
  C49      1.0000 0.14167  0.48460  0.05589  Biso   1.000  C
  H43      1.0000 0.12250  0.40450  0.04420  Biso   1.000  H
  C50      1.0000 0.25348  0.51490  0.12749  Biso   1.000  C
  C51      1.0000 0.93883  0.67680  0.87780  Biso   1.000  C
  H44      1.0000 0.95650  0.64390  0.86610  Biso   1.000  H
  H45      1.0000 0.92250  0.76610  0.86240  Biso   1.000  H
  C52      1.0000 0.89647  0.44900  0.84462  Biso   1.000  C
  C53      1.0000 0.87590  0.31740  0.84930  Biso   1.000  C
  H46      1.0000 0.87320  0.30300  0.87290  Biso   1.000  H
  C54      1.0000 0.85980  0.21060  0.81820  Biso   1.000  C
  H47      1.0000 0.84760  0.11900  0.82160  Biso   1.000  H
  C55      1.0000 0.86119  0.23360  0.78223  Biso   1.000  C
  C56      1.0000 0.88010  0.36460  0.77765  Biso   1.000  C
  H48      1.0000 0.88130  0.38090  0.75330  Biso   1.000  H
  C57      1.0000 0.89760  0.47410  0.80850  Biso   1.000  C
  H49      1.0000 0.91020  0.56440  0.80480  Biso   1.000  H
  C58      1.0000 0.84370  0.11430  0.74780  Biso   1.000  C
  C59      1.0000 0.94799  0.92510  0.00534  Biso   1.000  C
  H50      1.0000 0.96930  0.98200  0.02760  Biso   1.000  H
  H51      1.0000 0.92920  0.00240  0.98690  Biso   1.000  H
  C60      1.0000 0.91323  0.89050  0.04511  Biso   1.000  C
  C61      1.0000 0.91233  0.05240  0.05169  Biso   1.000  C
  H52      1.0000 0.92250  0.12410  0.03930  Biso   1.000  H
  C62      1.0000 0.89620  0.10730  0.07690  Biso   1.000  C
  H53      1.0000 0.89450  0.21630  0.08040  Biso   1.000  H
  C63      1.0000 0.88240  0.99960  0.09710  Biso   1.000  C
  C64      1.0000 0.88280  0.84210  0.09020  Biso   1.000  C
  H54      1.0000 0.87230  0.77100  0.10240  Biso   1.000  H
  C65      1.0000 0.89890  0.78440  0.06460  Biso   1.000  C
  H55      1.0000 0.89990  0.67530  0.06070  Biso   1.000  H
  C66      1.0000 0.86620  0.06330  0.12540  Biso   1.000  C
  H56      1.0000 0.87900  0.30330  0.12140  Biso   1.000  H
  Zn3      1.0000 0.83075  0.96733  0.67702  Biso   1.000  Zn
  O19      1.0000 0.59234  0.80300  0.52214  Biso   1.000  O
  O20      1.0000 0.41362  0.95350  0.37831  Biso   1.000  O
  O21      1.0000 0.42730  0.67910  0.52048  Biso   1.000  O
  O22      1.0000 0.76270  0.12370  0.63257  Biso   1.000  O
  O23      1.0000 0.77862  0.86800  0.64470  Biso   1.000  O
  O24      1.0000 0.34648  0.36250  0.21711  Biso   1.000  O
  O25      1.0000 0.32210  0.48810  0.25030  Biso   1.000  O
  O26      1.0000 0.35552  0.54030  0.64270  Biso   1.000  O
  O27      1.0000 0.36360  0.28170  0.62770  Biso   1.000  O
  C67      1.0000 0.50161  0.84630  0.44336  Biso   1.000  C
  C68      1.0000 0.46296  0.78030  0.42191  Biso   1.000  C
  C69      1.0000 0.44450  0.69450  0.44164  Biso   1.000  C
  C70      1.0000 0.46558  0.67300  0.48378  Biso   1.000  C
  C71      1.0000 0.50302  0.74620  0.50574  Biso   1.000  C
  C72      1.0000 0.52061  0.83780  0.48485  Biso   1.000  C
  C73      1.0000 0.52260  0.92320  0.42050  Biso   1.000  C
  H57      1.0000 0.50500  0.91950  0.39190  Biso   1.000  H
  H58      1.0000 0.52900  0.03210  0.42900  Biso   1.000  H
  H59      1.0000 0.54720  0.86640  0.42630  Biso   1.000  H
  C74      1.0000 0.40203  0.63020  0.41849  Biso   1.000  C
  H60      1.0000 0.39200  0.65470  0.39020  Biso   1.000  H
  H61      1.0000 0.40230  0.51680  0.42200  Biso   1.000  H
  H62      1.0000 0.38480  0.67830  0.42860  Biso   1.000  H
  C75      1.0000 0.52452  0.73040  0.55139  Biso   1.000  C
  H63      1.0000 0.54970  0.78700  0.56180  Biso   1.000  H
  H64      1.0000 0.50790  0.77430  0.56270  Biso   1.000  H
  H65      1.0000 0.52960  0.61990  0.55860  Biso   1.000  H
  C76      1.0000 0.56014  0.92310  0.50913  Biso   1.000  C
  H66      1.0000 0.55990  0.97470  0.53250  Biso   1.000  H
  H67      1.0000 0.56440  0.00370  0.49260  Biso   1.000  H
  C77      1.0000 0.63061  0.85620  0.54721  Biso   1.000  C
  C78      1.0000 0.65991  0.73710  0.56288  Biso   1.000  C
  H68      1.0000 0.65290  0.63090  0.55630  Biso   1.000  H
  C79      1.0000 0.69953  0.77910  0.58839  Biso   1.000  C
  H69      1.0000 0.71930  0.70040  0.59850  Biso   1.000  H
  C80      1.0000 0.71007  0.93600  0.59905  Biso   1.000  C
  C81      1.0000 0.68069  0.05300  0.58166  Biso   1.000  C
  H70      1.0000 0.68790  0.15940  0.58780  Biso   1.000  H
  C82      1.0000 0.64167  0.01540  0.55589  Biso   1.000  C
  H71      1.0000 0.62250  0.09550  0.54420  Biso   1.000  H
  C83      1.0000 0.75348  0.98510  0.62749  Biso   1.000  C
  C84      1.0000 0.43883  0.82320  0.37780  Biso   1.000  C
  H72      1.0000 0.45650  0.85610  0.36610  Biso   1.000  H
  H73      1.0000 0.42250  0.73390  0.36240  Biso   1.000  H
  C85      1.0000 0.39647  0.05100  0.34462  Biso   1.000  C
  C86      1.0000 0.37590  0.18260  0.34930  Biso   1.000  C
  H74      1.0000 0.37320  0.19700  0.37290  Biso   1.000  H
  C87      1.0000 0.35980  0.28940  0.31820  Biso   1.000  C
  H75      1.0000 0.34760  0.38100  0.32160  Biso   1.000  H
  C88      1.0000 0.36119  0.26640  0.28223  Biso   1.000  C
  C89      1.0000 0.38010  0.13540  0.27765  Biso   1.000  C
  H76      1.0000 0.38130  0.11910  0.25330  Biso   1.000  H
  C90      1.0000 0.39760  0.02590  0.30850  Biso   1.000  C
  H77      1.0000 0.41020  0.93560  0.30480  Biso   1.000  H
  C91      1.0000 0.34370  0.38570  0.24780  Biso   1.000  C
  C92      1.0000 0.44799  0.57490  0.50534  Biso   1.000  C
  H78      1.0000 0.46930  0.51800  0.52760  Biso   1.000  H
  H79      1.0000 0.42920  0.49760  0.48690  Biso   1.000  H
  C93      1.0000 0.41323  0.60950  0.54511  Biso   1.000  C
  C94      1.0000 0.41233  0.44760  0.55169  Biso   1.000  C
  H80      1.0000 0.42250  0.37590  0.53930  Biso   1.000  H
  C95      1.0000 0.39620  0.39270  0.57690  Biso   1.000  C
  H81      1.0000 0.39450  0.28370  0.58040  Biso   1.000  H
  C96      1.0000 0.38240  0.50040  0.59710  Biso   1.000  C
  C97      1.0000 0.38280  0.65790  0.59020  Biso   1.000  C
  H82      1.0000 0.37230  0.72900  0.60240  Biso   1.000  H
  C98      1.0000 0.39890  0.71560  0.56460  Biso   1.000  C
  H83      1.0000 0.39990  0.82470  0.56070  Biso   1.000  H
  C99      1.0000 0.36620  0.43670  0.62540  Biso   1.000  C
  H84      1.0000 0.37900  0.19670  0.62140  Biso   1.000  H
  Zn4      1.0000 0.33075  0.46733  0.67702  Biso   1.000  Zn
  O28      1.0000 0.09234  0.30300  0.52214  Biso   1.000  O
  O29      1.0000 0.91362  0.45350  0.37831  Biso   1.000  O
  O30      1.0000 0.92730  0.17910  0.52048  Biso   1.000  O
  O31      1.0000 0.26270  0.62370  0.63257  Biso   1.000  O
  O32      1.0000 0.27862  0.36800  0.64470  Biso   1.000  O
  O33      1.0000 0.84648  0.86250  0.21711  Biso   1.000  O
  O34      1.0000 0.82210  0.98810  0.25030  Biso   1.000  O
  O35      1.0000 0.85552  0.04030  0.64270  Biso   1.000  O
  O36      1.0000 0.86360  0.78170  0.62770  Biso   1.000  O
  C100     1.0000 0.00161  0.34630  0.44336  Biso   1.000  C
  C101     1.0000 0.96296  0.28030  0.42191  Biso   1.000  C
  C102     1.0000 0.94450  0.19450  0.44164  Biso   1.000  C
  C103     1.0000 0.96558  0.17300  0.48378  Biso   1.000  C
  C104     1.0000 0.00302  0.24620  0.50574  Biso   1.000  C
  C105     1.0000 0.02061  0.33780  0.48485  Biso   1.000  C
  C106     1.0000 0.02260  0.42320  0.42050  Biso   1.000  C
  H85      1.0000 0.00500  0.41950  0.39190  Biso   1.000  H
  H86      1.0000 0.02900  0.53210  0.42900  Biso   1.000  H
  H87      1.0000 0.04720  0.36640  0.42630  Biso   1.000  H
  C107     1.0000 0.90203  0.13020  0.41849  Biso   1.000  C
  H88      1.0000 0.89200  0.15470  0.39020  Biso   1.000  H
  H89      1.0000 0.90230  0.01680  0.42200  Biso   1.000  H
  H90      1.0000 0.88480  0.17830  0.42860  Biso   1.000  H
  C108     1.0000 0.02452  0.23040  0.55139  Biso   1.000  C
  H91      1.0000 0.04970  0.28700  0.56180  Biso   1.000  H
  H92      1.0000 0.00790  0.27430  0.56270  Biso   1.000  H
  H93      1.0000 0.02960  0.11990  0.55860  Biso   1.000  H
  C109     1.0000 0.06014  0.42310  0.50913  Biso   1.000  C
  H94      1.0000 0.05990  0.47470  0.53250  Biso   1.000  H
  H95      1.0000 0.06440  0.50370  0.49260  Biso   1.000  H
  C110     1.0000 0.13061  0.35620  0.54721  Biso   1.000  C
  C111     1.0000 0.15991  0.23710  0.56288  Biso   1.000  C
  H96      1.0000 0.15290  0.13090  0.55630  Biso   1.000  H
  C112     1.0000 0.19953  0.27910  0.58839  Biso   1.000  C
  H97      1.0000 0.21930  0.20040  0.59850  Biso   1.000  H
  C113     1.0000 0.21007  0.43600  0.59905  Biso   1.000  C
  C114     1.0000 0.18069  0.55300  0.58166  Biso   1.000  C
  H98      1.0000 0.18790  0.65940  0.58780  Biso   1.000  H
  C115     1.0000 0.14167  0.51540  0.55589  Biso   1.000  C
  H99      1.0000 0.12250  0.59550  0.54420  Biso   1.000  H
  C116     1.0000 0.25348  0.48510  0.62749  Biso   1.000  C
  C117     1.0000 0.93883  0.32320  0.37780  Biso   1.000  C
  H100     1.0000 0.95650  0.35610  0.36610  Biso   1.000  H
  H101     1.0000 0.92250  0.23390  0.36240  Biso   1.000  H
  C118     1.0000 0.89647  0.55100  0.34462  Biso   1.000  C
  C119     1.0000 0.87590  0.68260  0.34930  Biso   1.000  C
  H102     1.0000 0.87320  0.69700  0.37290  Biso   1.000  H
  C120     1.0000 0.85980  0.78940  0.31820  Biso   1.000  C
  H103     1.0000 0.84760  0.88100  0.32160  Biso   1.000  H
  C121     1.0000 0.86119  0.76640  0.28223  Biso   1.000  C
  C122     1.0000 0.88010  0.63540  0.27765  Biso   1.000  C
  H104     1.0000 0.88130  0.61910  0.25330  Biso   1.000  H
  C123     1.0000 0.89760  0.52590  0.30850  Biso   1.000  C
  H105     1.0000 0.91020  0.43560  0.30480  Biso   1.000  H
  C124     1.0000 0.84370  0.88570  0.24780  Biso   1.000  C
  C125     1.0000 0.94799  0.07490  0.50534  Biso   1.000  C
  H106     1.0000 0.96930  0.01800  0.52760  Biso   1.000  H
  H107     1.0000 0.92920  0.99760  0.48690  Biso   1.000  H
  C126     1.0000 0.91323  0.10950  0.54511  Biso   1.000  C
  C127     1.0000 0.91233  0.94760  0.55169  Biso   1.000  C
  H108     1.0000 0.92250  0.87590  0.53930  Biso   1.000  H
  C128     1.0000 0.89620  0.89270  0.57690  Biso   1.000  C
  H109     1.0000 0.89450  0.78370  0.58040  Biso   1.000  H
  C129     1.0000 0.88240  0.00040  0.59710  Biso   1.000  C
  C130     1.0000 0.88280  0.15790  0.59020  Biso   1.000  C
  H110     1.0000 0.87230  0.22900  0.60240  Biso   1.000  H
  C131     1.0000 0.89890  0.21560  0.56460  Biso   1.000  C
  H111     1.0000 0.89990  0.32470  0.56070  Biso   1.000  H
  C132     1.0000 0.86620  0.93670  0.62540  Biso   1.000  C
  H112     1.0000 0.87900  0.69670  0.62140  Biso   1.000  H
  Zn5      1.0000 0.16925  0.03267  0.32298  Biso   1.000  Zn
  O37      1.0000 0.40766  0.19700  0.47786  Biso   1.000  O
  O38      1.0000 0.58638  0.04650  0.62169  Biso   1.000  O
  O39      1.0000 0.57270  0.32090  0.47952  Biso   1.000  O
  O40      1.0000 0.23730  0.87630  0.36743  Biso   1.000  O
  O41      1.0000 0.22138  0.13200  0.35530  Biso   1.000  O
  O42      1.0000 0.65352  0.63750  0.78289  Biso   1.000  O
  O43      1.0000 0.67790  0.51190  0.74970  Biso   1.000  O
  O44      1.0000 0.64448  0.45970  0.35730  Biso   1.000  O
  O45      1.0000 0.63640  0.71830  0.37230  Biso   1.000  O
  C133     1.0000 0.49839  0.15370  0.55664  Biso   1.000  C
  C134     1.0000 0.53704  0.21970  0.57809  Biso   1.000  C
  C135     1.0000 0.55550  0.30550  0.55836  Biso   1.000  C
  C136     1.0000 0.53442  0.32700  0.51622  Biso   1.000  C
  C137     1.0000 0.49698  0.25380  0.49426  Biso   1.000  C
  C138     1.0000 0.47939  0.16220  0.51515  Biso   1.000  C
  C139     1.0000 0.47740  0.07680  0.57950  Biso   1.000  C
  H113     1.0000 0.49500  0.08050  0.60810  Biso   1.000  H
  H114     1.0000 0.47100  0.96790  0.57100  Biso   1.000  H
  H115     1.0000 0.45280  0.13360  0.57370  Biso   1.000  H
  C140     1.0000 0.59797  0.36980  0.58151  Biso   1.000  C
  H116     1.0000 0.60800  0.34530  0.60980  Biso   1.000  H
  H117     1.0000 0.59770  0.48320  0.57800  Biso   1.000  H
  H118     1.0000 0.61520  0.32170  0.57140  Biso   1.000  H
  C141     1.0000 0.47548  0.26960  0.44861  Biso   1.000  C
  H119     1.0000 0.45030  0.21300  0.43820  Biso   1.000  H
  H120     1.0000 0.49210  0.22570  0.43730  Biso   1.000  H
  H121     1.0000 0.47040  0.38010  0.44140  Biso   1.000  H
  C142     1.0000 0.43986  0.07690  0.49087  Biso   1.000  C
  H122     1.0000 0.44010  0.02530  0.46750  Biso   1.000  H
  H123     1.0000 0.43560  0.99630  0.50740  Biso   1.000  H
  C143     1.0000 0.36939  0.14380  0.45279  Biso   1.000  C
  C144     1.0000 0.34009  0.26290  0.43712  Biso   1.000  C
  H124     1.0000 0.34710  0.36910  0.44370  Biso   1.000  H
  C145     1.0000 0.30047  0.22090  0.41161  Biso   1.000  C
  H125     1.0000 0.28070  0.29960  0.40150  Biso   1.000  H
  C146     1.0000 0.28993  0.06400  0.40095  Biso   1.000  C
  C147     1.0000 0.31931  0.94700  0.41834  Biso   1.000  C
  H126     1.0000 0.31210  0.84060  0.41220  Biso   1.000  H
  C148     1.0000 0.35833  0.98460  0.44411  Biso   1.000  C
  H127     1.0000 0.37750  0.90450  0.45580  Biso   1.000  H
  C149     1.0000 0.24652  0.01490  0.37251  Biso   1.000  C
  C150     1.0000 0.56117  0.17680  0.62220  Biso   1.000  C
  H128     1.0000 0.54350  0.14390  0.63390  Biso   1.000  H
  H129     1.0000 0.57750  0.26610  0.63760  Biso   1.000  H
  C151     1.0000 0.60353  0.94900  0.65538  Biso   1.000  C
  C152     1.0000 0.62410  0.81740  0.65070  Biso   1.000  C
  H130     1.0000 0.62680  0.80300  0.62710  Biso   1.000  H
  C153     1.0000 0.64020  0.71060  0.68180  Biso   1.000  C
  H131     1.0000 0.65240  0.61900  0.67840  Biso   1.000  H
  C154     1.0000 0.63881  0.73360  0.71777  Biso   1.000  C
  C155     1.0000 0.61990  0.86460  0.72235  Biso   1.000  C
  H132     1.0000 0.61870  0.88090  0.74670  Biso   1.000  H
  C156     1.0000 0.60240  0.97410  0.69150  Biso   1.000  C
  H133     1.0000 0.58980  0.06440  0.69520  Biso   1.000  H
  C157     1.0000 0.65630  0.61430  0.75220  Biso   1.000  C
  C158     1.0000 0.55201  0.42510  0.49466  Biso   1.000  C
  H134     1.0000 0.53070  0.48200  0.47240  Biso   1.000  H
  H135     1.0000 0.57080  0.50240  0.51310  Biso   1.000  H
  C159     1.0000 0.58677  0.39050  0.45489  Biso   1.000  C
  C160     1.0000 0.58767  0.55240  0.44831  Biso   1.000  C
  H136     1.0000 0.57750  0.62410  0.46070  Biso   1.000  H
  C161     1.0000 0.60380  0.60730  0.42310  Biso   1.000  C
  H137     1.0000 0.60550  0.71630  0.41960  Biso   1.000  H
  C162     1.0000 0.61760  0.49960  0.40290  Biso   1.000  C
  C163     1.0000 0.61720  0.34210  0.40980  Biso   1.000  C
  H138     1.0000 0.62770  0.27100  0.39760  Biso   1.000  H
  C164     1.0000 0.60110  0.28440  0.43540  Biso   1.000  C
  H139     1.0000 0.60010  0.17530  0.43930  Biso   1.000  H
  C165     1.0000 0.63380  0.56330  0.37460  Biso   1.000  C
  H140     1.0000 0.62100  0.80330  0.37860  Biso   1.000  H
  Zn6      1.0000 0.66925  0.53267  0.32298  Biso   1.000  Zn
  O46      1.0000 0.90766  0.69700  0.47786  Biso   1.000  O
  O47      1.0000 0.08638  0.54650  0.62169  Biso   1.000  O
  O48      1.0000 0.07270  0.82090  0.47952  Biso   1.000  O
  O49      1.0000 0.73730  0.37630  0.36743  Biso   1.000  O
  O50      1.0000 0.72138  0.63200  0.35530  Biso   1.000  O
  O51      1.0000 0.15352  0.13750  0.78289  Biso   1.000  O
  O52      1.0000 0.17790  0.01190  0.74970  Biso   1.000  O
  O53      1.0000 0.14448  0.95970  0.35730  Biso   1.000  O
  O54      1.0000 0.13640  0.21830  0.37230  Biso   1.000  O
  C166     1.0000 0.99839  0.65370  0.55664  Biso   1.000  C
  C167     1.0000 0.03704  0.71970  0.57809  Biso   1.000  C
  C168     1.0000 0.05550  0.80550  0.55836  Biso   1.000  C
  C169     1.0000 0.03442  0.82700  0.51622  Biso   1.000  C
  C170     1.0000 0.99698  0.75380  0.49426  Biso   1.000  C
  C171     1.0000 0.97939  0.66220  0.51515  Biso   1.000  C
  C172     1.0000 0.97740  0.57680  0.57950  Biso   1.000  C
  H141     1.0000 0.99500  0.58050  0.60810  Biso   1.000  H
  H142     1.0000 0.97100  0.46790  0.57100  Biso   1.000  H
  H143     1.0000 0.95280  0.63360  0.57370  Biso   1.000  H
  C173     1.0000 0.09797  0.86980  0.58151  Biso   1.000  C
  H144     1.0000 0.10800  0.84530  0.60980  Biso   1.000  H
  H145     1.0000 0.09770  0.98320  0.57800  Biso   1.000  H
  H146     1.0000 0.11520  0.82170  0.57140  Biso   1.000  H
  C174     1.0000 0.97548  0.76960  0.44861  Biso   1.000  C
  H147     1.0000 0.95030  0.71300  0.43820  Biso   1.000  H
  H148     1.0000 0.99210  0.72570  0.43730  Biso   1.000  H
  H149     1.0000 0.97040  0.88010  0.44140  Biso   1.000  H
  C175     1.0000 0.93986  0.57690  0.49087  Biso   1.000  C
  H150     1.0000 0.94010  0.52530  0.46750  Biso   1.000  H
  H151     1.0000 0.93560  0.49630  0.50740  Biso   1.000  H
  C176     1.0000 0.86939  0.64380  0.45279  Biso   1.000  C
  C177     1.0000 0.84009  0.76290  0.43712  Biso   1.000  C
  H152     1.0000 0.84710  0.86910  0.44370  Biso   1.000  H
  C178     1.0000 0.80047  0.72090  0.41161  Biso   1.000  C
  H153     1.0000 0.78070  0.79960  0.40150  Biso   1.000  H
  C179     1.0000 0.78993  0.56400  0.40095  Biso   1.000  C
  C180     1.0000 0.81931  0.44700  0.41834  Biso   1.000  C
  H154     1.0000 0.81210  0.34060  0.41220  Biso   1.000  H
  C181     1.0000 0.85833  0.48460  0.44411  Biso   1.000  C
  H155     1.0000 0.87750  0.40450  0.45580  Biso   1.000  H
  C182     1.0000 0.74652  0.51490  0.37251  Biso   1.000  C
  C183     1.0000 0.06117  0.67680  0.62220  Biso   1.000  C
  H156     1.0000 0.04350  0.64390  0.63390  Biso   1.000  H
  H157     1.0000 0.07750  0.76610  0.63760  Biso   1.000  H
  C184     1.0000 0.10353  0.44900  0.65538  Biso   1.000  C
  C185     1.0000 0.12410  0.31740  0.65070  Biso   1.000  C
  H158     1.0000 0.12680  0.30300  0.62710  Biso   1.000  H
  C186     1.0000 0.14020  0.21060  0.68180  Biso   1.000  C
  H159     1.0000 0.15240  0.11900  0.67840  Biso   1.000  H
  C187     1.0000 0.13881  0.23360  0.71777  Biso   1.000  C
  C188     1.0000 0.11990  0.36460  0.72235  Biso   1.000  C
  H160     1.0000 0.11870  0.38090  0.74670  Biso   1.000  H
  C189     1.0000 0.10240  0.47410  0.69150  Biso   1.000  C
  H161     1.0000 0.08980  0.56440  0.69520  Biso   1.000  H
  C190     1.0000 0.15630  0.11430  0.75220  Biso   1.000  C
  C191     1.0000 0.05201  0.92510  0.49466  Biso   1.000  C
  H162     1.0000 0.03070  0.98200  0.47240  Biso   1.000  H
  H163     1.0000 0.07080  0.00240  0.51310  Biso   1.000  H
  C192     1.0000 0.08677  0.89050  0.45489  Biso   1.000  C
  C193     1.0000 0.08767  0.05240  0.44831  Biso   1.000  C
  H164     1.0000 0.07750  0.12410  0.46070  Biso   1.000  H
  C194     1.0000 0.10380  0.10730  0.42310  Biso   1.000  C
  H165     1.0000 0.10550  0.21630  0.41960  Biso   1.000  H
  C195     1.0000 0.11760  0.99960  0.40290  Biso   1.000  C
  C196     1.0000 0.11720  0.84210  0.40980  Biso   1.000  C
  H166     1.0000 0.12770  0.77100  0.39760  Biso   1.000  H
  C197     1.0000 0.10110  0.78440  0.43540  Biso   1.000  C
  H167     1.0000 0.10010  0.67530  0.43930  Biso   1.000  H
  C198     1.0000 0.13380  0.06330  0.37460  Biso   1.000  C
  H168     1.0000 0.12100  0.30330  0.37860  Biso   1.000  H
  Zn7      1.0000 0.16925  0.96733  0.82298  Biso   1.000  Zn
  O55      1.0000 0.40766  0.80300  0.97786  Biso   1.000  O
  O56      1.0000 0.58638  0.95350  0.12169  Biso   1.000  O
  O57      1.0000 0.57270  0.67910  0.97952  Biso   1.000  O
  O58      1.0000 0.23730  0.12370  0.86743  Biso   1.000  O
  O59      1.0000 0.22138  0.86800  0.85530  Biso   1.000  O
  O60      1.0000 0.65352  0.36250  0.28289  Biso   1.000  O
  O61      1.0000 0.67790  0.48810  0.24970  Biso   1.000  O
  O62      1.0000 0.64448  0.54030  0.85730  Biso   1.000  O
  O63      1.0000 0.63640  0.28170  0.87230  Biso   1.000  O
  C199     1.0000 0.49839  0.84630  0.05664  Biso   1.000  C
  C200     1.0000 0.53704  0.78030  0.07809  Biso   1.000  C
  C201     1.0000 0.55550  0.69450  0.05836  Biso   1.000  C
  C202     1.0000 0.53442  0.67300  0.01622  Biso   1.000  C
  C203     1.0000 0.49698  0.74620  0.99426  Biso   1.000  C
  C204     1.0000 0.47939  0.83780  0.01515  Biso   1.000  C
  C205     1.0000 0.47740  0.92320  0.07950  Biso   1.000  C
  H169     1.0000 0.49500  0.91950  0.10810  Biso   1.000  H
  H170     1.0000 0.47100  0.03210  0.07100  Biso   1.000  H
  H171     1.0000 0.45280  0.86640  0.07370  Biso   1.000  H
  C206     1.0000 0.59797  0.63020  0.08151  Biso   1.000  C
  H172     1.0000 0.60800  0.65470  0.10980  Biso   1.000  H
  H173     1.0000 0.59770  0.51680  0.07800  Biso   1.000  H
  H174     1.0000 0.61520  0.67830  0.07140  Biso   1.000  H
  C207     1.0000 0.47548  0.73040  0.94861  Biso   1.000  C
  H175     1.0000 0.45030  0.78700  0.93820  Biso   1.000  H
  H176     1.0000 0.49210  0.77430  0.93730  Biso   1.000  H
  H177     1.0000 0.47040  0.61990  0.94140  Biso   1.000  H
  C208     1.0000 0.43986  0.92310  0.99087  Biso   1.000  C
  H178     1.0000 0.44010  0.97470  0.96750  Biso   1.000  H
  H179     1.0000 0.43560  0.00370  0.00740  Biso   1.000  H
  C209     1.0000 0.36939  0.85620  0.95279  Biso   1.000  C
  C210     1.0000 0.34009  0.73710  0.93712  Biso   1.000  C
  H180     1.0000 0.34710  0.63090  0.94370  Biso   1.000  H
  C211     1.0000 0.30047  0.77910  0.91161  Biso   1.000  C
  H181     1.0000 0.28070  0.70040  0.90150  Biso   1.000  H
  C212     1.0000 0.28993  0.93600  0.90095  Biso   1.000  C
  C213     1.0000 0.31931  0.05300  0.91834  Biso   1.000  C
  H182     1.0000 0.31210  0.15940  0.91220  Biso   1.000  H
  C214     1.0000 0.35833  0.01540  0.94411  Biso   1.000  C
  H183     1.0000 0.37750  0.09550  0.95580  Biso   1.000  H
  C215     1.0000 0.24652  0.98510  0.87251  Biso   1.000  C
  C216     1.0000 0.56117  0.82320  0.12220  Biso   1.000  C
  H184     1.0000 0.54350  0.85610  0.13390  Biso   1.000  H
  H185     1.0000 0.57750  0.73390  0.13760  Biso   1.000  H
  C217     1.0000 0.60353  0.05100  0.15538  Biso   1.000  C
  C218     1.0000 0.62410  0.18260  0.15070  Biso   1.000  C
  H186     1.0000 0.62680  0.19700  0.12710  Biso   1.000  H
  C219     1.0000 0.64020  0.28940  0.18180  Biso   1.000  C
  H187     1.0000 0.65240  0.38100  0.17840  Biso   1.000  H
  C220     1.0000 0.63881  0.26640  0.21777  Biso   1.000  C
  C221     1.0000 0.61990  0.13540  0.22235  Biso   1.000  C
  H188     1.0000 0.61870  0.11910  0.24670  Biso   1.000  H
  C222     1.0000 0.60240  0.02590  0.19150  Biso   1.000  C
  H189     1.0000 0.58980  0.93560  0.19520  Biso   1.000  H
  C223     1.0000 0.65630  0.38570  0.25220  Biso   1.000  C
  C224     1.0000 0.55201  0.57490  0.99466  Biso   1.000  C
  H190     1.0000 0.53070  0.51800  0.97240  Biso   1.000  H
  H191     1.0000 0.57080  0.49760  0.01310  Biso   1.000  H
  C225     1.0000 0.58677  0.60950  0.95489  Biso   1.000  C
  C226     1.0000 0.58767  0.44760  0.94831  Biso   1.000  C
  H192     1.0000 0.57750  0.37590  0.96070  Biso   1.000  H
  C227     1.0000 0.60380  0.39270  0.92310  Biso   1.000  C
  H193     1.0000 0.60550  0.28370  0.91960  Biso   1.000  H
  C228     1.0000 0.61760  0.50040  0.90290  Biso   1.000  C
  C229     1.0000 0.61720  0.65790  0.90980  Biso   1.000  C
  H194     1.0000 0.62770  0.72900  0.89760  Biso   1.000  H
  C230     1.0000 0.60110  0.71560  0.93540  Biso   1.000  C
  H195     1.0000 0.60010  0.82470  0.93930  Biso   1.000  H
  C231     1.0000 0.63380  0.43670  0.87460  Biso   1.000  C
  H196     1.0000 0.62100  0.19670  0.87860  Biso   1.000  H
  Zn8      1.0000 0.66925  0.46733  0.82298  Biso   1.000  Zn
  O64      1.0000 0.90766  0.30300  0.97786  Biso   1.000  O
  O65      1.0000 0.08638  0.45350  0.12169  Biso   1.000  O
  O66      1.0000 0.07270  0.17910  0.97952  Biso   1.000  O
  O67      1.0000 0.73730  0.62370  0.86743  Biso   1.000  O
  O68      1.0000 0.72138  0.36800  0.85530  Biso   1.000  O
  O69      1.0000 0.15352  0.86250  0.28289  Biso   1.000  O
  O70      1.0000 0.17790  0.98810  0.24970  Biso   1.000  O
  O71      1.0000 0.14448  0.04030  0.85730  Biso   1.000  O
  O72      1.0000 0.13640  0.78170  0.87230  Biso   1.000  O
  C232     1.0000 0.99839  0.34630  0.05664  Biso   1.000  C
  C233     1.0000 0.03704  0.28030  0.07809  Biso   1.000  C
  C234     1.0000 0.05550  0.19450  0.05836  Biso   1.000  C
  C235     1.0000 0.03442  0.17300  0.01622  Biso   1.000  C
  C236     1.0000 0.99698  0.24620  0.99426  Biso   1.000  C
  C237     1.0000 0.97939  0.33780  0.01515  Biso   1.000  C
  C238     1.0000 0.97740  0.42320  0.07950  Biso   1.000  C
  H197     1.0000 0.99500  0.41950  0.10810  Biso   1.000  H
  H198     1.0000 0.97100  0.53210  0.07100  Biso   1.000  H
  H199     1.0000 0.95280  0.36640  0.07370  Biso   1.000  H
  C239     1.0000 0.09797  0.13020  0.08151  Biso   1.000  C
  H200     1.0000 0.10800  0.15470  0.10980  Biso   1.000  H
  H201     1.0000 0.09770  0.01680  0.07800  Biso   1.000  H
  H202     1.0000 0.11520  0.17830  0.07140  Biso   1.000  H
  C240     1.0000 0.97548  0.23040  0.94861  Biso   1.000  C
  H203     1.0000 0.95030  0.28700  0.93820  Biso   1.000  H
  H204     1.0000 0.99210  0.27430  0.93730  Biso   1.000  H
  H205     1.0000 0.97040  0.11990  0.94140  Biso   1.000  H
  C241     1.0000 0.93986  0.42310  0.99087  Biso   1.000  C
  H206     1.0000 0.94010  0.47470  0.96750  Biso   1.000  H
  H207     1.0000 0.93560  0.50370  0.00740  Biso   1.000  H
  C242     1.0000 0.86939  0.35620  0.95279  Biso   1.000  C
  C243     1.0000 0.84009  0.23710  0.93712  Biso   1.000  C
  H208     1.0000 0.84710  0.13090  0.94370  Biso   1.000  H
  C244     1.0000 0.80047  0.27910  0.91161  Biso   1.000  C
  H209     1.0000 0.78070  0.20040  0.90150  Biso   1.000  H
  C245     1.0000 0.78993  0.43600  0.90095  Biso   1.000  C
  C246     1.0000 0.81931  0.55300  0.91834  Biso   1.000  C
  H210     1.0000 0.81210  0.65940  0.91220  Biso   1.000  H
  C247     1.0000 0.85833  0.51540  0.94411  Biso   1.000  C
  H211     1.0000 0.87750  0.59550  0.95580  Biso   1.000  H
  C248     1.0000 0.74652  0.48510  0.87251  Biso   1.000  C
  C249     1.0000 0.06117  0.32320  0.12220  Biso   1.000  C
  H212     1.0000 0.04350  0.35610  0.13390  Biso   1.000  H
  H213     1.0000 0.07750  0.23390  0.13760  Biso   1.000  H
  C250     1.0000 0.10353  0.55100  0.15538  Biso   1.000  C
  C251     1.0000 0.12410  0.68260  0.15070  Biso   1.000  C
  H214     1.0000 0.12680  0.69700  0.12710  Biso   1.000  H
  C252     1.0000 0.14020  0.78940  0.18180  Biso   1.000  C
  H215     1.0000 0.15240  0.88100  0.17840  Biso   1.000  H
  C253     1.0000 0.13881  0.76640  0.21777  Biso   1.000  C
  C254     1.0000 0.11990  0.63540  0.22235  Biso   1.000  C
  H216     1.0000 0.11870  0.61910  0.24670  Biso   1.000  H
  C255     1.0000 0.10240  0.52590  0.19150  Biso   1.000  C
  H217     1.0000 0.08980  0.43560  0.19520  Biso   1.000  H
  C256     1.0000 0.15630  0.88570  0.25220  Biso   1.000  C
  C257     1.0000 0.05201  0.07490  0.99466  Biso   1.000  C
  H218     1.0000 0.03070  0.01800  0.97240  Biso   1.000  H
  H219     1.0000 0.07080  0.99760  0.01310  Biso   1.000  H
  C258     1.0000 0.08677  0.10950  0.95489  Biso   1.000  C
  C259     1.0000 0.08767  0.94760  0.94831  Biso   1.000  C
  H220     1.0000 0.07750  0.87590  0.96070  Biso   1.000  H
  C260     1.0000 0.10380  0.89270  0.92310  Biso   1.000  C
  H221     1.0000 0.10550  0.78370  0.91960  Biso   1.000  H
  C261     1.0000 0.11760  0.00040  0.90290  Biso   1.000  C
  C262     1.0000 0.11720  0.15790  0.90980  Biso   1.000  C
  H222     1.0000 0.12770  0.22900  0.89760  Biso   1.000  H
  C263     1.0000 0.10110  0.21560  0.93540  Biso   1.000  C
  H223     1.0000 0.10010  0.32470  0.93930  Biso   1.000  H
  C264     1.0000 0.13380  0.93670  0.87460  Biso   1.000  C
  H224     1.0000 0.12100  0.69670  0.87860  Biso   1.000  H
