data_image0
_cell_length_a       7.6033
_cell_length_b       9.352
_cell_length_c       15.193
_cell_angle_alpha    89.33
_cell_angle_beta     80.57
_cell_angle_gamma    85.897

_symmetry_space_group_name_H-M    "P 1"
_symmetry_int_tables_number       1

loop_
  _symmetry_equiv_pos_as_xyz
  'x, y, z'

loop_
  _atom_site_label
  _atom_site_occupancy
  _atom_site_fract_x
  _atom_site_fract_y
  _atom_site_fract_z
  _atom_site_thermal_displace_type
  _atom_site_B_iso_or_equiv
  _atom_site_type_symbol
  Zn1      1.0000 0.10546  0.37983  0.23670  Biso   1.000  Zn
  O1       1.0000 0.25550  0.13770  0.21360  Biso   1.000  O
  O2       1.0000 0.25680  0.31450  0.11860  Biso   1.000  O
  O3       1.0000 0.26060  0.45420  0.31260  Biso   1.000  O
  O4       1.0000 0.14310  0.32000  0.42220  Biso   1.000  O
  N1       1.0000 0.00300  0.56170  0.18270  Biso   1.000  N
  N2       1.0000 0.84740  0.63060  0.22870  Biso   1.000  N
  N3       1.0000 0.95620  0.76370  0.11480  Biso   1.000  N
  N4       1.0000 0.87730  0.28590  0.28290  Biso   1.000  N
  N5       1.0000 0.73650  0.28410  0.23560  Biso   1.000  N
  N6       1.0000 0.67550  0.16270  0.36040  Biso   1.000  N
  C1       1.0000 0.98000  0.88310  0.05480  Biso   1.000  C
  C2       1.0000 0.05890  0.86490  0.96820  Biso   1.000  C
  H1       1.0000 0.09900  0.77370  0.94660  Biso   1.000  H
  C3       1.0000 0.92080  0.01740  0.08750  Biso   1.000  C
  H2       1.0000 0.86730  0.02910  0.14680  Biso   1.000  H
  C4       1.0000 0.06310  0.64350  0.11680  Biso   1.000  C
  H3       1.0000 0.16680  0.62170  0.07620  Biso   1.000  H
  C5       1.0000 0.82400  0.74920  0.18550  Biso   1.000  C
  H4       1.0000 0.72790  0.81640  0.20110  Biso   1.000  H
  C6       1.0000 0.58310  0.07970  0.43300  Biso   1.000  C
  C7       1.0000 0.48920  0.96840  0.41170  Biso   1.000  C
  H5       1.0000 0.48250  0.94790  0.35260  Biso   1.000  H
  C8       1.0000 0.59590  0.11280  0.51840  Biso   1.000  C
  H6       1.0000 0.66070  0.18890  0.53020  Biso   1.000  H
  C9       1.0000 0.83610  0.21370  0.35720  Biso   1.000  C
  H7       1.0000 0.90780  0.20020  0.40110  Biso   1.000  H
  C10      1.0000 0.61840  0.20750  0.28390  Biso   1.000  C
  H8       1.0000 0.51020  0.18660  0.26780  Biso   1.000  H
  C11      1.0000 0.40350  0.09090  0.06560  Biso   1.000  C
  C12      1.0000 0.46090  0.14170  0.98150  Biso   1.000  C
  H9       1.0000 0.43520  0.23740  0.96810  Biso   1.000  H
  C13      1.0000 0.55690  0.05150  0.91630  Biso   1.000  C
  H10      1.0000 0.59500  0.08750  0.85950  Biso   1.000  H
  C14      1.0000 0.29760  0.18900  0.13780  Biso   1.000  C
  C15      1.0000 0.37870  0.45760  0.44790  Biso   1.000  C
  C16      1.0000 0.34250  0.44420  0.53900  Biso   1.000  C
  H11      1.0000 0.23650  0.40700  0.56580  Biso   1.000  H
  C17      1.0000 0.46310  0.48570  0.59140  Biso   1.000  C
  H12      1.0000 0.43800  0.47570  0.65300  Biso   1.000  H
  C18      1.0000 0.24860  0.40620  0.39220  Biso   1.000  C
  Zn2      1.0000 0.89454  0.62017  0.76330  Biso   1.000  Zn
  O5       1.0000 0.74450  0.86230  0.78640  Biso   1.000  O
  O6       1.0000 0.74320  0.68550  0.88140  Biso   1.000  O
  O7       1.0000 0.73940  0.54580  0.68740  Biso   1.000  O
  O8       1.0000 0.85690  0.68000  0.57780  Biso   1.000  O
  N7       1.0000 0.99700  0.43830  0.81730  Biso   1.000  N
  N8       1.0000 0.15260  0.36940  0.77130  Biso   1.000  N
  N9       1.0000 0.04380  0.23630  0.88520  Biso   1.000  N
  N10      1.0000 0.12270  0.71410  0.71710  Biso   1.000  N
  N11      1.0000 0.26350  0.71590  0.76440  Biso   1.000  N
  N12      1.0000 0.32450  0.83730  0.63960  Biso   1.000  N
  C19      1.0000 0.02000  0.11690  0.94520  Biso   1.000  C
  C20      1.0000 0.94110  0.13510  0.03180  Biso   1.000  C
  H13      1.0000 0.90100  0.22630  0.05340  Biso   1.000  H
  C21      1.0000 0.07920  0.98260  0.91250  Biso   1.000  C
  H14      1.0000 0.13270  0.97090  0.85320  Biso   1.000  H
  C22      1.0000 0.93690  0.35650  0.88320  Biso   1.000  C
  H15      1.0000 0.83320  0.37830  0.92380  Biso   1.000  H
  C23      1.0000 0.17600  0.25080  0.81450  Biso   1.000  C
  H16      1.0000 0.27210  0.18360  0.79890  Biso   1.000  H
  C24      1.0000 0.41690  0.92030  0.56700  Biso   1.000  C
  C25      1.0000 0.51080  0.03160  0.58830  Biso   1.000  C
  H17      1.0000 0.51750  0.05210  0.64740  Biso   1.000  H
  C26      1.0000 0.40410  0.88720  0.48160  Biso   1.000  C
  H18      1.0000 0.33930  0.81110  0.46980  Biso   1.000  H
  C27      1.0000 0.16390  0.78630  0.64280  Biso   1.000  C
  H19      1.0000 0.09220  0.79980  0.59890  Biso   1.000  H
  C28      1.0000 0.38160  0.79250  0.71610  Biso   1.000  C
  H20      1.0000 0.48980  0.81340  0.73220  Biso   1.000  H
  C29      1.0000 0.59650  0.90910  0.93440  Biso   1.000  C
  C30      1.0000 0.53910  0.85830  0.01850  Biso   1.000  C
  H21      1.0000 0.56480  0.76260  0.03190  Biso   1.000  H
  C31      1.0000 0.44310  0.94850  0.08370  Biso   1.000  C
  H22      1.0000 0.40500  0.91250  0.14050  Biso   1.000  H
  C32      1.0000 0.70240  0.81100  0.86220  Biso   1.000  C
  C33      1.0000 0.62130  0.54240  0.55210  Biso   1.000  C
  C34      1.0000 0.65750  0.55580  0.46100  Biso   1.000  C
  H23      1.0000 0.76350  0.59300  0.43420  Biso   1.000  H
  C35      1.0000 0.53690  0.51430  0.40860  Biso   1.000  C
  H24      1.0000 0.56200  0.52430  0.34700  Biso   1.000  H
  C36      1.0000 0.75140  0.59380  0.60780  Biso   1.000  C
