data_image0
_cell_length_a       11.4884
_cell_length_b       13.6513
_cell_length_c       12.7991
_cell_angle_alpha    90
_cell_angle_beta     100.92
_cell_angle_gamma    90

_symmetry_space_group_name_H-M    "P 1"
_symmetry_int_tables_number       1

loop_
  _symmetry_equiv_pos_as_xyz
  'x, y, z'

loop_
  _atom_site_label
  _atom_site_occupancy
  _atom_site_fract_x
  _atom_site_fract_y
  _atom_site_fract_z
  _atom_site_thermal_displace_type
  _atom_site_B_iso_or_equiv
  _atom_site_type_symbol
  C1       1.0000 0.96740  0.99470  0.69750  Biso   1.000  C
  C2       1.0000 0.16020  0.92080  0.66110  Biso   1.000  C
  C3       1.0000 0.21560  0.09570  0.59720  Biso   1.000  C
  C4       1.0000 0.02620  0.16510  0.63910  Biso   1.000  C
  C5       1.0000 0.15010  0.96540  0.86900  Biso   1.000  C
  C6       1.0000 0.32230  0.02720  0.78240  Biso   1.000  C
  C7       1.0000 0.22550  0.19780  0.79250  Biso   1.000  C
  C8       1.0000 0.03140  0.12760  0.83860  Biso   1.000  C
  C9       1.0000 0.46710  0.95240  0.50150  Biso   1.000  C
  Co1      1.0000 0.69825  0.91562  0.62231  Biso   1.000  Co
  Co2      1.0000 0.84265  0.21534  0.96639  Biso   1.000  Co
  N1       1.0000 0.87360  0.96490  0.67880  Biso   1.000  N
  N2       1.0000 0.17110  0.85010  0.62100  Biso   1.000  N
  N3       1.0000 0.25420  0.11220  0.52680  Biso   1.000  N
  N4       1.0000 0.96850  0.21700  0.58240  Biso   1.000  N
  N5       1.0000 0.15650  0.91250  0.94230  Biso   1.000  N
  N6       1.0000 0.42350  0.00860  0.80030  Biso   1.000  N
  N7       1.0000 0.26630  0.27270  0.82230  Biso   1.000  N
  N8       1.0000 0.97400  0.16070  0.89210  Biso   1.000  N
  O1       1.0000 0.36590  0.94610  0.44470  Biso   1.000  O
  O2       1.0000 0.51830  0.88430  0.55760  Biso   1.000  O
  W1       1.0000 0.13932  0.06166  0.73581  Biso   1.000  W
  C10      1.0000 0.03260  0.49470  0.80250  Biso   1.000  C
  C11      1.0000 0.83980  0.42080  0.83890  Biso   1.000  C
  C12      1.0000 0.78440  0.59570  0.90280  Biso   1.000  C
  C13      1.0000 0.97380  0.66510  0.86090  Biso   1.000  C
  C14      1.0000 0.84990  0.46540  0.63100  Biso   1.000  C
  C15      1.0000 0.67770  0.52720  0.71760  Biso   1.000  C
  C16      1.0000 0.77450  0.69780  0.70750  Biso   1.000  C
  C17      1.0000 0.96860  0.62760  0.66140  Biso   1.000  C
  C18      1.0000 0.53290  0.45240  0.99850  Biso   1.000  C
  Co3      1.0000 0.30175  0.41562  0.87769  Biso   1.000  Co
  Co4      1.0000 0.15735  0.71534  0.53361  Biso   1.000  Co
  N9       1.0000 0.12640  0.46490  0.82120  Biso   1.000  N
  N10      1.0000 0.82890  0.35010  0.87900  Biso   1.000  N
  N11      1.0000 0.74580  0.61220  0.97320  Biso   1.000  N
  N12      1.0000 0.03150  0.71700  0.91760  Biso   1.000  N
  N13      1.0000 0.84350  0.41250  0.55770  Biso   1.000  N
  N14      1.0000 0.57650  0.50860  0.69970  Biso   1.000  N
  N15      1.0000 0.73370  0.77270  0.67770  Biso   1.000  N
  N16      1.0000 0.02600  0.66070  0.60790  Biso   1.000  N
  O3       1.0000 0.63410  0.44610  0.05530  Biso   1.000  O
  O4       1.0000 0.48170  0.38430  0.94240  Biso   1.000  O
  W2       1.0000 0.86068  0.56166  0.76419  Biso   1.000  W
  C19      1.0000 0.03260  0.00530  0.30250  Biso   1.000  C
  C20      1.0000 0.83980  0.07920  0.33890  Biso   1.000  C
  C21      1.0000 0.78440  0.90430  0.40280  Biso   1.000  C
  C22      1.0000 0.97380  0.83490  0.36090  Biso   1.000  C
  C23      1.0000 0.84990  0.03460  0.13100  Biso   1.000  C
  C24      1.0000 0.67770  0.97280  0.21760  Biso   1.000  C
  C25      1.0000 0.77450  0.80220  0.20750  Biso   1.000  C
  C26      1.0000 0.96860  0.87240  0.16140  Biso   1.000  C
  C27      1.0000 0.53290  0.04760  0.49850  Biso   1.000  C
  Co5      1.0000 0.30175  0.08438  0.37769  Biso   1.000  Co
  Co6      1.0000 0.15735  0.78466  0.03361  Biso   1.000  Co
  N17      1.0000 0.12640  0.03510  0.32120  Biso   1.000  N
  N18      1.0000 0.82890  0.14990  0.37900  Biso   1.000  N
  N19      1.0000 0.74580  0.88780  0.47320  Biso   1.000  N
  N20      1.0000 0.03150  0.78300  0.41760  Biso   1.000  N
  N21      1.0000 0.84350  0.08750  0.05770  Biso   1.000  N
  N22      1.0000 0.57650  0.99140  0.19970  Biso   1.000  N
  N23      1.0000 0.73370  0.72730  0.17770  Biso   1.000  N
  N24      1.0000 0.02600  0.83930  0.10790  Biso   1.000  N
  O5       1.0000 0.63410  0.05390  0.55530  Biso   1.000  O
  O6       1.0000 0.48170  0.11570  0.44240  Biso   1.000  O
  W3       1.0000 0.86068  0.93834  0.26419  Biso   1.000  W
  C28      1.0000 0.96740  0.50530  0.19750  Biso   1.000  C
  C29      1.0000 0.16020  0.57920  0.16110  Biso   1.000  C
  C30      1.0000 0.21560  0.40430  0.09720  Biso   1.000  C
  C31      1.0000 0.02620  0.33490  0.13910  Biso   1.000  C
  C32      1.0000 0.15010  0.53460  0.36900  Biso   1.000  C
  C33      1.0000 0.32230  0.47280  0.28240  Biso   1.000  C
  C34      1.0000 0.22550  0.30220  0.29250  Biso   1.000  C
  C35      1.0000 0.03140  0.37240  0.33860  Biso   1.000  C
  C36      1.0000 0.46710  0.54760  0.00150  Biso   1.000  C
  Co7      1.0000 0.69825  0.58438  0.12231  Biso   1.000  Co
  Co8      1.0000 0.84265  0.28466  0.46639  Biso   1.000  Co
  N25      1.0000 0.87360  0.53510  0.17880  Biso   1.000  N
  N26      1.0000 0.17110  0.64990  0.12100  Biso   1.000  N
  N27      1.0000 0.25420  0.38780  0.02680  Biso   1.000  N
  N28      1.0000 0.96850  0.28300  0.08240  Biso   1.000  N
  N29      1.0000 0.15650  0.58750  0.44230  Biso   1.000  N
  N30      1.0000 0.42350  0.49140  0.30030  Biso   1.000  N
  N31      1.0000 0.26630  0.22730  0.32230  Biso   1.000  N
  N32      1.0000 0.97400  0.33930  0.39210  Biso   1.000  N
  O7       1.0000 0.36590  0.55390  0.94470  Biso   1.000  O
  O8       1.0000 0.51830  0.61570  0.05760  Biso   1.000  O
  W4       1.0000 0.13932  0.43834  0.23581  Biso   1.000  W
