data_image0
_cell_length_a       10.3163
_cell_length_b       10.3163
_cell_length_c       33.095
_cell_angle_alpha    90
_cell_angle_beta     90
_cell_angle_gamma    90

_symmetry_space_group_name_H-M    "P 1"
_symmetry_int_tables_number       1

loop_
  _symmetry_equiv_pos_as_xyz
  'x, y, z'

loop_
  _atom_site_label
  _atom_site_occupancy
  _atom_site_fract_x
  _atom_site_fract_y
  _atom_site_fract_z
  _atom_site_thermal_displace_type
  _atom_site_B_iso_or_equiv
  _atom_site_type_symbol
  C1       1.0000 0.14840  0.59140  0.07360  Biso   1.000  C
  H1       1.0000 0.21510  0.60330  0.05370  Biso   1.000  H
  C2       1.0000 0.17520  0.61850  0.11322  Biso   1.000  C
  C3       1.0000 0.08000  0.60040  0.14212  Biso   1.000  C
  H2       1.0000 0.09740  0.61690  0.17020  Biso   1.000  H
  C4       1.0000 0.96150  0.55780  0.12977  Biso   1.000  C
  H3       1.0000 0.89310  0.54430  0.14900  Biso   1.000  H
  C5       1.0000 0.94000  0.53370  0.08937  Biso   1.000  C
  H4       1.0000 0.85580  0.50560  0.08070  Biso   1.000  H
  C6       1.0000 0.38820  0.70160  0.09844  Biso   1.000  C
  H5       1.0000 0.41560  0.63040  0.08180  Biso   1.000  H
  H6       1.0000 0.35590  0.76980  0.08140  Biso   1.000  H
  N1       1.0000 0.03220  0.54930  0.06146  Biso   1.000  N
  N2       1.0000 0.86570  0.35150  0.01968  Biso   1.000  N
  N3       1.0000 0.85510  0.24310  0.01082  Biso   1.000  N
  N4       1.0000 0.83980  0.13340  0.00187  Biso   1.000  N
  O1       1.0000 0.29120  0.66120  0.12682  Biso   1.000  O
  C7       1.0000 0.64840  0.09140  0.57360  Biso   1.000  C
  H7       1.0000 0.71510  0.10330  0.55370  Biso   1.000  H
  C8       1.0000 0.67520  0.11850  0.61322  Biso   1.000  C
  C9       1.0000 0.58000  0.10040  0.64212  Biso   1.000  C
  H8       1.0000 0.59740  0.11690  0.67020  Biso   1.000  H
  C10      1.0000 0.46150  0.05780  0.62977  Biso   1.000  C
  H9       1.0000 0.39310  0.04430  0.64900  Biso   1.000  H
  C11      1.0000 0.44000  0.03370  0.58937  Biso   1.000  C
  H10      1.0000 0.35580  0.00560  0.58070  Biso   1.000  H
  C12      1.0000 0.88820  0.20160  0.59844  Biso   1.000  C
  H11      1.0000 0.91560  0.13040  0.58180  Biso   1.000  H
  H12      1.0000 0.85590  0.26980  0.58140  Biso   1.000  H
  N5       1.0000 0.53220  0.04930  0.56146  Biso   1.000  N
  N6       1.0000 0.36570  0.85150  0.51968  Biso   1.000  N
  N7       1.0000 0.35510  0.74310  0.51082  Biso   1.000  N
  N8       1.0000 0.33980  0.63340  0.50187  Biso   1.000  N
  O2       1.0000 0.79120  0.16120  0.62682  Biso   1.000  O
  C13      1.0000 0.35160  0.40860  0.57360  Biso   1.000  C
  H13      1.0000 0.28490  0.39670  0.55370  Biso   1.000  H
  C14      1.0000 0.32480  0.38150  0.61322  Biso   1.000  C
  C15      1.0000 0.42000  0.39960  0.64212  Biso   1.000  C
  H14      1.0000 0.40260  0.38310  0.67020  Biso   1.000  H
  C16      1.0000 0.53850  0.44220  0.62977  Biso   1.000  C
  H15      1.0000 0.60690  0.45570  0.64900  Biso   1.000  H
  C17      1.0000 0.56000  0.46630  0.58937  Biso   1.000  C
  H16      1.0000 0.64420  0.49440  0.58070  Biso   1.000  H
  C18      1.0000 0.11180  0.29840  0.59844  Biso   1.000  C
  H17      1.0000 0.08440  0.36960  0.58180  Biso   1.000  H
  H18      1.0000 0.14410  0.23020  0.58140  Biso   1.000  H
  N9       1.0000 0.46780  0.45070  0.56146  Biso   1.000  N
  N10      1.0000 0.63430  0.64850  0.51968  Biso   1.000  N
  N11      1.0000 0.64490  0.75690  0.51082  Biso   1.000  N
  N12      1.0000 0.66020  0.86660  0.50187  Biso   1.000  N
  O3       1.0000 0.20880  0.33880  0.62682  Biso   1.000  O
  C19      1.0000 0.85160  0.90860  0.07360  Biso   1.000  C
  H19      1.0000 0.78490  0.89670  0.05370  Biso   1.000  H
  C20      1.0000 0.82480  0.88150  0.11322  Biso   1.000  C
  C21      1.0000 0.92000  0.89960  0.14212  Biso   1.000  C
  H20      1.0000 0.90260  0.88310  0.17020  Biso   1.000  H
  C22      1.0000 0.03850  0.94220  0.12977  Biso   1.000  C
  H21      1.0000 0.10690  0.95570  0.14900  Biso   1.000  H
  C23      1.0000 0.06000  0.96630  0.08937  Biso   1.000  C
  H22      1.0000 0.14420  0.99440  0.08070  Biso   1.000  H
  C24      1.0000 0.61180  0.79840  0.09844  Biso   1.000  C
  H23      1.0000 0.58440  0.86960  0.08180  Biso   1.000  H
  H24      1.0000 0.64410  0.73020  0.08140  Biso   1.000  H
  N13      1.0000 0.96780  0.95070  0.06146  Biso   1.000  N
  N14      1.0000 0.13430  0.14850  0.01968  Biso   1.000  N
  N15      1.0000 0.14490  0.25690  0.01082  Biso   1.000  N
  N16      1.0000 0.16020  0.36660  0.00187  Biso   1.000  N
  O4       1.0000 0.70880  0.83880  0.12682  Biso   1.000  O
  C25      1.0000 0.15860  0.39840  0.32360  Biso   1.000  C
  H25      1.0000 0.14670  0.46510  0.30370  Biso   1.000  H
  C26      1.0000 0.13150  0.42520  0.36322  Biso   1.000  C
  C27      1.0000 0.14960  0.33000  0.39212  Biso   1.000  C
  H26      1.0000 0.13310  0.34740  0.42020  Biso   1.000  H
  C28      1.0000 0.19220  0.21150  0.37977  Biso   1.000  C
  H27      1.0000 0.20570  0.14310  0.39900  Biso   1.000  H
  C29      1.0000 0.21630  0.19000  0.33937  Biso   1.000  C
  H28      1.0000 0.24440  0.10580  0.33070  Biso   1.000  H
  C30      1.0000 0.04840  0.63820  0.34844  Biso   1.000  C
  H29      1.0000 0.11960  0.66560  0.33180  Biso   1.000  H
  H30      1.0000 0.98020  0.60590  0.33140  Biso   1.000  H
  N17      1.0000 0.20070  0.28220  0.31146  Biso   1.000  N
  N18      1.0000 0.39850  0.11570  0.26968  Biso   1.000  N
  N19      1.0000 0.50690  0.10510  0.26082  Biso   1.000  N
  N20      1.0000 0.61660  0.08980  0.25187  Biso   1.000  N
  O5       1.0000 0.08880  0.54120  0.37682  Biso   1.000  O
  C31      1.0000 0.65860  0.89840  0.82360  Biso   1.000  C
  H31      1.0000 0.64670  0.96510  0.80370  Biso   1.000  H
  C32      1.0000 0.63150  0.92520  0.86322  Biso   1.000  C
  C33      1.0000 0.64960  0.83000  0.89212  Biso   1.000  C
  H32      1.0000 0.63310  0.84740  0.92020  Biso   1.000  H
  C34      1.0000 0.69220  0.71150  0.87977  Biso   1.000  C
  H33      1.0000 0.70570  0.64310  0.89900  Biso   1.000  H
  C35      1.0000 0.71630  0.69000  0.83937  Biso   1.000  C
  H34      1.0000 0.74440  0.60580  0.83070  Biso   1.000  H
  C36      1.0000 0.54840  0.13820  0.84844  Biso   1.000  C
  H35      1.0000 0.61960  0.16560  0.83180  Biso   1.000  H
  H36      1.0000 0.48020  0.10590  0.83140  Biso   1.000  H
  N21      1.0000 0.70070  0.78220  0.81146  Biso   1.000  N
  N22      1.0000 0.89850  0.61570  0.76968  Biso   1.000  N
  N23      1.0000 0.00690  0.60510  0.76082  Biso   1.000  N
  N24      1.0000 0.11660  0.58980  0.75187  Biso   1.000  N
  O6       1.0000 0.58880  0.04120  0.87682  Biso   1.000  O
  C37      1.0000 0.34140  0.60160  0.82360  Biso   1.000  C
  H37      1.0000 0.35330  0.53490  0.80370  Biso   1.000  H
  C38      1.0000 0.36850  0.57480  0.86322  Biso   1.000  C
  C39      1.0000 0.35040  0.67000  0.89212  Biso   1.000  C
  H38      1.0000 0.36690  0.65260  0.92020  Biso   1.000  H
  C40      1.0000 0.30780  0.78850  0.87977  Biso   1.000  C
  H39      1.0000 0.29430  0.85690  0.89900  Biso   1.000  H
  C41      1.0000 0.28370  0.81000  0.83937  Biso   1.000  C
  H40      1.0000 0.25560  0.89420  0.83070  Biso   1.000  H
  C42      1.0000 0.45160  0.36180  0.84844  Biso   1.000  C
  H41      1.0000 0.38040  0.33440  0.83180  Biso   1.000  H
  H42      1.0000 0.51980  0.39410  0.83140  Biso   1.000  H
  N25      1.0000 0.29930  0.71780  0.81146  Biso   1.000  N
  N26      1.0000 0.10150  0.88430  0.76968  Biso   1.000  N
  N27      1.0000 0.99310  0.89490  0.76082  Biso   1.000  N
  N28      1.0000 0.88340  0.91020  0.75187  Biso   1.000  N
  O7       1.0000 0.41120  0.45880  0.87682  Biso   1.000  O
  C43      1.0000 0.84140  0.10160  0.32360  Biso   1.000  C
  H43      1.0000 0.85330  0.03490  0.30370  Biso   1.000  H
  C44      1.0000 0.86850  0.07480  0.36322  Biso   1.000  C
  C45      1.0000 0.85040  0.17000  0.39212  Biso   1.000  C
  H44      1.0000 0.86690  0.15260  0.42020  Biso   1.000  H
  C46      1.0000 0.80780  0.28850  0.37977  Biso   1.000  C
  H45      1.0000 0.79430  0.35690  0.39900  Biso   1.000  H
  C47      1.0000 0.78370  0.31000  0.33937  Biso   1.000  C
  H46      1.0000 0.75560  0.39420  0.33070  Biso   1.000  H
  C48      1.0000 0.95160  0.86180  0.34844  Biso   1.000  C
  H47      1.0000 0.88040  0.83440  0.33180  Biso   1.000  H
  H48      1.0000 0.01980  0.89410  0.33140  Biso   1.000  H
  N29      1.0000 0.79930  0.21780  0.31146  Biso   1.000  N
  N30      1.0000 0.60150  0.38430  0.26968  Biso   1.000  N
  N31      1.0000 0.49310  0.39490  0.26082  Biso   1.000  N
  N32      1.0000 0.38340  0.41020  0.25187  Biso   1.000  N
  O8       1.0000 0.91120  0.95880  0.37682  Biso   1.000  O
  C49      1.0000 0.85160  0.40860  0.92640  Biso   1.000  C
  H49      1.0000 0.78490  0.39670  0.94630  Biso   1.000  H
  C50      1.0000 0.82480  0.38150  0.88678  Biso   1.000  C
  C51      1.0000 0.92000  0.39960  0.85788  Biso   1.000  C
  H50      1.0000 0.90260  0.38310  0.82980  Biso   1.000  H
  C52      1.0000 0.03850  0.44220  0.87023  Biso   1.000  C
  H51      1.0000 0.10690  0.45570  0.85100  Biso   1.000  H
  C53      1.0000 0.06000  0.46630  0.91063  Biso   1.000  C
  H52      1.0000 0.14420  0.49440  0.91930  Biso   1.000  H
  C54      1.0000 0.61180  0.29840  0.90156  Biso   1.000  C
  H53      1.0000 0.58440  0.36960  0.91820  Biso   1.000  H
  H54      1.0000 0.64410  0.23020  0.91860  Biso   1.000  H
  N33      1.0000 0.96780  0.45070  0.93854  Biso   1.000  N
  N34      1.0000 0.13430  0.64850  0.98032  Biso   1.000  N
  N35      1.0000 0.14490  0.75690  0.98918  Biso   1.000  N
  N36      1.0000 0.16020  0.86660  0.99813  Biso   1.000  N
  O9       1.0000 0.70880  0.33880  0.87318  Biso   1.000  O
  C55      1.0000 0.35160  0.90860  0.42640  Biso   1.000  C
  H55      1.0000 0.28490  0.89670  0.44630  Biso   1.000  H
  C56      1.0000 0.32480  0.88150  0.38678  Biso   1.000  C
  C57      1.0000 0.42000  0.89960  0.35788  Biso   1.000  C
  H56      1.0000 0.40260  0.88310  0.32980  Biso   1.000  H
  C58      1.0000 0.53850  0.94220  0.37023  Biso   1.000  C
  H57      1.0000 0.60690  0.95570  0.35100  Biso   1.000  H
  C59      1.0000 0.56000  0.96630  0.41063  Biso   1.000  C
  H58      1.0000 0.64420  0.99440  0.41930  Biso   1.000  H
  C60      1.0000 0.11180  0.79840  0.40156  Biso   1.000  C
  H59      1.0000 0.08440  0.86960  0.41820  Biso   1.000  H
  H60      1.0000 0.14410  0.73020  0.41860  Biso   1.000  H
  N37      1.0000 0.46780  0.95070  0.43854  Biso   1.000  N
  N38      1.0000 0.63430  0.14850  0.48032  Biso   1.000  N
  N39      1.0000 0.64490  0.25690  0.48918  Biso   1.000  N
  N40      1.0000 0.66020  0.36660  0.49813  Biso   1.000  N
  O10      1.0000 0.20880  0.83880  0.37318  Biso   1.000  O
  C61      1.0000 0.64840  0.59140  0.42640  Biso   1.000  C
  H61      1.0000 0.71510  0.60330  0.44630  Biso   1.000  H
  C62      1.0000 0.67520  0.61850  0.38678  Biso   1.000  C
  C63      1.0000 0.58000  0.60040  0.35788  Biso   1.000  C
  H62      1.0000 0.59740  0.61690  0.32980  Biso   1.000  H
  C64      1.0000 0.46150  0.55780  0.37023  Biso   1.000  C
  H63      1.0000 0.39310  0.54430  0.35100  Biso   1.000  H
  C65      1.0000 0.44000  0.53370  0.41063  Biso   1.000  C
  H64      1.0000 0.35580  0.50560  0.41930  Biso   1.000  H
  C66      1.0000 0.88820  0.70160  0.40156  Biso   1.000  C
  H65      1.0000 0.91560  0.63040  0.41820  Biso   1.000  H
  H66      1.0000 0.85590  0.76980  0.41860  Biso   1.000  H
  N41      1.0000 0.53220  0.54930  0.43854  Biso   1.000  N
  N42      1.0000 0.36570  0.35150  0.48032  Biso   1.000  N
  N43      1.0000 0.35510  0.24310  0.48918  Biso   1.000  N
  N44      1.0000 0.33980  0.13340  0.49813  Biso   1.000  N
  O11      1.0000 0.79120  0.66120  0.37318  Biso   1.000  O
  C67      1.0000 0.14840  0.09140  0.92640  Biso   1.000  C
  H67      1.0000 0.21510  0.10330  0.94630  Biso   1.000  H
  C68      1.0000 0.17520  0.11850  0.88678  Biso   1.000  C
  C69      1.0000 0.08000  0.10040  0.85788  Biso   1.000  C
  H68      1.0000 0.09740  0.11690  0.82980  Biso   1.000  H
  C70      1.0000 0.96150  0.05780  0.87023  Biso   1.000  C
  H69      1.0000 0.89310  0.04430  0.85100  Biso   1.000  H
  C71      1.0000 0.94000  0.03370  0.91063  Biso   1.000  C
  H70      1.0000 0.85580  0.00560  0.91930  Biso   1.000  H
  C72      1.0000 0.38820  0.20160  0.90156  Biso   1.000  C
  H71      1.0000 0.41560  0.13040  0.91820  Biso   1.000  H
  H72      1.0000 0.35590  0.26980  0.91860  Biso   1.000  H
  N45      1.0000 0.03220  0.04930  0.93854  Biso   1.000  N
  N46      1.0000 0.86570  0.85150  0.98032  Biso   1.000  N
  N47      1.0000 0.85510  0.74310  0.98918  Biso   1.000  N
  N48      1.0000 0.83980  0.63340  0.99813  Biso   1.000  N
  O12      1.0000 0.29120  0.16120  0.87318  Biso   1.000  O
  C73      1.0000 0.84140  0.60160  0.67640  Biso   1.000  C
  H73      1.0000 0.85330  0.53490  0.69630  Biso   1.000  H
  C74      1.0000 0.86850  0.57480  0.63678  Biso   1.000  C
  C75      1.0000 0.85040  0.67000  0.60788  Biso   1.000  C
  H74      1.0000 0.86690  0.65260  0.57980  Biso   1.000  H
  C76      1.0000 0.80780  0.78850  0.62023  Biso   1.000  C
  H75      1.0000 0.79430  0.85690  0.60100  Biso   1.000  H
  C77      1.0000 0.78370  0.81000  0.66063  Biso   1.000  C
  H76      1.0000 0.75560  0.89420  0.66930  Biso   1.000  H
  C78      1.0000 0.95160  0.36180  0.65156  Biso   1.000  C
  H77      1.0000 0.88040  0.33440  0.66820  Biso   1.000  H
  H78      1.0000 0.01980  0.39410  0.66860  Biso   1.000  H
  N49      1.0000 0.79930  0.71780  0.68854  Biso   1.000  N
  N50      1.0000 0.60150  0.88430  0.73032  Biso   1.000  N
  N51      1.0000 0.49310  0.89490  0.73918  Biso   1.000  N
  N52      1.0000 0.38340  0.91020  0.74813  Biso   1.000  N
  O13      1.0000 0.91120  0.45880  0.62318  Biso   1.000  O
  C79      1.0000 0.34140  0.10160  0.17640  Biso   1.000  C
  H79      1.0000 0.35330  0.03490  0.19630  Biso   1.000  H
  C80      1.0000 0.36850  0.07480  0.13678  Biso   1.000  C
  C81      1.0000 0.35040  0.17000  0.10788  Biso   1.000  C
  H80      1.0000 0.36690  0.15260  0.07980  Biso   1.000  H
  C82      1.0000 0.30780  0.28850  0.12023  Biso   1.000  C
  H81      1.0000 0.29430  0.35690  0.10100  Biso   1.000  H
  C83      1.0000 0.28370  0.31000  0.16063  Biso   1.000  C
  H82      1.0000 0.25560  0.39420  0.16930  Biso   1.000  H
  C84      1.0000 0.45160  0.86180  0.15156  Biso   1.000  C
  H83      1.0000 0.38040  0.83440  0.16820  Biso   1.000  H
  H84      1.0000 0.51980  0.89410  0.16860  Biso   1.000  H
  N53      1.0000 0.29930  0.21780  0.18854  Biso   1.000  N
  N54      1.0000 0.10150  0.38430  0.23032  Biso   1.000  N
  N55      1.0000 0.99310  0.39490  0.23918  Biso   1.000  N
  N56      1.0000 0.88340  0.41020  0.24813  Biso   1.000  N
  O14      1.0000 0.41120  0.95880  0.12318  Biso   1.000  O
  C85      1.0000 0.65860  0.39840  0.17640  Biso   1.000  C
  H85      1.0000 0.64670  0.46510  0.19630  Biso   1.000  H
  C86      1.0000 0.63150  0.42520  0.13678  Biso   1.000  C
  C87      1.0000 0.64960  0.33000  0.10788  Biso   1.000  C
  H86      1.0000 0.63310  0.34740  0.07980  Biso   1.000  H
  C88      1.0000 0.69220  0.21150  0.12023  Biso   1.000  C
  H87      1.0000 0.70570  0.14310  0.10100  Biso   1.000  H
  C89      1.0000 0.71630  0.19000  0.16063  Biso   1.000  C
  H88      1.0000 0.74440  0.10580  0.16930  Biso   1.000  H
  C90      1.0000 0.54840  0.63820  0.15156  Biso   1.000  C
  H89      1.0000 0.61960  0.66560  0.16820  Biso   1.000  H
  H90      1.0000 0.48020  0.60590  0.16860  Biso   1.000  H
  N57      1.0000 0.70070  0.28220  0.18854  Biso   1.000  N
  N58      1.0000 0.89850  0.11570  0.23032  Biso   1.000  N
  N59      1.0000 0.00690  0.10510  0.23918  Biso   1.000  N
  N60      1.0000 0.11660  0.08980  0.24813  Biso   1.000  N
  O15      1.0000 0.58880  0.54120  0.12318  Biso   1.000  O
  C91      1.0000 0.15860  0.89840  0.67640  Biso   1.000  C
  H91      1.0000 0.14670  0.96510  0.69630  Biso   1.000  H
  C92      1.0000 0.13150  0.92520  0.63678  Biso   1.000  C
  C93      1.0000 0.14960  0.83000  0.60788  Biso   1.000  C
  H92      1.0000 0.13310  0.84740  0.57980  Biso   1.000  H
  C94      1.0000 0.19220  0.71150  0.62023  Biso   1.000  C
  H93      1.0000 0.20570  0.64310  0.60100  Biso   1.000  H
  C95      1.0000 0.21630  0.69000  0.66063  Biso   1.000  C
  H94      1.0000 0.24440  0.60580  0.66930  Biso   1.000  H
  C96      1.0000 0.04840  0.13820  0.65156  Biso   1.000  C
  H95      1.0000 0.11960  0.16560  0.66820  Biso   1.000  H
  H96      1.0000 0.98020  0.10590  0.66860  Biso   1.000  H
  N61      1.0000 0.20070  0.78220  0.68854  Biso   1.000  N
  N62      1.0000 0.39850  0.61570  0.73032  Biso   1.000  N
  N63      1.0000 0.50690  0.60510  0.73918  Biso   1.000  N
  N64      1.0000 0.61660  0.58980  0.74813  Biso   1.000  N
  O16      1.0000 0.08880  0.04120  0.62318  Biso   1.000  O
  C97      1.0000 0.50000  0.75000  0.12500  Biso   1.000  C
  C98      1.0000 0.00000  0.25000  0.62500  Biso   1.000  C
  C99      1.0000 0.00000  0.75000  0.37500  Biso   1.000  C
  C100     1.0000 0.50000  0.25000  0.87500  Biso   1.000  C
  Co1      1.0000 0.00000  0.50000  0.00000  Biso   1.000  Co
  Co2      1.0000 0.50000  0.00000  0.50000  Biso   1.000  Co
  Co3      1.0000 0.50000  0.50000  0.50000  Biso   1.000  Co
  Co4      1.0000 0.00000  0.00000  0.00000  Biso   1.000  Co
  Co5      1.0000 0.25000  0.25000  0.25000  Biso   1.000  Co
  Co6      1.0000 0.75000  0.75000  0.75000  Biso   1.000  Co
  Co7      1.0000 0.25000  0.75000  0.75000  Biso   1.000  Co
  Co8      1.0000 0.75000  0.25000  0.25000  Biso   1.000  Co
