data_image0
_cell_length_a       24.8718
_cell_length_b       13.7591
_cell_length_c       13.6832
_cell_angle_alpha    90
_cell_angle_beta     98.949
_cell_angle_gamma    90

_symmetry_space_group_name_H-M    "P 1"
_symmetry_int_tables_number       1

loop_
  _symmetry_equiv_pos_as_xyz
  'x, y, z'

loop_
  _atom_site_label
  _atom_site_occupancy
  _atom_site_fract_x
  _atom_site_fract_y
  _atom_site_fract_z
  _atom_site_thermal_displace_type
  _atom_site_B_iso_or_equiv
  _atom_site_type_symbol
  Nd1      1.0000 0.16993  0.21598  0.46114  Biso   1.000  Nd
  C1       1.0000 0.07445  0.28171  0.53794  Biso   1.000  C
  C2       1.0000 0.02339  0.31325  0.57545  Biso   1.000  C
  C3       1.0000 0.98491  0.24410  0.59280  Biso   1.000  C
  H1       1.0000 0.99210  0.17800  0.58800  Biso   1.000  H
  C4       1.0000 0.93579  0.27560  0.61740  Biso   1.000  C
  H2       1.0000 0.90990  0.22960  0.62790  Biso   1.000  H
  C5       1.0000 0.92389  0.37343  0.62696  Biso   1.000  C
  C6       1.0000 0.96297  0.44110  0.61123  Biso   1.000  C
  H3       1.0000 0.95620  0.50720  0.61690  Biso   1.000  H
  C7       1.0000 0.01210  0.40952  0.58702  Biso   1.000  C
  H4       1.0000 0.03840  0.45540  0.57830  Biso   1.000  H
  C8       1.0000 0.86872  0.40076  0.64894  Biso   1.000  C
  C9       1.0000 0.84673  0.34646  0.71905  Biso   1.000  C
  H5       1.0000 0.86780  0.29910  0.75530  Biso   1.000  H
  C10      1.0000 0.79315  0.36262  0.73541  Biso   1.000  C
  C11      1.0000 0.76212  0.43227  0.67891  Biso   1.000  C
  H6       1.0000 0.72570  0.44020  0.68520  Biso   1.000  H
  C12      1.0000 0.78493  0.49013  0.61314  Biso   1.000  C
  C13      1.0000 0.83883  0.47531  0.59998  Biso   1.000  C
  H7       1.0000 0.85460  0.51590  0.55810  Biso   1.000  H
  C14      1.0000 0.77148  0.30586  0.81514  Biso   1.000  C
  C15      1.0000 0.75045  0.56796  0.55919  Biso   1.000  C
  O1       1.0000 0.10647  0.34469  0.51580  Biso   1.000  O
  O2       1.0000 0.08320  0.19170  0.52801  Biso   1.000  O
  O3       1.0000 0.77221  0.64288  0.52902  Biso   1.000  O
  O4       1.0000 0.69943  0.55746  0.54456  Biso   1.000  O
  O5       1.0000 0.72277  0.32574  0.82768  Biso   1.000  O
  O6       1.0000 0.80151  0.24627  0.86159  Biso   1.000  O
  Nd2      1.0000 0.66993  0.71598  0.46114  Biso   1.000  Nd
  C16      1.0000 0.57445  0.78171  0.53794  Biso   1.000  C
  C17      1.0000 0.52339  0.81325  0.57545  Biso   1.000  C
  C18      1.0000 0.48491  0.74410  0.59280  Biso   1.000  C
  H8       1.0000 0.49210  0.67800  0.58800  Biso   1.000  H
  C19      1.0000 0.43579  0.77560  0.61740  Biso   1.000  C
  H9       1.0000 0.40990  0.72960  0.62790  Biso   1.000  H
  C20      1.0000 0.42389  0.87343  0.62696  Biso   1.000  C
  C21      1.0000 0.46297  0.94110  0.61123  Biso   1.000  C
  H10      1.0000 0.45620  0.00720  0.61690  Biso   1.000  H
  C22      1.0000 0.51210  0.90952  0.58702  Biso   1.000  C
  H11      1.0000 0.53840  0.95540  0.57830  Biso   1.000  H
  C23      1.0000 0.36872  0.90076  0.64894  Biso   1.000  C
  C24      1.0000 0.34673  0.84646  0.71905  Biso   1.000  C
  H12      1.0000 0.36780  0.79910  0.75530  Biso   1.000  H
  C25      1.0000 0.29315  0.86262  0.73541  Biso   1.000  C
  C26      1.0000 0.26212  0.93227  0.67891  Biso   1.000  C
  H13      1.0000 0.22570  0.94020  0.68520  Biso   1.000  H
  C27      1.0000 0.28493  0.99013  0.61314  Biso   1.000  C
  C28      1.0000 0.33883  0.97531  0.59998  Biso   1.000  C
  H14      1.0000 0.35460  0.01590  0.55810  Biso   1.000  H
  C29      1.0000 0.27148  0.80586  0.81514  Biso   1.000  C
  C30      1.0000 0.25045  0.06796  0.55919  Biso   1.000  C
  O7       1.0000 0.60647  0.84469  0.51580  Biso   1.000  O
  O8       1.0000 0.58320  0.69170  0.52801  Biso   1.000  O
  O9       1.0000 0.27221  0.14288  0.52902  Biso   1.000  O
  O10      1.0000 0.19943  0.05746  0.54456  Biso   1.000  O
  O11      1.0000 0.22277  0.82574  0.82768  Biso   1.000  O
  O12      1.0000 0.30151  0.74627  0.86159  Biso   1.000  O
  Nd3      1.0000 0.83007  0.21598  0.03886  Biso   1.000  Nd
  C31      1.0000 0.92555  0.28171  0.96206  Biso   1.000  C
  C32      1.0000 0.97661  0.31325  0.92455  Biso   1.000  C
  C33      1.0000 0.01509  0.24410  0.90720  Biso   1.000  C
  H15      1.0000 0.00790  0.17800  0.91200  Biso   1.000  H
  C34      1.0000 0.06421  0.27560  0.88260  Biso   1.000  C
  H16      1.0000 0.09010  0.22960  0.87210  Biso   1.000  H
  C35      1.0000 0.07611  0.37343  0.87304  Biso   1.000  C
  C36      1.0000 0.03703  0.44110  0.88877  Biso   1.000  C
  H17      1.0000 0.04380  0.50720  0.88310  Biso   1.000  H
  C37      1.0000 0.98790  0.40952  0.91298  Biso   1.000  C
  H18      1.0000 0.96160  0.45540  0.92170  Biso   1.000  H
  C38      1.0000 0.13128  0.40076  0.85106  Biso   1.000  C
  C39      1.0000 0.15327  0.34646  0.78095  Biso   1.000  C
  H19      1.0000 0.13220  0.29910  0.74470  Biso   1.000  H
  C40      1.0000 0.20685  0.36262  0.76459  Biso   1.000  C
  C41      1.0000 0.23788  0.43227  0.82109  Biso   1.000  C
  H20      1.0000 0.27430  0.44020  0.81480  Biso   1.000  H
  C42      1.0000 0.21507  0.49013  0.88686  Biso   1.000  C
  C43      1.0000 0.16117  0.47531  0.90002  Biso   1.000  C
  H21      1.0000 0.14540  0.51590  0.94190  Biso   1.000  H
  C44      1.0000 0.22852  0.30586  0.68486  Biso   1.000  C
  C45      1.0000 0.24955  0.56796  0.94081  Biso   1.000  C
  O13      1.0000 0.89353  0.34469  0.98420  Biso   1.000  O
  O14      1.0000 0.91680  0.19170  0.97199  Biso   1.000  O
  O15      1.0000 0.22779  0.64288  0.97098  Biso   1.000  O
  O16      1.0000 0.30057  0.55746  0.95544  Biso   1.000  O
  O17      1.0000 0.27723  0.32574  0.67232  Biso   1.000  O
  O18      1.0000 0.19849  0.24627  0.63841  Biso   1.000  O
  Nd4      1.0000 0.33007  0.71598  0.03886  Biso   1.000  Nd
  C46      1.0000 0.42555  0.78171  0.96206  Biso   1.000  C
  C47      1.0000 0.47661  0.81325  0.92455  Biso   1.000  C
  C48      1.0000 0.51509  0.74410  0.90720  Biso   1.000  C
  H22      1.0000 0.50790  0.67800  0.91200  Biso   1.000  H
  C49      1.0000 0.56421  0.77560  0.88260  Biso   1.000  C
  H23      1.0000 0.59010  0.72960  0.87210  Biso   1.000  H
  C50      1.0000 0.57611  0.87343  0.87304  Biso   1.000  C
  C51      1.0000 0.53703  0.94110  0.88877  Biso   1.000  C
  H24      1.0000 0.54380  0.00720  0.88310  Biso   1.000  H
  C52      1.0000 0.48790  0.90952  0.91298  Biso   1.000  C
  H25      1.0000 0.46160  0.95540  0.92170  Biso   1.000  H
  C53      1.0000 0.63128  0.90076  0.85106  Biso   1.000  C
  C54      1.0000 0.65327  0.84646  0.78095  Biso   1.000  C
  H26      1.0000 0.63220  0.79910  0.74470  Biso   1.000  H
  C55      1.0000 0.70685  0.86262  0.76459  Biso   1.000  C
  C56      1.0000 0.73788  0.93227  0.82109  Biso   1.000  C
  H27      1.0000 0.77430  0.94020  0.81480  Biso   1.000  H
  C57      1.0000 0.71507  0.99013  0.88686  Biso   1.000  C
  C58      1.0000 0.66117  0.97531  0.90002  Biso   1.000  C
  H28      1.0000 0.64540  0.01590  0.94190  Biso   1.000  H
  C59      1.0000 0.72852  0.80586  0.68486  Biso   1.000  C
  C60      1.0000 0.74955  0.06796  0.94081  Biso   1.000  C
  O19      1.0000 0.39353  0.84469  0.98420  Biso   1.000  O
  O20      1.0000 0.41680  0.69170  0.97199  Biso   1.000  O
  O21      1.0000 0.72779  0.14288  0.97098  Biso   1.000  O
  O22      1.0000 0.80057  0.05746  0.95544  Biso   1.000  O
  O23      1.0000 0.77723  0.82574  0.67232  Biso   1.000  O
  O24      1.0000 0.69849  0.74627  0.63841  Biso   1.000  O
  Nd5      1.0000 0.83007  0.78402  0.53886  Biso   1.000  Nd
  C61      1.0000 0.92555  0.71829  0.46206  Biso   1.000  C
  C62      1.0000 0.97661  0.68675  0.42455  Biso   1.000  C
  C63      1.0000 0.01509  0.75590  0.40720  Biso   1.000  C
  H29      1.0000 0.00790  0.82200  0.41200  Biso   1.000  H
  C64      1.0000 0.06421  0.72440  0.38260  Biso   1.000  C
  H30      1.0000 0.09010  0.77040  0.37210  Biso   1.000  H
  C65      1.0000 0.07611  0.62657  0.37304  Biso   1.000  C
  C66      1.0000 0.03703  0.55890  0.38877  Biso   1.000  C
  H31      1.0000 0.04380  0.49280  0.38310  Biso   1.000  H
  C67      1.0000 0.98790  0.59048  0.41298  Biso   1.000  C
  H32      1.0000 0.96160  0.54460  0.42170  Biso   1.000  H
  C68      1.0000 0.13128  0.59924  0.35106  Biso   1.000  C
  C69      1.0000 0.15327  0.65354  0.28095  Biso   1.000  C
  H33      1.0000 0.13220  0.70090  0.24470  Biso   1.000  H
  C70      1.0000 0.20685  0.63738  0.26459  Biso   1.000  C
  C71      1.0000 0.23788  0.56773  0.32109  Biso   1.000  C
  H34      1.0000 0.27430  0.55980  0.31480  Biso   1.000  H
  C72      1.0000 0.21507  0.50987  0.38686  Biso   1.000  C
  C73      1.0000 0.16117  0.52469  0.40002  Biso   1.000  C
  H35      1.0000 0.14540  0.48410  0.44190  Biso   1.000  H
  C74      1.0000 0.22852  0.69414  0.18486  Biso   1.000  C
  C75      1.0000 0.24955  0.43204  0.44081  Biso   1.000  C
  O25      1.0000 0.89353  0.65531  0.48420  Biso   1.000  O
  O26      1.0000 0.91680  0.80830  0.47199  Biso   1.000  O
  O27      1.0000 0.22779  0.35712  0.47098  Biso   1.000  O
  O28      1.0000 0.30057  0.44254  0.45544  Biso   1.000  O
  O29      1.0000 0.27723  0.67426  0.17232  Biso   1.000  O
  O30      1.0000 0.19849  0.75373  0.13841  Biso   1.000  O
  Nd6      1.0000 0.33007  0.28402  0.53886  Biso   1.000  Nd
  C76      1.0000 0.42555  0.21829  0.46206  Biso   1.000  C
  C77      1.0000 0.47661  0.18675  0.42455  Biso   1.000  C
  C78      1.0000 0.51509  0.25590  0.40720  Biso   1.000  C
  H36      1.0000 0.50790  0.32200  0.41200  Biso   1.000  H
  C79      1.0000 0.56421  0.22440  0.38260  Biso   1.000  C
  H37      1.0000 0.59010  0.27040  0.37210  Biso   1.000  H
  C80      1.0000 0.57611  0.12657  0.37304  Biso   1.000  C
  C81      1.0000 0.53703  0.05890  0.38877  Biso   1.000  C
  H38      1.0000 0.54380  0.99280  0.38310  Biso   1.000  H
  C82      1.0000 0.48790  0.09048  0.41298  Biso   1.000  C
  H39      1.0000 0.46160  0.04460  0.42170  Biso   1.000  H
  C83      1.0000 0.63128  0.09924  0.35106  Biso   1.000  C
  C84      1.0000 0.65327  0.15354  0.28095  Biso   1.000  C
  H40      1.0000 0.63220  0.20090  0.24470  Biso   1.000  H
  C85      1.0000 0.70685  0.13738  0.26459  Biso   1.000  C
  C86      1.0000 0.73788  0.06773  0.32109  Biso   1.000  C
  H41      1.0000 0.77430  0.05980  0.31480  Biso   1.000  H
  C87      1.0000 0.71507  0.00987  0.38686  Biso   1.000  C
  C88      1.0000 0.66117  0.02469  0.40002  Biso   1.000  C
  H42      1.0000 0.64540  0.98410  0.44190  Biso   1.000  H
  C89      1.0000 0.72852  0.19414  0.18486  Biso   1.000  C
  C90      1.0000 0.74955  0.93204  0.44081  Biso   1.000  C
  O31      1.0000 0.39353  0.15531  0.48420  Biso   1.000  O
  O32      1.0000 0.41680  0.30830  0.47199  Biso   1.000  O
  O33      1.0000 0.72779  0.85712  0.47098  Biso   1.000  O
  O34      1.0000 0.80057  0.94254  0.45544  Biso   1.000  O
  O35      1.0000 0.77723  0.17426  0.17232  Biso   1.000  O
  O36      1.0000 0.69849  0.25373  0.13841  Biso   1.000  O
  Nd7      1.0000 0.16993  0.78402  0.96114  Biso   1.000  Nd
  C91      1.0000 0.07445  0.71829  0.03794  Biso   1.000  C
  C92      1.0000 0.02339  0.68675  0.07545  Biso   1.000  C
  C93      1.0000 0.98491  0.75590  0.09280  Biso   1.000  C
  H43      1.0000 0.99210  0.82200  0.08800  Biso   1.000  H
  C94      1.0000 0.93579  0.72440  0.11740  Biso   1.000  C
  H44      1.0000 0.90990  0.77040  0.12790  Biso   1.000  H
  C95      1.0000 0.92389  0.62657  0.12696  Biso   1.000  C
  C96      1.0000 0.96297  0.55890  0.11123  Biso   1.000  C
  H45      1.0000 0.95620  0.49280  0.11690  Biso   1.000  H
  C97      1.0000 0.01210  0.59048  0.08702  Biso   1.000  C
  H46      1.0000 0.03840  0.54460  0.07830  Biso   1.000  H
  C98      1.0000 0.86872  0.59924  0.14894  Biso   1.000  C
  C99      1.0000 0.84673  0.65354  0.21905  Biso   1.000  C
  H47      1.0000 0.86780  0.70090  0.25530  Biso   1.000  H
  C100     1.0000 0.79315  0.63738  0.23541  Biso   1.000  C
  C101     1.0000 0.76212  0.56773  0.17891  Biso   1.000  C
  H48      1.0000 0.72570  0.55980  0.18520  Biso   1.000  H
  C102     1.0000 0.78493  0.50987  0.11314  Biso   1.000  C
  C103     1.0000 0.83883  0.52469  0.09998  Biso   1.000  C
  H49      1.0000 0.85460  0.48410  0.05810  Biso   1.000  H
  C104     1.0000 0.77148  0.69414  0.31514  Biso   1.000  C
  C105     1.0000 0.75045  0.43204  0.05919  Biso   1.000  C
  O37      1.0000 0.10647  0.65531  0.01580  Biso   1.000  O
  O38      1.0000 0.08320  0.80830  0.02801  Biso   1.000  O
  O39      1.0000 0.77221  0.35712  0.02902  Biso   1.000  O
  O40      1.0000 0.69943  0.44254  0.04456  Biso   1.000  O
  O41      1.0000 0.72277  0.67426  0.32768  Biso   1.000  O
  O42      1.0000 0.80151  0.75373  0.36159  Biso   1.000  O
  Nd8      1.0000 0.66993  0.28402  0.96114  Biso   1.000  Nd
  C106     1.0000 0.57445  0.21829  0.03794  Biso   1.000  C
  C107     1.0000 0.52339  0.18675  0.07545  Biso   1.000  C
  C108     1.0000 0.48491  0.25590  0.09280  Biso   1.000  C
  H50      1.0000 0.49210  0.32200  0.08800  Biso   1.000  H
  C109     1.0000 0.43579  0.22440  0.11740  Biso   1.000  C
  H51      1.0000 0.40990  0.27040  0.12790  Biso   1.000  H
  C110     1.0000 0.42389  0.12657  0.12696  Biso   1.000  C
  C111     1.0000 0.46297  0.05890  0.11123  Biso   1.000  C
  H52      1.0000 0.45620  0.99280  0.11690  Biso   1.000  H
  C112     1.0000 0.51210  0.09048  0.08702  Biso   1.000  C
  H53      1.0000 0.53840  0.04460  0.07830  Biso   1.000  H
  C113     1.0000 0.36872  0.09924  0.14894  Biso   1.000  C
  C114     1.0000 0.34673  0.15354  0.21905  Biso   1.000  C
  H54      1.0000 0.36780  0.20090  0.25530  Biso   1.000  H
  C115     1.0000 0.29315  0.13738  0.23541  Biso   1.000  C
  C116     1.0000 0.26212  0.06773  0.17891  Biso   1.000  C
  H55      1.0000 0.22570  0.05980  0.18520  Biso   1.000  H
  C117     1.0000 0.28493  0.00987  0.11314  Biso   1.000  C
  C118     1.0000 0.33883  0.02469  0.09998  Biso   1.000  C
  H56      1.0000 0.35460  0.98410  0.05810  Biso   1.000  H
  C119     1.0000 0.27148  0.19414  0.31514  Biso   1.000  C
  C120     1.0000 0.25045  0.93204  0.05919  Biso   1.000  C
  O43      1.0000 0.60647  0.15531  0.01580  Biso   1.000  O
  O44      1.0000 0.58320  0.30830  0.02801  Biso   1.000  O
  O45      1.0000 0.27221  0.85712  0.02902  Biso   1.000  O
  O46      1.0000 0.19943  0.94254  0.04456  Biso   1.000  O
  O47      1.0000 0.22277  0.17426  0.32768  Biso   1.000  O
  O48      1.0000 0.30151  0.25373  0.36159  Biso   1.000  O
