data_image0
_cell_length_a       14.833
_cell_length_b       8.4766
_cell_length_c       17.326
_cell_angle_alpha    90
_cell_angle_beta     108.46
_cell_angle_gamma    90

_symmetry_space_group_name_H-M    "P 1"
_symmetry_int_tables_number       1

loop_
  _symmetry_equiv_pos_as_xyz
  'x, y, z'

loop_
  _atom_site_label
  _atom_site_occupancy
  _atom_site_fract_x
  _atom_site_fract_y
  _atom_site_fract_z
  _atom_site_thermal_displace_type
  _atom_site_B_iso_or_equiv
  _atom_site_type_symbol
  C1       1.0000 0.50860  0.14890  0.67770  Biso   1.000  C
  C2       1.0000 0.49080  0.45650  0.68990  Biso   1.000  C
  C3       1.0000 0.63490  0.42980  0.81620  Biso   1.000  C
  C4       1.0000 0.63520  0.13040  0.81110  Biso   1.000  C
  C5       1.0000 0.36030  0.26790  0.72110  Biso   1.000  C
  C6       1.0000 0.45010  0.47650  0.82850  Biso   1.000  C
  C7       1.0000 0.55840  0.27110  0.91440  Biso   1.000  C
  C8       1.0000 0.45950  0.06150  0.81670  Biso   1.000  C
  Mn1      1.0000 0.13801  0.29184  0.60882  Biso   1.000  Mn
  Mo1      1.0000 0.51153  0.28088  0.78389  Biso   1.000  Mo
  N1       1.0000 0.50800  0.07460  0.62150  Biso   1.000  N
  N2       1.0000 0.48010  0.55860  0.64210  Biso   1.000  N
  N3       1.0000 0.70330  0.50590  0.83690  Biso   1.000  N
  N4       1.0000 0.69950  0.04890  0.82190  Biso   1.000  N
  N5       1.0000 0.28160  0.26190  0.68740  Biso   1.000  N
  N6       1.0000 0.41600  0.58140  0.85020  Biso   1.000  N
  N7       1.0000 0.58340  0.26610  0.98390  Biso   1.000  N
  N8       1.0000 0.43420  0.94770  0.83590  Biso   1.000  N
  C9       1.0000 0.99140  0.64890  0.82230  Biso   1.000  C
  C10      1.0000 0.00920  0.95650  0.81010  Biso   1.000  C
  C11      1.0000 0.86510  0.92980  0.68380  Biso   1.000  C
  C12      1.0000 0.86480  0.63040  0.68890  Biso   1.000  C
  C13      1.0000 0.13970  0.76790  0.77890  Biso   1.000  C
  C14      1.0000 0.04990  0.97650  0.67150  Biso   1.000  C
  C15      1.0000 0.94160  0.77110  0.58560  Biso   1.000  C
  C16      1.0000 0.04050  0.56150  0.68330  Biso   1.000  C
  Mn2      1.0000 0.36199  0.79184  0.89118  Biso   1.000  Mn
  Mo2      1.0000 0.98847  0.78088  0.71611  Biso   1.000  Mo
  N9       1.0000 0.99200  0.57460  0.87850  Biso   1.000  N
  N10      1.0000 0.01990  0.05860  0.85790  Biso   1.000  N
  N11      1.0000 0.79670  0.00590  0.66310  Biso   1.000  N
  N12      1.0000 0.80050  0.54890  0.67810  Biso   1.000  N
  N13      1.0000 0.21840  0.76190  0.81260  Biso   1.000  N
  N14      1.0000 0.08400  0.08140  0.64980  Biso   1.000  N
  N15      1.0000 0.91660  0.76610  0.51610  Biso   1.000  N
  N16      1.0000 0.06580  0.44770  0.66410  Biso   1.000  N
  C17      1.0000 0.49140  0.85110  0.32230  Biso   1.000  C
  C18      1.0000 0.50920  0.54350  0.31010  Biso   1.000  C
  C19      1.0000 0.36510  0.57020  0.18380  Biso   1.000  C
  C20      1.0000 0.36480  0.86960  0.18890  Biso   1.000  C
  C21      1.0000 0.63970  0.73210  0.27890  Biso   1.000  C
  C22      1.0000 0.54990  0.52350  0.17150  Biso   1.000  C
  C23      1.0000 0.44160  0.72890  0.08560  Biso   1.000  C
  C24      1.0000 0.54050  0.93850  0.18330  Biso   1.000  C
  Mn3      1.0000 0.86199  0.70816  0.39118  Biso   1.000  Mn
  Mo3      1.0000 0.48847  0.71912  0.21611  Biso   1.000  Mo
  N17      1.0000 0.49200  0.92540  0.37850  Biso   1.000  N
  N18      1.0000 0.51990  0.44140  0.35790  Biso   1.000  N
  N19      1.0000 0.29670  0.49410  0.16310  Biso   1.000  N
  N20      1.0000 0.30050  0.95110  0.17810  Biso   1.000  N
  N21      1.0000 0.71840  0.73810  0.31260  Biso   1.000  N
  N22      1.0000 0.58400  0.41860  0.14980  Biso   1.000  N
  N23      1.0000 0.41660  0.73390  0.01610  Biso   1.000  N
  N24      1.0000 0.56580  0.05230  0.16410  Biso   1.000  N
  C25      1.0000 0.00860  0.35110  0.17770  Biso   1.000  C
  C26      1.0000 0.99080  0.04350  0.18990  Biso   1.000  C
  C27      1.0000 0.13490  0.07020  0.31620  Biso   1.000  C
  C28      1.0000 0.13520  0.36960  0.31110  Biso   1.000  C
  C29      1.0000 0.86030  0.23210  0.22110  Biso   1.000  C
  C30      1.0000 0.95010  0.02350  0.32850  Biso   1.000  C
  C31      1.0000 0.05840  0.22890  0.41440  Biso   1.000  C
  C32      1.0000 0.95950  0.43850  0.31670  Biso   1.000  C
  Mn4      1.0000 0.63801  0.20816  0.10882  Biso   1.000  Mn
  Mo4      1.0000 0.01153  0.21912  0.28389  Biso   1.000  Mo
  N25      1.0000 0.00800  0.42540  0.12150  Biso   1.000  N
  N26      1.0000 0.98010  0.94140  0.14210  Biso   1.000  N
  N27      1.0000 0.20330  0.99410  0.33690  Biso   1.000  N
  N28      1.0000 0.19950  0.45110  0.32190  Biso   1.000  N
  N29      1.0000 0.78160  0.23810  0.18740  Biso   1.000  N
  N30      1.0000 0.91600  0.91860  0.35020  Biso   1.000  N
  N31      1.0000 0.08340  0.23390  0.48390  Biso   1.000  N
  N32      1.0000 0.93420  0.55230  0.33590  Biso   1.000  N
  Mn5      1.0000 0.50000  0.00000  0.50000  Biso   1.000  Mn
  Mn6      1.0000 0.00000  0.50000  0.00000  Biso   1.000  Mn
