data_image0
_cell_length_a       7.8927
_cell_length_b       10.326
_cell_length_c       12.799
_cell_angle_alpha    111.008
_cell_angle_beta     95.351
_cell_angle_gamma    106.177

_symmetry_space_group_name_H-M    "P 1"
_symmetry_int_tables_number       1

loop_
  _symmetry_equiv_pos_as_xyz
  'x, y, z'

loop_
  _atom_site_label
  _atom_site_occupancy
  _atom_site_fract_x
  _atom_site_fract_y
  _atom_site_fract_z
  _atom_site_thermal_displace_type
  _atom_site_B_iso_or_equiv
  _atom_site_type_symbol
  Cd1      1.0000 0.31759  0.57797  0.44917  Biso   1.000  Cd
  Cd2      1.0000 0.61205  0.71078  0.02624  Biso   1.000  Cd
  O1       1.0000 0.50270  0.55529  0.11940  Biso   1.000  O
  O2       1.0000 0.17320  0.34055  0.38065  Biso   1.000  O
  O3       1.0000 0.05330  0.62237  0.36684  Biso   1.000  O
  O4       1.0000 0.29580  0.80800  0.47757  Biso   1.000  O
  O5       1.0000 0.69570  0.96711  0.06776  Biso   1.000  O
  N1       1.0000 0.63940  0.86634  0.23734  Biso   1.000  N
  O6       1.0000 0.38560  0.53160  0.26570  Biso   1.000  O
  C1       1.0000 0.82590  0.91510  0.29495  Biso   1.000  C
  C2       1.0000 0.12200  0.10330  0.37836  Biso   1.000  C
  C3       1.0000 0.94260  0.05860  0.32332  Biso   1.000  C
  H1       1.0000 0.89940  0.12460  0.30500  Biso   1.000  H
  C4       1.0000 0.23990  0.26060  0.41225  Biso   1.000  C
  C5       1.0000 0.89410  0.81790  0.32306  Biso   1.000  C
  H2       1.0000 0.81900  0.72190  0.30390  Biso   1.000  H
  C6       1.0000 0.14460  0.75910  0.41130  Biso   1.000  C
  O7       1.0000 0.39310  0.30210  0.47220  Biso   1.000  O
  O8       1.0000 0.65420  0.17707  0.16879  Biso   1.000  O
  C7       1.0000 0.07360  0.86330  0.37953  Biso   1.000  C
  C8       1.0000 0.18890  0.00620  0.40706  Biso   1.000  C
  H3       1.0000 0.30890  0.03620  0.44410  Biso   1.000  H
  C9       1.0000 0.51560  0.77240  0.28118  Biso   1.000  C
  C10      1.0000 0.57550  0.98630  0.23448  Biso   1.000  C
  H4       1.0000 0.61180  0.06500  0.31050  Biso   1.000  H
  H5       1.0000 0.44460  0.94990  0.21350  Biso   1.000  H
  C11      1.0000 0.46760  0.60780  0.21666  Biso   1.000  C
  C12      1.0000 0.64910  0.04770  0.15041  Biso   1.000  C
  H6       1.0000 0.55700  0.79500  0.35600  Biso   1.000  H
  H7       1.0000 0.39800  0.78000  0.27100  Biso   1.000  H
  Cd3      1.0000 0.68241  0.42203  0.55083  Biso   1.000  Cd
  Cd4      1.0000 0.38795  0.28922  0.97376  Biso   1.000  Cd
  O9       1.0000 0.49730  0.44471  0.88060  Biso   1.000  O
  O10      1.0000 0.82680  0.65945  0.61935  Biso   1.000  O
  O11      1.0000 0.94670  0.37763  0.63316  Biso   1.000  O
  O12      1.0000 0.70420  0.19200  0.52243  Biso   1.000  O
  O13      1.0000 0.30430  0.03289  0.93224  Biso   1.000  O
  N2       1.0000 0.36060  0.13366  0.76266  Biso   1.000  N
  O14      1.0000 0.61440  0.46840  0.73430  Biso   1.000  O
  C13      1.0000 0.17410  0.08490  0.70505  Biso   1.000  C
  C14      1.0000 0.87800  0.89670  0.62164  Biso   1.000  C
  C15      1.0000 0.05740  0.94140  0.67668  Biso   1.000  C
  H8       1.0000 0.10060  0.87540  0.69500  Biso   1.000  H
  C16      1.0000 0.76010  0.73940  0.58775  Biso   1.000  C
  C17      1.0000 0.10590  0.18210  0.67694  Biso   1.000  C
  H9       1.0000 0.18100  0.27810  0.69610  Biso   1.000  H
  C18      1.0000 0.85540  0.24090  0.58870  Biso   1.000  C
  O15      1.0000 0.60690  0.69790  0.52780  Biso   1.000  O
  O16      1.0000 0.34580  0.82293  0.83121  Biso   1.000  O
  C19      1.0000 0.92640  0.13670  0.62047  Biso   1.000  C
  C20      1.0000 0.81110  0.99380  0.59294  Biso   1.000  C
  H10      1.0000 0.69110  0.96380  0.55590  Biso   1.000  H
  C21      1.0000 0.48440  0.22760  0.71882  Biso   1.000  C
  C22      1.0000 0.42450  0.01370  0.76552  Biso   1.000  C
  H11      1.0000 0.38820  0.93500  0.68950  Biso   1.000  H
  H12      1.0000 0.55540  0.05010  0.78650  Biso   1.000  H
  C23      1.0000 0.53240  0.39220  0.78334  Biso   1.000  C
  C24      1.0000 0.35090  0.95230  0.84959  Biso   1.000  C
  H13      1.0000 0.44300  0.20500  0.64400  Biso   1.000  H
  H14      1.0000 0.60200  0.22000  0.72900  Biso   1.000  H
