data_image0
_cell_length_a       17.6167
_cell_length_b       9.1946
_cell_length_c       10.7005
_cell_angle_alpha    90
_cell_angle_beta     90
_cell_angle_gamma    90

_symmetry_space_group_name_H-M    "P 1"
_symmetry_int_tables_number       1

loop_
  _symmetry_equiv_pos_as_xyz
  'x, y, z'

loop_
  _atom_site_label
  _atom_site_occupancy
  _atom_site_fract_x
  _atom_site_fract_y
  _atom_site_fract_z
  _atom_site_thermal_displace_type
  _atom_site_B_iso_or_equiv
  _atom_site_type_symbol
  Cd1      1.0000 0.50104  0.78615  0.23900  Biso   1.000  Cd
  Mg1      1.0000 0.47099  0.62670  0.70723  Biso   1.000  Mg
  C1       1.0000 0.67470  0.55970  0.43330  Biso   1.000  C
  O1       1.0000 0.93050  0.44760  0.62220  Biso   1.000  O
  C2       1.0000 0.80840  0.43670  0.52600  Biso   1.000  C
  O2       1.0000 0.93440  0.51530  0.34220  Biso   1.000  O
  O3       1.0000 0.87560  0.23390  0.60440  Biso   1.000  O
  C3       1.0000 0.87630  0.36690  0.58600  Biso   1.000  C
  C4       1.0000 0.67070  0.45210  0.52280  Biso   1.000  C
  O4       1.0000 0.56450  0.51370  0.64030  Biso   1.000  O
  C5       1.0000 0.74470  0.60730  0.39200  Biso   1.000  C
  H1       1.0000 0.74670  0.68070  0.33230  Biso   1.000  H
  C6       1.0000 0.81250  0.54860  0.43730  Biso   1.000  C
  C7       1.0000 0.73730  0.38830  0.56540  Biso   1.000  C
  H2       1.0000 0.73440  0.31140  0.62170  Biso   1.000  H
  C8       1.0000 0.88500  0.60330  0.37990  Biso   1.000  C
  O5       1.0000 0.89160  0.73840  0.36280  Biso   1.000  O
  O6       1.0000 0.50830  0.80390  0.60600  Biso   1.000  O
  H3       1.0000 0.54970  0.78540  0.57470  Biso   1.000  H
  C9       1.0000 0.59650  0.41250  0.58610  Biso   1.000  C
  O7       1.0000 0.59710  0.76440  0.38620  Biso   1.000  O
  C10      1.0000 0.60460  0.62910  0.37670  Biso   1.000  C
  O8       1.0000 0.57500  0.28380  0.58270  Biso   1.000  O
  O9       1.0000 0.55640  0.55110  0.31920  Biso   1.000  O
  O10      1.0000 0.41100  0.54970  0.55450  Biso   1.000  O
  H4       1.0000 0.43830  0.49560  0.51330  Biso   1.000  H
  O11      1.0000 0.52890  0.71960  0.85590  Biso   1.000  O
  H5       1.0000 0.57260  0.68890  0.85730  Biso   1.000  H
  Cd2      1.0000 0.49896  0.21385  0.73900  Biso   1.000  Cd
  Mg2      1.0000 0.52901  0.37330  0.20723  Biso   1.000  Mg
  C11      1.0000 0.32530  0.44030  0.93330  Biso   1.000  C
  O12      1.0000 0.06950  0.55240  0.12220  Biso   1.000  O
  C12      1.0000 0.19160  0.56330  0.02600  Biso   1.000  C
  O13      1.0000 0.06560  0.48470  0.84220  Biso   1.000  O
  O14      1.0000 0.12440  0.76610  0.10440  Biso   1.000  O
  C13      1.0000 0.12370  0.63310  0.08600  Biso   1.000  C
  C14      1.0000 0.32930  0.54790  0.02280  Biso   1.000  C
  O15      1.0000 0.43550  0.48630  0.14030  Biso   1.000  O
  C15      1.0000 0.25530  0.39270  0.89200  Biso   1.000  C
  H6       1.0000 0.25330  0.31930  0.83230  Biso   1.000  H
  C16      1.0000 0.18750  0.45140  0.93730  Biso   1.000  C
  C17      1.0000 0.26270  0.61170  0.06540  Biso   1.000  C
  H7       1.0000 0.26560  0.68860  0.12170  Biso   1.000  H
  C18      1.0000 0.11500  0.39670  0.87990  Biso   1.000  C
  O16      1.0000 0.10840  0.26160  0.86280  Biso   1.000  O
  O17      1.0000 0.49170  0.19610  0.10600  Biso   1.000  O
  H8       1.0000 0.45030  0.21460  0.07470  Biso   1.000  H
  C19      1.0000 0.40350  0.58750  0.08610  Biso   1.000  C
  O18      1.0000 0.40290  0.23560  0.88620  Biso   1.000  O
  C20      1.0000 0.39540  0.37090  0.87670  Biso   1.000  C
  O19      1.0000 0.42500  0.71620  0.08270  Biso   1.000  O
  O20      1.0000 0.44360  0.44890  0.81920  Biso   1.000  O
  O21      1.0000 0.58900  0.45030  0.05450  Biso   1.000  O
  H9       1.0000 0.56170  0.50440  0.01330  Biso   1.000  H
  O22      1.0000 0.47110  0.28040  0.35590  Biso   1.000  O
  H10      1.0000 0.42740  0.31110  0.35730  Biso   1.000  H
  Cd3      1.0000 0.00104  0.71385  0.23900  Biso   1.000  Cd
  Mg3      1.0000 0.97099  0.87330  0.70723  Biso   1.000  Mg
  C21      1.0000 0.17470  0.94030  0.43330  Biso   1.000  C
  O23      1.0000 0.43050  0.05240  0.62220  Biso   1.000  O
  C22      1.0000 0.30840  0.06330  0.52600  Biso   1.000  C
  O24      1.0000 0.43440  0.98470  0.34220  Biso   1.000  O
  O25      1.0000 0.37560  0.26610  0.60440  Biso   1.000  O
  C23      1.0000 0.37630  0.13310  0.58600  Biso   1.000  C
  C24      1.0000 0.17070  0.04790  0.52280  Biso   1.000  C
  O26      1.0000 0.06450  0.98630  0.64030  Biso   1.000  O
  C25      1.0000 0.24470  0.89270  0.39200  Biso   1.000  C
  H11      1.0000 0.24670  0.81930  0.33230  Biso   1.000  H
  C26      1.0000 0.31250  0.95140  0.43730  Biso   1.000  C
  C27      1.0000 0.23730  0.11170  0.56540  Biso   1.000  C
  H12      1.0000 0.23440  0.18860  0.62170  Biso   1.000  H
  C28      1.0000 0.38500  0.89670  0.37990  Biso   1.000  C
  O27      1.0000 0.39160  0.76160  0.36280  Biso   1.000  O
  O28      1.0000 0.00830  0.69610  0.60600  Biso   1.000  O
  H13      1.0000 0.04970  0.71460  0.57470  Biso   1.000  H
  C29      1.0000 0.09650  0.08750  0.58610  Biso   1.000  C
  O29      1.0000 0.09710  0.73560  0.38620  Biso   1.000  O
  C30      1.0000 0.10460  0.87090  0.37670  Biso   1.000  C
  O30      1.0000 0.07500  0.21620  0.58270  Biso   1.000  O
  O31      1.0000 0.05640  0.94890  0.31920  Biso   1.000  O
  O32      1.0000 0.91100  0.95030  0.55450  Biso   1.000  O
  H14      1.0000 0.93830  0.00440  0.51330  Biso   1.000  H
  O33      1.0000 0.02890  0.78040  0.85590  Biso   1.000  O
  H15      1.0000 0.07260  0.81110  0.85730  Biso   1.000  H
  Cd4      1.0000 0.99896  0.28615  0.73900  Biso   1.000  Cd
  Mg4      1.0000 0.02901  0.12670  0.20723  Biso   1.000  Mg
  C31      1.0000 0.82530  0.05970  0.93330  Biso   1.000  C
  O34      1.0000 0.56950  0.94760  0.12220  Biso   1.000  O
  C32      1.0000 0.69160  0.93670  0.02600  Biso   1.000  C
  O35      1.0000 0.56560  0.01530  0.84220  Biso   1.000  O
  O36      1.0000 0.62440  0.73390  0.10440  Biso   1.000  O
  C33      1.0000 0.62370  0.86690  0.08600  Biso   1.000  C
  C34      1.0000 0.82930  0.95210  0.02280  Biso   1.000  C
  O37      1.0000 0.93550  0.01370  0.14030  Biso   1.000  O
  C35      1.0000 0.75530  0.10730  0.89200  Biso   1.000  C
  H16      1.0000 0.75330  0.18070  0.83230  Biso   1.000  H
  C36      1.0000 0.68750  0.04860  0.93730  Biso   1.000  C
  C37      1.0000 0.76270  0.88830  0.06540  Biso   1.000  C
  H17      1.0000 0.76560  0.81140  0.12170  Biso   1.000  H
  C38      1.0000 0.61500  0.10330  0.87990  Biso   1.000  C
  O38      1.0000 0.60840  0.23840  0.86280  Biso   1.000  O
  O39      1.0000 0.99170  0.30390  0.10600  Biso   1.000  O
  H18      1.0000 0.95030  0.28540  0.07470  Biso   1.000  H
  C39      1.0000 0.90350  0.91250  0.08610  Biso   1.000  C
  O40      1.0000 0.90290  0.26440  0.88620  Biso   1.000  O
  C40      1.0000 0.89540  0.12910  0.87670  Biso   1.000  C
  O41      1.0000 0.92500  0.78380  0.08270  Biso   1.000  O
  O42      1.0000 0.94360  0.05110  0.81920  Biso   1.000  O
  O43      1.0000 0.08900  0.04970  0.05450  Biso   1.000  O
  H19      1.0000 0.06170  0.99560  0.01330  Biso   1.000  H
  O44      1.0000 0.97110  0.21960  0.35590  Biso   1.000  O
  H20      1.0000 0.92740  0.18890  0.35730  Biso   1.000  H
