data_image0
_cell_length_a       29.778
_cell_length_b       6.6754
_cell_length_c       19.4782
_cell_angle_alpha    90
_cell_angle_beta     113.623
_cell_angle_gamma    90

_symmetry_space_group_name_H-M    "P 1"
_symmetry_int_tables_number       1

loop_
  _symmetry_equiv_pos_as_xyz
  'x, y, z'

loop_
  _atom_site_label
  _atom_site_occupancy
  _atom_site_fract_x
  _atom_site_fract_y
  _atom_site_fract_z
  _atom_site_thermal_displace_type
  _atom_site_B_iso_or_equiv
  _atom_site_type_symbol
  Cd1      1.0000 0.10338  0.95854  0.35327  Biso   1.000  Cd
  O1       1.0000 0.42363  0.87700  0.66780  Biso   1.000  O
  C1       1.0000 0.40053  0.03890  0.64630  Biso   1.000  C
  O2       1.0000 0.42071  0.20320  0.67220  Biso   1.000  O
  C2       1.0000 0.34830  0.03110  0.59170  Biso   1.000  C
  O3       1.0000 0.47695  0.13090  0.34100  Biso   1.000  O
  O4       1.0000 0.47708  0.80150  0.34100  Biso   1.000  O
  C3       1.0000 0.26310  0.03420  0.57040  Biso   1.000  C
  H1       1.0000 0.23890  0.04810  0.58880  Biso   1.000  H
  O5       1.0000 0.18629  0.94950  0.37460  Biso   1.000  O
  C4       1.0000 0.25040  0.99560  0.49550  Biso   1.000  C
  O6       1.0000 0.16506  0.00020  0.46850  Biso   1.000  O
  C5       1.0000 0.28640  0.97680  0.46850  Biso   1.000  C
  H2       1.0000 0.27760  0.95210  0.41780  Biso   1.000  H
  C6       1.0000 0.33590  0.99400  0.51580  Biso   1.000  C
  C7       1.0000 0.19761  0.98020  0.44290  Biso   1.000  C
  C8       1.0000 0.31220  0.05240  0.61850  Biso   1.000  C
  H3       1.0000 0.32080  0.07910  0.66900  Biso   1.000  H
  C9       1.0000 0.37340  0.97950  0.48310  Biso   1.000  C
  C10      1.0000 0.37760  0.80810  0.44600  Biso   1.000  C
  H4       1.0000 0.35870  0.69630  0.44490  Biso   1.000  H
  C11      1.0000 0.40970  0.80170  0.41070  Biso   1.000  C
  H5       1.0000 0.41260  0.68460  0.38680  Biso   1.000  H
  C12      1.0000 0.43760  0.96670  0.41040  Biso   1.000  C
  C13      1.0000 0.43380  0.13790  0.44740  Biso   1.000  C
  H6       1.0000 0.45210  0.25070  0.44700  Biso   1.000  H
  C14      1.0000 0.40300  0.14270  0.48510  Biso   1.000  C
  H7       1.0000 0.40220  0.25630  0.51220  Biso   1.000  H
  C15      1.0000 0.46617  0.96570  0.36230  Biso   1.000  C
  Cd2      1.0000 0.89662  0.95854  0.14673  Biso   1.000  Cd
  O7       1.0000 0.57637  0.87700  0.83220  Biso   1.000  O
  C16      1.0000 0.59947  0.03890  0.85370  Biso   1.000  C
  O8       1.0000 0.57929  0.20320  0.82780  Biso   1.000  O
  C17      1.0000 0.65170  0.03110  0.90830  Biso   1.000  C
  O9       1.0000 0.52305  0.13090  0.15900  Biso   1.000  O
  O10      1.0000 0.52292  0.80150  0.15900  Biso   1.000  O
  C18      1.0000 0.73690  0.03420  0.92960  Biso   1.000  C
  H8       1.0000 0.76110  0.04810  0.91120  Biso   1.000  H
  O11      1.0000 0.81371  0.94950  0.12540  Biso   1.000  O
  C19      1.0000 0.74960  0.99560  0.00450  Biso   1.000  C
  O12      1.0000 0.83494  0.00020  0.03150  Biso   1.000  O
  C20      1.0000 0.71360  0.97680  0.03150  Biso   1.000  C
  H9       1.0000 0.72240  0.95210  0.08220  Biso   1.000  H
  C21      1.0000 0.66410  0.99400  0.98420  Biso   1.000  C
  C22      1.0000 0.80239  0.98020  0.05710  Biso   1.000  C
  C23      1.0000 0.68780  0.05240  0.88150  Biso   1.000  C
  H10      1.0000 0.67920  0.07910  0.83100  Biso   1.000  H
  C24      1.0000 0.62660  0.97950  0.01690  Biso   1.000  C
  C25      1.0000 0.62240  0.80810  0.05400  Biso   1.000  C
  H11      1.0000 0.64130  0.69630  0.05510  Biso   1.000  H
  C26      1.0000 0.59030  0.80170  0.08930  Biso   1.000  C
  H12      1.0000 0.58740  0.68460  0.11320  Biso   1.000  H
  C27      1.0000 0.56240  0.96670  0.08960  Biso   1.000  C
  C28      1.0000 0.56620  0.13790  0.05260  Biso   1.000  C
  H13      1.0000 0.54790  0.25070  0.05300  Biso   1.000  H
  C29      1.0000 0.59700  0.14270  0.01490  Biso   1.000  C
  H14      1.0000 0.59780  0.25630  0.98780  Biso   1.000  H
  C30      1.0000 0.53383  0.96570  0.13770  Biso   1.000  C
  Cd3      1.0000 0.39662  0.54146  0.64673  Biso   1.000  Cd
  O13      1.0000 0.07637  0.62300  0.33220  Biso   1.000  O
  C31      1.0000 0.09947  0.46110  0.35370  Biso   1.000  C
  O14      1.0000 0.07929  0.29680  0.32780  Biso   1.000  O
  C32      1.0000 0.15170  0.46890  0.40830  Biso   1.000  C
  O15      1.0000 0.02305  0.36910  0.65900  Biso   1.000  O
  O16      1.0000 0.02292  0.69850  0.65900  Biso   1.000  O
  C33      1.0000 0.23690  0.46580  0.42960  Biso   1.000  C
  H15      1.0000 0.26110  0.45190  0.41120  Biso   1.000  H
  O17      1.0000 0.31371  0.55050  0.62540  Biso   1.000  O
  C34      1.0000 0.24960  0.50440  0.50450  Biso   1.000  C
  O18      1.0000 0.33494  0.49980  0.53150  Biso   1.000  O
  C35      1.0000 0.21360  0.52320  0.53150  Biso   1.000  C
  H16      1.0000 0.22240  0.54790  0.58220  Biso   1.000  H
  C36      1.0000 0.16410  0.50600  0.48420  Biso   1.000  C
  C37      1.0000 0.30239  0.51980  0.55710  Biso   1.000  C
  C38      1.0000 0.18780  0.44760  0.38150  Biso   1.000  C
  H17      1.0000 0.17920  0.42090  0.33100  Biso   1.000  H
  C39      1.0000 0.12660  0.52050  0.51690  Biso   1.000  C
  C40      1.0000 0.12240  0.69190  0.55400  Biso   1.000  C
  H18      1.0000 0.14130  0.80370  0.55510  Biso   1.000  H
  C41      1.0000 0.09030  0.69830  0.58930  Biso   1.000  C
  H19      1.0000 0.08740  0.81540  0.61320  Biso   1.000  H
  C42      1.0000 0.06240  0.53330  0.58960  Biso   1.000  C
  C43      1.0000 0.06620  0.36210  0.55260  Biso   1.000  C
  H20      1.0000 0.04790  0.24930  0.55300  Biso   1.000  H
  C44      1.0000 0.09700  0.35730  0.51490  Biso   1.000  C
  H21      1.0000 0.09780  0.24370  0.48780  Biso   1.000  H
  C45      1.0000 0.03383  0.53430  0.63770  Biso   1.000  C
  Cd4      1.0000 0.60338  0.54146  0.85327  Biso   1.000  Cd
  O19      1.0000 0.92363  0.62300  0.16780  Biso   1.000  O
  C46      1.0000 0.90053  0.46110  0.14630  Biso   1.000  C
  O20      1.0000 0.92071  0.29680  0.17220  Biso   1.000  O
  C47      1.0000 0.84830  0.46890  0.09170  Biso   1.000  C
  O21      1.0000 0.97695  0.36910  0.84100  Biso   1.000  O
  O22      1.0000 0.97708  0.69850  0.84100  Biso   1.000  O
  C48      1.0000 0.76310  0.46580  0.07040  Biso   1.000  C
  H22      1.0000 0.73890  0.45190  0.08880  Biso   1.000  H
  O23      1.0000 0.68629  0.55050  0.87460  Biso   1.000  O
  C49      1.0000 0.75040  0.50440  0.99550  Biso   1.000  C
  O24      1.0000 0.66506  0.49980  0.96850  Biso   1.000  O
  C50      1.0000 0.78640  0.52320  0.96850  Biso   1.000  C
  H23      1.0000 0.77760  0.54790  0.91780  Biso   1.000  H
  C51      1.0000 0.83590  0.50600  0.01580  Biso   1.000  C
  C52      1.0000 0.69761  0.51980  0.94290  Biso   1.000  C
  C53      1.0000 0.81220  0.44760  0.11850  Biso   1.000  C
  H24      1.0000 0.82080  0.42090  0.16900  Biso   1.000  H
  C54      1.0000 0.87340  0.52050  0.98310  Biso   1.000  C
  C55      1.0000 0.87760  0.69190  0.94600  Biso   1.000  C
  H25      1.0000 0.85870  0.80370  0.94490  Biso   1.000  H
  C56      1.0000 0.90970  0.69830  0.91070  Biso   1.000  C
  H26      1.0000 0.91260  0.81540  0.88680  Biso   1.000  H
  C57      1.0000 0.93760  0.53330  0.91040  Biso   1.000  C
  C58      1.0000 0.93380  0.36210  0.94740  Biso   1.000  C
  H27      1.0000 0.95210  0.24930  0.94700  Biso   1.000  H
  C59      1.0000 0.90300  0.35730  0.98510  Biso   1.000  C
  H28      1.0000 0.90220  0.24370  0.01220  Biso   1.000  H
  C60      1.0000 0.96617  0.53430  0.86230  Biso   1.000  C
  Cd5      1.0000 0.50000  0.96223  0.25000  Biso   1.000  Cd
  Cd6      1.0000 0.00000  0.53777  0.75000  Biso   1.000  Cd
  Cd7      1.0000 0.60338  0.45854  0.35327  Biso   1.000  Cd
  O25      1.0000 0.92363  0.37700  0.66780  Biso   1.000  O
  C61      1.0000 0.90053  0.53890  0.64630  Biso   1.000  C
  O26      1.0000 0.92071  0.70320  0.67220  Biso   1.000  O
  C62      1.0000 0.84830  0.53110  0.59170  Biso   1.000  C
  O27      1.0000 0.97695  0.63090  0.34100  Biso   1.000  O
  O28      1.0000 0.97708  0.30150  0.34100  Biso   1.000  O
  C63      1.0000 0.76310  0.53420  0.57040  Biso   1.000  C
  H29      1.0000 0.73890  0.54810  0.58880  Biso   1.000  H
  O29      1.0000 0.68629  0.44950  0.37460  Biso   1.000  O
  C64      1.0000 0.75040  0.49560  0.49550  Biso   1.000  C
  O30      1.0000 0.66506  0.50020  0.46850  Biso   1.000  O
  C65      1.0000 0.78640  0.47680  0.46850  Biso   1.000  C
  H30      1.0000 0.77760  0.45210  0.41780  Biso   1.000  H
  C66      1.0000 0.83590  0.49400  0.51580  Biso   1.000  C
  C67      1.0000 0.69761  0.48020  0.44290  Biso   1.000  C
  C68      1.0000 0.81220  0.55240  0.61850  Biso   1.000  C
  H31      1.0000 0.82080  0.57910  0.66900  Biso   1.000  H
  C69      1.0000 0.87340  0.47950  0.48310  Biso   1.000  C
  C70      1.0000 0.87760  0.30810  0.44600  Biso   1.000  C
  H32      1.0000 0.85870  0.19630  0.44490  Biso   1.000  H
  C71      1.0000 0.90970  0.30170  0.41070  Biso   1.000  C
  H33      1.0000 0.91260  0.18460  0.38680  Biso   1.000  H
  C72      1.0000 0.93760  0.46670  0.41040  Biso   1.000  C
  C73      1.0000 0.93380  0.63790  0.44740  Biso   1.000  C
  H34      1.0000 0.95210  0.75070  0.44700  Biso   1.000  H
  C74      1.0000 0.90300  0.64270  0.48510  Biso   1.000  C
  H35      1.0000 0.90220  0.75630  0.51220  Biso   1.000  H
  C75      1.0000 0.96617  0.46570  0.36230  Biso   1.000  C
  Cd8      1.0000 0.39662  0.45854  0.14673  Biso   1.000  Cd
  O31      1.0000 0.07637  0.37700  0.83220  Biso   1.000  O
  C76      1.0000 0.09947  0.53890  0.85370  Biso   1.000  C
  O32      1.0000 0.07929  0.70320  0.82780  Biso   1.000  O
  C77      1.0000 0.15170  0.53110  0.90830  Biso   1.000  C
  O33      1.0000 0.02305  0.63090  0.15900  Biso   1.000  O
  O34      1.0000 0.02292  0.30150  0.15900  Biso   1.000  O
  C78      1.0000 0.23690  0.53420  0.92960  Biso   1.000  C
  H36      1.0000 0.26110  0.54810  0.91120  Biso   1.000  H
  O35      1.0000 0.31371  0.44950  0.12540  Biso   1.000  O
  C79      1.0000 0.24960  0.49560  0.00450  Biso   1.000  C
  O36      1.0000 0.33494  0.50020  0.03150  Biso   1.000  O
  C80      1.0000 0.21360  0.47680  0.03150  Biso   1.000  C
  H37      1.0000 0.22240  0.45210  0.08220  Biso   1.000  H
  C81      1.0000 0.16410  0.49400  0.98420  Biso   1.000  C
  C82      1.0000 0.30239  0.48020  0.05710  Biso   1.000  C
  C83      1.0000 0.18780  0.55240  0.88150  Biso   1.000  C
  H38      1.0000 0.17920  0.57910  0.83100  Biso   1.000  H
  C84      1.0000 0.12660  0.47950  0.01690  Biso   1.000  C
  C85      1.0000 0.12240  0.30810  0.05400  Biso   1.000  C
  H39      1.0000 0.14130  0.19630  0.05510  Biso   1.000  H
  C86      1.0000 0.09030  0.30170  0.08930  Biso   1.000  C
  H40      1.0000 0.08740  0.18460  0.11320  Biso   1.000  H
  C87      1.0000 0.06240  0.46670  0.08960  Biso   1.000  C
  C88      1.0000 0.06620  0.63790  0.05260  Biso   1.000  C
  H41      1.0000 0.04790  0.75070  0.05300  Biso   1.000  H
  C89      1.0000 0.09700  0.64270  0.01490  Biso   1.000  C
  H42      1.0000 0.09780  0.75630  0.98780  Biso   1.000  H
  C90      1.0000 0.03383  0.46570  0.13770  Biso   1.000  C
  Cd9      1.0000 0.89662  0.04146  0.64673  Biso   1.000  Cd
  O37      1.0000 0.57637  0.12300  0.33220  Biso   1.000  O
  C91      1.0000 0.59947  0.96110  0.35370  Biso   1.000  C
  O38      1.0000 0.57929  0.79680  0.32780  Biso   1.000  O
  C92      1.0000 0.65170  0.96890  0.40830  Biso   1.000  C
  O39      1.0000 0.52305  0.86910  0.65900  Biso   1.000  O
  O40      1.0000 0.52292  0.19850  0.65900  Biso   1.000  O
  C93      1.0000 0.73690  0.96580  0.42960  Biso   1.000  C
  H43      1.0000 0.76110  0.95190  0.41120  Biso   1.000  H
  O41      1.0000 0.81371  0.05050  0.62540  Biso   1.000  O
  C94      1.0000 0.74960  0.00440  0.50450  Biso   1.000  C
  O42      1.0000 0.83494  0.99980  0.53150  Biso   1.000  O
  C95      1.0000 0.71360  0.02320  0.53150  Biso   1.000  C
  H44      1.0000 0.72240  0.04790  0.58220  Biso   1.000  H
  C96      1.0000 0.66410  0.00600  0.48420  Biso   1.000  C
  C97      1.0000 0.80239  0.01980  0.55710  Biso   1.000  C
  C98      1.0000 0.68780  0.94760  0.38150  Biso   1.000  C
  H45      1.0000 0.67920  0.92090  0.33100  Biso   1.000  H
  C99      1.0000 0.62660  0.02050  0.51690  Biso   1.000  C
  C100     1.0000 0.62240  0.19190  0.55400  Biso   1.000  C
  H46      1.0000 0.64130  0.30370  0.55510  Biso   1.000  H
  C101     1.0000 0.59030  0.19830  0.58930  Biso   1.000  C
  H47      1.0000 0.58740  0.31540  0.61320  Biso   1.000  H
  C102     1.0000 0.56240  0.03330  0.58960  Biso   1.000  C
  C103     1.0000 0.56620  0.86210  0.55260  Biso   1.000  C
  H48      1.0000 0.54790  0.74930  0.55300  Biso   1.000  H
  C104     1.0000 0.59700  0.85730  0.51490  Biso   1.000  C
  H49      1.0000 0.59780  0.74370  0.48780  Biso   1.000  H
  C105     1.0000 0.53383  0.03430  0.63770  Biso   1.000  C
  Cd10     1.0000 0.10338  0.04146  0.85327  Biso   1.000  Cd
  O43      1.0000 0.42363  0.12300  0.16780  Biso   1.000  O
  C106     1.0000 0.40053  0.96110  0.14630  Biso   1.000  C
  O44      1.0000 0.42071  0.79680  0.17220  Biso   1.000  O
  C107     1.0000 0.34830  0.96890  0.09170  Biso   1.000  C
  O45      1.0000 0.47695  0.86910  0.84100  Biso   1.000  O
  O46      1.0000 0.47708  0.19850  0.84100  Biso   1.000  O
  C108     1.0000 0.26310  0.96580  0.07040  Biso   1.000  C
  H50      1.0000 0.23890  0.95190  0.08880  Biso   1.000  H
  O47      1.0000 0.18629  0.05050  0.87460  Biso   1.000  O
  C109     1.0000 0.25040  0.00440  0.99550  Biso   1.000  C
  O48      1.0000 0.16506  0.99980  0.96850  Biso   1.000  O
  C110     1.0000 0.28640  0.02320  0.96850  Biso   1.000  C
  H51      1.0000 0.27760  0.04790  0.91780  Biso   1.000  H
  C111     1.0000 0.33590  0.00600  0.01580  Biso   1.000  C
  C112     1.0000 0.19761  0.01980  0.94290  Biso   1.000  C
  C113     1.0000 0.31220  0.94760  0.11850  Biso   1.000  C
  H52      1.0000 0.32080  0.92090  0.16900  Biso   1.000  H
  C114     1.0000 0.37340  0.02050  0.98310  Biso   1.000  C
  C115     1.0000 0.37760  0.19190  0.94600  Biso   1.000  C
  H53      1.0000 0.35870  0.30370  0.94490  Biso   1.000  H
  C116     1.0000 0.40970  0.19830  0.91070  Biso   1.000  C
  H54      1.0000 0.41260  0.31540  0.88680  Biso   1.000  H
  C117     1.0000 0.43760  0.03330  0.91040  Biso   1.000  C
  C118     1.0000 0.43380  0.86210  0.94740  Biso   1.000  C
  H55      1.0000 0.45210  0.74930  0.94700  Biso   1.000  H
  C119     1.0000 0.40300  0.85730  0.98510  Biso   1.000  C
  H56      1.0000 0.40220  0.74370  0.01220  Biso   1.000  H
  C120     1.0000 0.46617  0.03430  0.86230  Biso   1.000  C
  Cd11     1.0000 0.00000  0.46223  0.25000  Biso   1.000  Cd
  Cd12     1.0000 0.50000  0.03777  0.75000  Biso   1.000  Cd
