data_image0
_cell_length_a       16.646
_cell_length_b       29.783
_cell_length_c       17.274
_cell_angle_alpha    90
_cell_angle_beta     90
_cell_angle_gamma    90

_symmetry_space_group_name_H-M    "P 1"
_symmetry_int_tables_number       1

loop_
  _symmetry_equiv_pos_as_xyz
  'x, y, z'

loop_
  _atom_site_label
  _atom_site_occupancy
  _atom_site_fract_x
  _atom_site_fract_y
  _atom_site_fract_z
  _atom_site_thermal_displace_type
  _atom_site_B_iso_or_equiv
  _atom_site_type_symbol
  Cd1      1.0000 0.49583  0.24983  0.88406  Biso   1.000  Cd
  Cd2      1.0000 0.24955  0.00356  0.13423  Biso   1.000  Cd
  Cd3      1.0000 0.27687  0.24561  0.73511  Biso   1.000  Cd
  N1       1.0000 0.49160  0.19370  0.78910  Biso   1.000  N
  O1       1.0000 0.34440  0.25450  0.84640  Biso   1.000  O
  C1       1.0000 0.00830  0.15140  0.19210  Biso   1.000  C
  N2       1.0000 0.03440  0.17010  0.05990  Biso   1.000  N
  C2       1.0000 0.47310  0.13810  0.88970  Biso   1.000  C
  N3       1.0000 0.00690  0.19450  0.21100  Biso   1.000  N
  C3       1.0000 0.04810  0.15690  0.98650  Biso   1.000  C
  H1       1.0000 0.05580  0.17860  0.94840  Biso   1.000  H
  N4       1.0000 0.45890  0.17030  0.93840  Biso   1.000  N
  C4       1.0000 0.47050  0.09400  0.91050  Biso   1.000  C
  H2       1.0000 0.47940  0.07260  0.87210  Biso   1.000  H
  O2       1.0000 0.09230  0.26500  0.01560  Biso   1.000  O
  C5       1.0000 0.24560  0.26800  0.94510  Biso   1.000  C
  H3       1.0000 0.22100  0.29340  0.91920  Biso   1.000  H
  H4       1.0000 0.21610  0.24130  0.92980  Biso   1.000  H
  O3       1.0000 0.38880  0.26820  0.96260  Biso   1.000  O
  O4       1.0000 0.35170  0.02180  0.22310  Biso   1.000  O
  O5       1.0000 0.14830  0.98840  0.22310  Biso   1.000  O
  N5       1.0000 0.24510  0.05540  0.03290  Biso   1.000  N
  C6       1.0000 0.32970  0.26350  0.91660  Biso   1.000  C
  C7       1.0000 0.15390  0.26590  0.05820  Biso   1.000  C
  C8       1.0000 0.25930  0.09770  0.93110  Biso   1.000  C
  N6       1.0000 0.21370  0.08280  0.18410  Biso   1.000  N
  N7       1.0000 0.25560  0.05380  0.95500  Biso   1.000  N
  O6       1.0000 0.14200  0.26130  0.13060  Biso   1.000  O
  N8       1.0000 0.20960  0.17410  0.22020  Biso   1.000  N
  O7       1.0000 0.39970  0.00750  0.10550  Biso   1.000  O
  N9       1.0000 0.24940  0.12740  0.98930  Biso   1.000  N
  C9       1.0000 0.27390  0.11010  0.85090  Biso   1.000  C
  C10      1.0000 0.22440  0.16040  0.14850  Biso   1.000  C
  H5       1.0000 0.23480  0.18160  0.11030  Biso   1.000  H
  C11      1.0000 0.02140  0.13830  0.11020  Biso   1.000  C
  C12      1.0000 0.23960  0.09940  0.05200  Biso   1.000  C
  C13      1.0000 0.22470  0.11580  0.12920  Biso   1.000  C
  C14      1.0000 0.19760  0.14160  0.27500  Biso   1.000  C
  H6       1.0000 0.18750  0.14980  0.32600  Biso   1.000  H
  C15      1.0000 0.02340  0.09340  0.08900  Biso   1.000  C
  H7       1.0000 0.01450  0.07200  0.12720  Biso   1.000  H
  N10      1.0000 0.03730  0.07940  0.01800  Biso   1.000  N
  N11      1.0000 0.28760  0.07610  0.80030  Biso   1.000  N
  N12      1.0000 0.45610  0.07950  0.98120  Biso   1.000  N
  C16      1.0000 0.44260  0.15690  0.01270  Biso   1.000  C
  H8       1.0000 0.43320  0.17850  0.05060  Biso   1.000  H
  C17      1.0000 0.43980  0.11240  0.03230  Biso   1.000  C
  H9       1.0000 0.42600  0.10450  0.08270  Biso   1.000  H
  C18      1.0000 0.48980  0.15040  0.80550  Biso   1.000  C
  C19      1.0000 0.05100  0.11230  0.96680  Biso   1.000  C
  H10      1.0000 0.06290  0.10470  0.91590  Biso   1.000  H
  C20      1.0000 0.11240  0.24560  0.72350  Biso   1.000  C
  O8       1.0000 0.09920  0.99510  0.10380  Biso   1.000  O
  C21      1.0000 0.23610  0.27390  0.02760  Biso   1.000  C
  H11      1.0000 0.25180  0.30430  0.04070  Biso   1.000  H
  H12      1.0000 0.27290  0.25370  0.05380  Biso   1.000  H
  C22      1.0000 0.02370  0.24580  0.71170  Biso   1.000  C
  H13      1.0000 0.00870  0.21960  0.68180  Biso   1.000  H
  H14      1.0000 0.00910  0.27220  0.68200  Biso   1.000  H
  O9       1.0000 0.14510  0.22490  0.78090  Biso   1.000  O
  O10      1.0000 0.15460  0.26530  0.67560  Biso   1.000  O
  C23      1.0000 0.20030  0.09710  0.25500  Biso   1.000  C
  H15      1.0000 0.19210  0.07590  0.29360  Biso   1.000  H
  N13      1.0000 0.28970  0.16630  0.75540  Biso   1.000  N
  C24      1.0000 0.27350  0.15460  0.82860  Biso   1.000  C
  H16      1.0000 0.26180  0.17670  0.86480  Biso   1.000  H
  C25      1.0000 0.30630  0.13330  0.70430  Biso   1.000  C
  H17      1.0000 0.31920  0.14060  0.65340  Biso   1.000  H
  C26      1.0000 0.30400  0.08790  0.72780  Biso   1.000  C
  H18      1.0000 0.31430  0.06560  0.69140  Biso   1.000  H
  C27      1.0000 0.00520  0.98120  0.20730  Biso   1.000  C
  H19      1.0000 0.97200  0.00490  0.18560  Biso   1.000  H
  H20      1.0000 0.98540  0.95290  0.18710  Biso   1.000  H
  C28      1.0000 0.49780  0.02230  0.20320  Biso   1.000  C
  H21      1.0000 0.51870  0.05040  0.18300  Biso   1.000  H
  H22      1.0000 0.53010  0.99790  0.18250  Biso   1.000  H
  C29      1.0000 0.09250  0.98800  0.17880  Biso   1.000  C
  C30      1.0000 0.40800  0.01630  0.17830  Biso   1.000  C
  Cd4      1.0000 0.99583  0.74983  0.88406  Biso   1.000  Cd
  Cd5      1.0000 0.74955  0.50356  0.13423  Biso   1.000  Cd
  Cd6      1.0000 0.77687  0.74561  0.73511  Biso   1.000  Cd
  N14      1.0000 0.99160  0.69370  0.78910  Biso   1.000  N
  O11      1.0000 0.84440  0.75450  0.84640  Biso   1.000  O
  C31      1.0000 0.50830  0.65140  0.19210  Biso   1.000  C
  N15      1.0000 0.53440  0.67010  0.05990  Biso   1.000  N
  C32      1.0000 0.97310  0.63810  0.88970  Biso   1.000  C
  N16      1.0000 0.50690  0.69450  0.21100  Biso   1.000  N
  C33      1.0000 0.54810  0.65690  0.98650  Biso   1.000  C
  H23      1.0000 0.55580  0.67860  0.94840  Biso   1.000  H
  N17      1.0000 0.95890  0.67030  0.93840  Biso   1.000  N
  C34      1.0000 0.97050  0.59400  0.91050  Biso   1.000  C
  H24      1.0000 0.97940  0.57260  0.87210  Biso   1.000  H
  O12      1.0000 0.59230  0.76500  0.01560  Biso   1.000  O
  C35      1.0000 0.74560  0.76800  0.94510  Biso   1.000  C
  H25      1.0000 0.72100  0.79340  0.91920  Biso   1.000  H
  H26      1.0000 0.71610  0.74130  0.92980  Biso   1.000  H
  O13      1.0000 0.88880  0.76820  0.96260  Biso   1.000  O
  O14      1.0000 0.85170  0.52180  0.22310  Biso   1.000  O
  O15      1.0000 0.64830  0.48840  0.22310  Biso   1.000  O
  N18      1.0000 0.74510  0.55540  0.03290  Biso   1.000  N
  C36      1.0000 0.82970  0.76350  0.91660  Biso   1.000  C
  C37      1.0000 0.65390  0.76590  0.05820  Biso   1.000  C
  C38      1.0000 0.75930  0.59770  0.93110  Biso   1.000  C
  N19      1.0000 0.71370  0.58280  0.18410  Biso   1.000  N
  N20      1.0000 0.75560  0.55380  0.95500  Biso   1.000  N
  O16      1.0000 0.64200  0.76130  0.13060  Biso   1.000  O
  N21      1.0000 0.70960  0.67410  0.22020  Biso   1.000  N
  O17      1.0000 0.89970  0.50750  0.10550  Biso   1.000  O
  N22      1.0000 0.74940  0.62740  0.98930  Biso   1.000  N
  C39      1.0000 0.77390  0.61010  0.85090  Biso   1.000  C
  C40      1.0000 0.72440  0.66040  0.14850  Biso   1.000  C
  H27      1.0000 0.73480  0.68160  0.11030  Biso   1.000  H
  C41      1.0000 0.52140  0.63830  0.11020  Biso   1.000  C
  C42      1.0000 0.73960  0.59940  0.05200  Biso   1.000  C
  C43      1.0000 0.72470  0.61580  0.12920  Biso   1.000  C
  C44      1.0000 0.69760  0.64160  0.27500  Biso   1.000  C
  H28      1.0000 0.68750  0.64980  0.32600  Biso   1.000  H
  C45      1.0000 0.52340  0.59340  0.08900  Biso   1.000  C
  H29      1.0000 0.51450  0.57200  0.12720  Biso   1.000  H
  N23      1.0000 0.53730  0.57940  0.01800  Biso   1.000  N
  N24      1.0000 0.78760  0.57610  0.80030  Biso   1.000  N
  N25      1.0000 0.95610  0.57950  0.98120  Biso   1.000  N
  C46      1.0000 0.94260  0.65690  0.01270  Biso   1.000  C
  H30      1.0000 0.93320  0.67850  0.05060  Biso   1.000  H
  C47      1.0000 0.93980  0.61240  0.03230  Biso   1.000  C
  H31      1.0000 0.92600  0.60450  0.08270  Biso   1.000  H
  C48      1.0000 0.98980  0.65040  0.80550  Biso   1.000  C
  C49      1.0000 0.55100  0.61230  0.96680  Biso   1.000  C
  H32      1.0000 0.56290  0.60470  0.91590  Biso   1.000  H
  C50      1.0000 0.61240  0.74560  0.72350  Biso   1.000  C
  O18      1.0000 0.59920  0.49510  0.10380  Biso   1.000  O
  C51      1.0000 0.73610  0.77390  0.02760  Biso   1.000  C
  H33      1.0000 0.75180  0.80430  0.04070  Biso   1.000  H
  H34      1.0000 0.77290  0.75370  0.05380  Biso   1.000  H
  C52      1.0000 0.52370  0.74580  0.71170  Biso   1.000  C
  H35      1.0000 0.50870  0.71960  0.68180  Biso   1.000  H
  H36      1.0000 0.50910  0.77220  0.68200  Biso   1.000  H
  O19      1.0000 0.64510  0.72490  0.78090  Biso   1.000  O
  O20      1.0000 0.65460  0.76530  0.67560  Biso   1.000  O
  C53      1.0000 0.70030  0.59710  0.25500  Biso   1.000  C
  H37      1.0000 0.69210  0.57590  0.29360  Biso   1.000  H
  N26      1.0000 0.78970  0.66630  0.75540  Biso   1.000  N
  C54      1.0000 0.77350  0.65460  0.82860  Biso   1.000  C
  H38      1.0000 0.76180  0.67670  0.86480  Biso   1.000  H
  C55      1.0000 0.80630  0.63330  0.70430  Biso   1.000  C
  H39      1.0000 0.81920  0.64060  0.65340  Biso   1.000  H
  C56      1.0000 0.80400  0.58790  0.72780  Biso   1.000  C
  H40      1.0000 0.81430  0.56560  0.69140  Biso   1.000  H
  C57      1.0000 0.50520  0.48120  0.20730  Biso   1.000  C
  H41      1.0000 0.47200  0.50490  0.18560  Biso   1.000  H
  H42      1.0000 0.48540  0.45290  0.18710  Biso   1.000  H
  C58      1.0000 0.99780  0.52230  0.20320  Biso   1.000  C
  H43      1.0000 0.01870  0.55040  0.18300  Biso   1.000  H
  H44      1.0000 0.03010  0.49790  0.18250  Biso   1.000  H
  C59      1.0000 0.59250  0.48800  0.17880  Biso   1.000  C
  C60      1.0000 0.90800  0.51630  0.17830  Biso   1.000  C
  Cd7      1.0000 0.50417  0.75017  0.38406  Biso   1.000  Cd
  Cd8      1.0000 0.75045  0.99644  0.63423  Biso   1.000  Cd
  Cd9      1.0000 0.72313  0.75439  0.23511  Biso   1.000  Cd
  N27      1.0000 0.50840  0.80630  0.28910  Biso   1.000  N
  O21      1.0000 0.65560  0.74550  0.34640  Biso   1.000  O
  C61      1.0000 0.99170  0.84860  0.69210  Biso   1.000  C
  N28      1.0000 0.96560  0.82990  0.55990  Biso   1.000  N
  C62      1.0000 0.52690  0.86190  0.38970  Biso   1.000  C
  N29      1.0000 0.99310  0.80550  0.71100  Biso   1.000  N
  C63      1.0000 0.95190  0.84310  0.48650  Biso   1.000  C
  H45      1.0000 0.94420  0.82140  0.44840  Biso   1.000  H
  N30      1.0000 0.54110  0.82970  0.43840  Biso   1.000  N
  C64      1.0000 0.52950  0.90600  0.41050  Biso   1.000  C
  H46      1.0000 0.52060  0.92740  0.37210  Biso   1.000  H
  O22      1.0000 0.90770  0.73500  0.51560  Biso   1.000  O
  C65      1.0000 0.75440  0.73200  0.44510  Biso   1.000  C
  H47      1.0000 0.77900  0.70660  0.41920  Biso   1.000  H
  H48      1.0000 0.78390  0.75870  0.42980  Biso   1.000  H
  O23      1.0000 0.61120  0.73180  0.46260  Biso   1.000  O
  O24      1.0000 0.64830  0.97820  0.72310  Biso   1.000  O
  O25      1.0000 0.85170  0.01160  0.72310  Biso   1.000  O
  N31      1.0000 0.75490  0.94460  0.53290  Biso   1.000  N
  C66      1.0000 0.67030  0.73650  0.41660  Biso   1.000  C
  C67      1.0000 0.84610  0.73410  0.55820  Biso   1.000  C
  C68      1.0000 0.74070  0.90230  0.43110  Biso   1.000  C
  N32      1.0000 0.78630  0.91720  0.68410  Biso   1.000  N
  N33      1.0000 0.74440  0.94620  0.45500  Biso   1.000  N
  O26      1.0000 0.85800  0.73870  0.63060  Biso   1.000  O
  N34      1.0000 0.79040  0.82590  0.72020  Biso   1.000  N
  O27      1.0000 0.60030  0.99250  0.60550  Biso   1.000  O
  N35      1.0000 0.75060  0.87260  0.48930  Biso   1.000  N
  C69      1.0000 0.72610  0.88990  0.35090  Biso   1.000  C
  C70      1.0000 0.77560  0.83960  0.64850  Biso   1.000  C
  H49      1.0000 0.76520  0.81840  0.61030  Biso   1.000  H
  C71      1.0000 0.97860  0.86170  0.61020  Biso   1.000  C
  C72      1.0000 0.76040  0.90060  0.55200  Biso   1.000  C
  C73      1.0000 0.77530  0.88420  0.62920  Biso   1.000  C
  C74      1.0000 0.80240  0.85840  0.77500  Biso   1.000  C
  H50      1.0000 0.81250  0.85020  0.82600  Biso   1.000  H
  C75      1.0000 0.97660  0.90660  0.58900  Biso   1.000  C
  H51      1.0000 0.98550  0.92800  0.62720  Biso   1.000  H
  N36      1.0000 0.96270  0.92060  0.51800  Biso   1.000  N
  N37      1.0000 0.71240  0.92390  0.30030  Biso   1.000  N
  N38      1.0000 0.54390  0.92050  0.48120  Biso   1.000  N
  C76      1.0000 0.55740  0.84310  0.51270  Biso   1.000  C
  H52      1.0000 0.56680  0.82150  0.55060  Biso   1.000  H
  C77      1.0000 0.56020  0.88760  0.53230  Biso   1.000  C
  H53      1.0000 0.57400  0.89550  0.58270  Biso   1.000  H
  C78      1.0000 0.51020  0.84960  0.30550  Biso   1.000  C
  C79      1.0000 0.94900  0.88770  0.46680  Biso   1.000  C
  H54      1.0000 0.93710  0.89530  0.41590  Biso   1.000  H
  C80      1.0000 0.88760  0.75440  0.22350  Biso   1.000  C
  O28      1.0000 0.90080  0.00490  0.60380  Biso   1.000  O
  C81      1.0000 0.76390  0.72610  0.52760  Biso   1.000  C
  H55      1.0000 0.74820  0.69570  0.54070  Biso   1.000  H
  H56      1.0000 0.72710  0.74630  0.55380  Biso   1.000  H
  C82      1.0000 0.97630  0.75420  0.21170  Biso   1.000  C
  H57      1.0000 0.99130  0.78040  0.18180  Biso   1.000  H
  H58      1.0000 0.99090  0.72780  0.18200  Biso   1.000  H
  O29      1.0000 0.85490  0.77510  0.28090  Biso   1.000  O
  O30      1.0000 0.84540  0.73470  0.17560  Biso   1.000  O
  C83      1.0000 0.79970  0.90290  0.75500  Biso   1.000  C
  H59      1.0000 0.80790  0.92410  0.79360  Biso   1.000  H
  N39      1.0000 0.71030  0.83370  0.25540  Biso   1.000  N
  C84      1.0000 0.72650  0.84540  0.32860  Biso   1.000  C
  H60      1.0000 0.73820  0.82330  0.36480  Biso   1.000  H
  C85      1.0000 0.69370  0.86670  0.20430  Biso   1.000  C
  H61      1.0000 0.68080  0.85940  0.15340  Biso   1.000  H
  C86      1.0000 0.69600  0.91210  0.22780  Biso   1.000  C
  H62      1.0000 0.68570  0.93440  0.19140  Biso   1.000  H
  C87      1.0000 0.99480  0.01880  0.70730  Biso   1.000  C
  H63      1.0000 0.02800  0.99510  0.68560  Biso   1.000  H
  H64      1.0000 0.01460  0.04710  0.68710  Biso   1.000  H
  C88      1.0000 0.50220  0.97770  0.70320  Biso   1.000  C
  H65      1.0000 0.48130  0.94960  0.68300  Biso   1.000  H
  H66      1.0000 0.46990  0.00210  0.68250  Biso   1.000  H
  C89      1.0000 0.90750  0.01200  0.67880  Biso   1.000  C
  C90      1.0000 0.59200  0.98370  0.67830  Biso   1.000  C
  Cd10     1.0000 0.00417  0.25017  0.38406  Biso   1.000  Cd
  Cd11     1.0000 0.25045  0.49644  0.63423  Biso   1.000  Cd
  Cd12     1.0000 0.22313  0.25439  0.23511  Biso   1.000  Cd
  N40      1.0000 0.00840  0.30630  0.28910  Biso   1.000  N
  O31      1.0000 0.15560  0.24550  0.34640  Biso   1.000  O
  C91      1.0000 0.49170  0.34860  0.69210  Biso   1.000  C
  N41      1.0000 0.46560  0.32990  0.55990  Biso   1.000  N
  C92      1.0000 0.02690  0.36190  0.38970  Biso   1.000  C
  N42      1.0000 0.49310  0.30550  0.71100  Biso   1.000  N
  C93      1.0000 0.45190  0.34310  0.48650  Biso   1.000  C
  H67      1.0000 0.44420  0.32140  0.44840  Biso   1.000  H
  N43      1.0000 0.04110  0.32970  0.43840  Biso   1.000  N
  C94      1.0000 0.02950  0.40600  0.41050  Biso   1.000  C
  H68      1.0000 0.02060  0.42740  0.37210  Biso   1.000  H
  O32      1.0000 0.40770  0.23500  0.51560  Biso   1.000  O
  C95      1.0000 0.25440  0.23200  0.44510  Biso   1.000  C
  H69      1.0000 0.27900  0.20660  0.41920  Biso   1.000  H
  H70      1.0000 0.28390  0.25870  0.42980  Biso   1.000  H
  O33      1.0000 0.11120  0.23180  0.46260  Biso   1.000  O
  O34      1.0000 0.14830  0.47820  0.72310  Biso   1.000  O
  O35      1.0000 0.35170  0.51160  0.72310  Biso   1.000  O
  N44      1.0000 0.25490  0.44460  0.53290  Biso   1.000  N
  C96      1.0000 0.17030  0.23650  0.41660  Biso   1.000  C
  C97      1.0000 0.34610  0.23410  0.55820  Biso   1.000  C
  C98      1.0000 0.24070  0.40230  0.43110  Biso   1.000  C
  N45      1.0000 0.28630  0.41720  0.68410  Biso   1.000  N
  N46      1.0000 0.24440  0.44620  0.45500  Biso   1.000  N
  O36      1.0000 0.35800  0.23870  0.63060  Biso   1.000  O
  N47      1.0000 0.29040  0.32590  0.72020  Biso   1.000  N
  O37      1.0000 0.10030  0.49250  0.60550  Biso   1.000  O
  N48      1.0000 0.25060  0.37260  0.48930  Biso   1.000  N
  C99      1.0000 0.22610  0.38990  0.35090  Biso   1.000  C
  C100     1.0000 0.27560  0.33960  0.64850  Biso   1.000  C
  H71      1.0000 0.26520  0.31840  0.61030  Biso   1.000  H
  C101     1.0000 0.47860  0.36170  0.61020  Biso   1.000  C
  C102     1.0000 0.26040  0.40060  0.55200  Biso   1.000  C
  C103     1.0000 0.27530  0.38420  0.62920  Biso   1.000  C
  C104     1.0000 0.30240  0.35840  0.77500  Biso   1.000  C
  H72      1.0000 0.31250  0.35020  0.82600  Biso   1.000  H
  C105     1.0000 0.47660  0.40660  0.58900  Biso   1.000  C
  H73      1.0000 0.48550  0.42800  0.62720  Biso   1.000  H
  N49      1.0000 0.46270  0.42060  0.51800  Biso   1.000  N
  N50      1.0000 0.21240  0.42390  0.30030  Biso   1.000  N
  N51      1.0000 0.04390  0.42050  0.48120  Biso   1.000  N
  C106     1.0000 0.05740  0.34310  0.51270  Biso   1.000  C
  H74      1.0000 0.06680  0.32150  0.55060  Biso   1.000  H
  C107     1.0000 0.06020  0.38760  0.53230  Biso   1.000  C
  H75      1.0000 0.07400  0.39550  0.58270  Biso   1.000  H
  C108     1.0000 0.01020  0.34960  0.30550  Biso   1.000  C
  C109     1.0000 0.44900  0.38770  0.46680  Biso   1.000  C
  H76      1.0000 0.43710  0.39530  0.41590  Biso   1.000  H
  C110     1.0000 0.38760  0.25440  0.22350  Biso   1.000  C
  O38      1.0000 0.40080  0.50490  0.60380  Biso   1.000  O
  C111     1.0000 0.26390  0.22610  0.52760  Biso   1.000  C
  H77      1.0000 0.24820  0.19570  0.54070  Biso   1.000  H
  H78      1.0000 0.22710  0.24630  0.55380  Biso   1.000  H
  C112     1.0000 0.47630  0.25420  0.21170  Biso   1.000  C
  H79      1.0000 0.49130  0.28040  0.18180  Biso   1.000  H
  H80      1.0000 0.49090  0.22780  0.18200  Biso   1.000  H
  O39      1.0000 0.35490  0.27510  0.28090  Biso   1.000  O
  O40      1.0000 0.34540  0.23470  0.17560  Biso   1.000  O
  C113     1.0000 0.29970  0.40290  0.75500  Biso   1.000  C
  H81      1.0000 0.30790  0.42410  0.79360  Biso   1.000  H
  N52      1.0000 0.21030  0.33370  0.25540  Biso   1.000  N
  C114     1.0000 0.22650  0.34540  0.32860  Biso   1.000  C
  H82      1.0000 0.23820  0.32330  0.36480  Biso   1.000  H
  C115     1.0000 0.19370  0.36670  0.20430  Biso   1.000  C
  H83      1.0000 0.18080  0.35940  0.15340  Biso   1.000  H
  C116     1.0000 0.19600  0.41210  0.22780  Biso   1.000  C
  H84      1.0000 0.18570  0.43440  0.19140  Biso   1.000  H
  C117     1.0000 0.49480  0.51880  0.70730  Biso   1.000  C
  H85      1.0000 0.52800  0.49510  0.68560  Biso   1.000  H
  H86      1.0000 0.51460  0.54710  0.68710  Biso   1.000  H
  C118     1.0000 0.00220  0.47770  0.70320  Biso   1.000  C
  H87      1.0000 0.98130  0.44960  0.68300  Biso   1.000  H
  H88      1.0000 0.96990  0.50210  0.68250  Biso   1.000  H
  C119     1.0000 0.40750  0.51200  0.67880  Biso   1.000  C
  C120     1.0000 0.09200  0.48370  0.67830  Biso   1.000  C
  Cd13     1.0000 0.50417  0.24983  0.61594  Biso   1.000  Cd
  Cd14     1.0000 0.75045  0.00356  0.36577  Biso   1.000  Cd
  Cd15     1.0000 0.72313  0.24561  0.76489  Biso   1.000  Cd
  N53      1.0000 0.50840  0.19370  0.71090  Biso   1.000  N
  O41      1.0000 0.65560  0.25450  0.65360  Biso   1.000  O
  C121     1.0000 0.99170  0.15140  0.30790  Biso   1.000  C
  N54      1.0000 0.96560  0.17010  0.44010  Biso   1.000  N
  C122     1.0000 0.52690  0.13810  0.61030  Biso   1.000  C
  N55      1.0000 0.99310  0.19450  0.28900  Biso   1.000  N
  C123     1.0000 0.95190  0.15690  0.51350  Biso   1.000  C
  H89      1.0000 0.94420  0.17860  0.55160  Biso   1.000  H
  N56      1.0000 0.54110  0.17030  0.56160  Biso   1.000  N
  C124     1.0000 0.52950  0.09400  0.58950  Biso   1.000  C
  H90      1.0000 0.52060  0.07260  0.62790  Biso   1.000  H
  O42      1.0000 0.90770  0.26500  0.48440  Biso   1.000  O
  C125     1.0000 0.75440  0.26800  0.55490  Biso   1.000  C
  H91      1.0000 0.77900  0.29340  0.58080  Biso   1.000  H
  H92      1.0000 0.78390  0.24130  0.57020  Biso   1.000  H
  O43      1.0000 0.61120  0.26820  0.53740  Biso   1.000  O
  O44      1.0000 0.64830  0.02180  0.27690  Biso   1.000  O
  O45      1.0000 0.85170  0.98840  0.27690  Biso   1.000  O
  N57      1.0000 0.75490  0.05540  0.46710  Biso   1.000  N
  C126     1.0000 0.67030  0.26350  0.58340  Biso   1.000  C
  C127     1.0000 0.84610  0.26590  0.44180  Biso   1.000  C
  C128     1.0000 0.74070  0.09770  0.56890  Biso   1.000  C
  N58      1.0000 0.78630  0.08280  0.31590  Biso   1.000  N
  N59      1.0000 0.74440  0.05380  0.54500  Biso   1.000  N
  O46      1.0000 0.85800  0.26130  0.36940  Biso   1.000  O
  N60      1.0000 0.79040  0.17410  0.27980  Biso   1.000  N
  O47      1.0000 0.60030  0.00750  0.39450  Biso   1.000  O
  N61      1.0000 0.75060  0.12740  0.51070  Biso   1.000  N
  C129     1.0000 0.72610  0.11010  0.64910  Biso   1.000  C
  C130     1.0000 0.77560  0.16040  0.35150  Biso   1.000  C
  H93      1.0000 0.76520  0.18160  0.38970  Biso   1.000  H
  C131     1.0000 0.97860  0.13830  0.38980  Biso   1.000  C
  C132     1.0000 0.76040  0.09940  0.44800  Biso   1.000  C
  C133     1.0000 0.77530  0.11580  0.37080  Biso   1.000  C
  C134     1.0000 0.80240  0.14160  0.22500  Biso   1.000  C
  H94      1.0000 0.81250  0.14980  0.17400  Biso   1.000  H
  C135     1.0000 0.97660  0.09340  0.41100  Biso   1.000  C
  H95      1.0000 0.98550  0.07200  0.37280  Biso   1.000  H
  N62      1.0000 0.96270  0.07940  0.48200  Biso   1.000  N
  N63      1.0000 0.71240  0.07610  0.69970  Biso   1.000  N
  N64      1.0000 0.54390  0.07950  0.51880  Biso   1.000  N
  C136     1.0000 0.55740  0.15690  0.48730  Biso   1.000  C
  H96      1.0000 0.56680  0.17850  0.44940  Biso   1.000  H
  C137     1.0000 0.56020  0.11240  0.46770  Biso   1.000  C
  H97      1.0000 0.57400  0.10450  0.41730  Biso   1.000  H
  C138     1.0000 0.51020  0.15040  0.69450  Biso   1.000  C
  C139     1.0000 0.94900  0.11230  0.53320  Biso   1.000  C
  H98      1.0000 0.93710  0.10470  0.58410  Biso   1.000  H
  C140     1.0000 0.88760  0.24560  0.77650  Biso   1.000  C
  O48      1.0000 0.90080  0.99510  0.39620  Biso   1.000  O
  C141     1.0000 0.76390  0.27390  0.47240  Biso   1.000  C
  H99      1.0000 0.74820  0.30430  0.45930  Biso   1.000  H
  H100     1.0000 0.72710  0.25370  0.44620  Biso   1.000  H
  C142     1.0000 0.97630  0.24580  0.78830  Biso   1.000  C
  H101     1.0000 0.99130  0.21960  0.81820  Biso   1.000  H
  H102     1.0000 0.99090  0.27220  0.81800  Biso   1.000  H
  O49      1.0000 0.85490  0.22490  0.71910  Biso   1.000  O
  O50      1.0000 0.84540  0.26530  0.82440  Biso   1.000  O
  C143     1.0000 0.79970  0.09710  0.24500  Biso   1.000  C
  H103     1.0000 0.80790  0.07590  0.20640  Biso   1.000  H
  N65      1.0000 0.71030  0.16630  0.74460  Biso   1.000  N
  C144     1.0000 0.72650  0.15460  0.67140  Biso   1.000  C
  H104     1.0000 0.73820  0.17670  0.63520  Biso   1.000  H
  C145     1.0000 0.69370  0.13330  0.79570  Biso   1.000  C
  H105     1.0000 0.68080  0.14060  0.84660  Biso   1.000  H
  C146     1.0000 0.69600  0.08790  0.77220  Biso   1.000  C
  H106     1.0000 0.68570  0.06560  0.80860  Biso   1.000  H
  C147     1.0000 0.99480  0.98120  0.29270  Biso   1.000  C
  H107     1.0000 0.02800  0.00490  0.31440  Biso   1.000  H
  H108     1.0000 0.01460  0.95290  0.31290  Biso   1.000  H
  C148     1.0000 0.50220  0.02230  0.29680  Biso   1.000  C
  H109     1.0000 0.48130  0.05040  0.31700  Biso   1.000  H
  H110     1.0000 0.46990  0.99790  0.31750  Biso   1.000  H
  C149     1.0000 0.90750  0.98800  0.32120  Biso   1.000  C
  C150     1.0000 0.59200  0.01630  0.32170  Biso   1.000  C
  Cd16     1.0000 0.00417  0.74983  0.61594  Biso   1.000  Cd
  Cd17     1.0000 0.25045  0.50356  0.36577  Biso   1.000  Cd
  Cd18     1.0000 0.22313  0.74561  0.76489  Biso   1.000  Cd
  N66      1.0000 0.00840  0.69370  0.71090  Biso   1.000  N
  O51      1.0000 0.15560  0.75450  0.65360  Biso   1.000  O
  C151     1.0000 0.49170  0.65140  0.30790  Biso   1.000  C
  N67      1.0000 0.46560  0.67010  0.44010  Biso   1.000  N
  C152     1.0000 0.02690  0.63810  0.61030  Biso   1.000  C
  N68      1.0000 0.49310  0.69450  0.28900  Biso   1.000  N
  C153     1.0000 0.45190  0.65690  0.51350  Biso   1.000  C
  H111     1.0000 0.44420  0.67860  0.55160  Biso   1.000  H
  N69      1.0000 0.04110  0.67030  0.56160  Biso   1.000  N
  C154     1.0000 0.02950  0.59400  0.58950  Biso   1.000  C
  H112     1.0000 0.02060  0.57260  0.62790  Biso   1.000  H
  O52      1.0000 0.40770  0.76500  0.48440  Biso   1.000  O
  C155     1.0000 0.25440  0.76800  0.55490  Biso   1.000  C
  H113     1.0000 0.27900  0.79340  0.58080  Biso   1.000  H
  H114     1.0000 0.28390  0.74130  0.57020  Biso   1.000  H
  O53      1.0000 0.11120  0.76820  0.53740  Biso   1.000  O
  O54      1.0000 0.14830  0.52180  0.27690  Biso   1.000  O
  O55      1.0000 0.35170  0.48840  0.27690  Biso   1.000  O
  N70      1.0000 0.25490  0.55540  0.46710  Biso   1.000  N
  C156     1.0000 0.17030  0.76350  0.58340  Biso   1.000  C
  C157     1.0000 0.34610  0.76590  0.44180  Biso   1.000  C
  C158     1.0000 0.24070  0.59770  0.56890  Biso   1.000  C
  N71      1.0000 0.28630  0.58280  0.31590  Biso   1.000  N
  N72      1.0000 0.24440  0.55380  0.54500  Biso   1.000  N
  O56      1.0000 0.35800  0.76130  0.36940  Biso   1.000  O
  N73      1.0000 0.29040  0.67410  0.27980  Biso   1.000  N
  O57      1.0000 0.10030  0.50750  0.39450  Biso   1.000  O
  N74      1.0000 0.25060  0.62740  0.51070  Biso   1.000  N
  C159     1.0000 0.22610  0.61010  0.64910  Biso   1.000  C
  C160     1.0000 0.27560  0.66040  0.35150  Biso   1.000  C
  H115     1.0000 0.26520  0.68160  0.38970  Biso   1.000  H
  C161     1.0000 0.47860  0.63830  0.38980  Biso   1.000  C
  C162     1.0000 0.26040  0.59940  0.44800  Biso   1.000  C
  C163     1.0000 0.27530  0.61580  0.37080  Biso   1.000  C
  C164     1.0000 0.30240  0.64160  0.22500  Biso   1.000  C
  H116     1.0000 0.31250  0.64980  0.17400  Biso   1.000  H
  C165     1.0000 0.47660  0.59340  0.41100  Biso   1.000  C
  H117     1.0000 0.48550  0.57200  0.37280  Biso   1.000  H
  N75      1.0000 0.46270  0.57940  0.48200  Biso   1.000  N
  N76      1.0000 0.21240  0.57610  0.69970  Biso   1.000  N
  N77      1.0000 0.04390  0.57950  0.51880  Biso   1.000  N
  C166     1.0000 0.05740  0.65690  0.48730  Biso   1.000  C
  H118     1.0000 0.06680  0.67850  0.44940  Biso   1.000  H
  C167     1.0000 0.06020  0.61240  0.46770  Biso   1.000  C
  H119     1.0000 0.07400  0.60450  0.41730  Biso   1.000  H
  C168     1.0000 0.01020  0.65040  0.69450  Biso   1.000  C
  C169     1.0000 0.44900  0.61230  0.53320  Biso   1.000  C
  H120     1.0000 0.43710  0.60470  0.58410  Biso   1.000  H
  C170     1.0000 0.38760  0.74560  0.77650  Biso   1.000  C
  O58      1.0000 0.40080  0.49510  0.39620  Biso   1.000  O
  C171     1.0000 0.26390  0.77390  0.47240  Biso   1.000  C
  H121     1.0000 0.24820  0.80430  0.45930  Biso   1.000  H
  H122     1.0000 0.22710  0.75370  0.44620  Biso   1.000  H
  C172     1.0000 0.47630  0.74580  0.78830  Biso   1.000  C
  H123     1.0000 0.49130  0.71960  0.81820  Biso   1.000  H
  H124     1.0000 0.49090  0.77220  0.81800  Biso   1.000  H
  O59      1.0000 0.35490  0.72490  0.71910  Biso   1.000  O
  O60      1.0000 0.34540  0.76530  0.82440  Biso   1.000  O
  C173     1.0000 0.29970  0.59710  0.24500  Biso   1.000  C
  H125     1.0000 0.30790  0.57590  0.20640  Biso   1.000  H
  N78      1.0000 0.21030  0.66630  0.74460  Biso   1.000  N
  C174     1.0000 0.22650  0.65460  0.67140  Biso   1.000  C
  H126     1.0000 0.23820  0.67670  0.63520  Biso   1.000  H
  C175     1.0000 0.19370  0.63330  0.79570  Biso   1.000  C
  H127     1.0000 0.18080  0.64060  0.84660  Biso   1.000  H
  C176     1.0000 0.19600  0.58790  0.77220  Biso   1.000  C
  H128     1.0000 0.18570  0.56560  0.80860  Biso   1.000  H
  C177     1.0000 0.49480  0.48120  0.29270  Biso   1.000  C
  H129     1.0000 0.52800  0.50490  0.31440  Biso   1.000  H
  H130     1.0000 0.51460  0.45290  0.31290  Biso   1.000  H
  C178     1.0000 0.00220  0.52230  0.29680  Biso   1.000  C
  H131     1.0000 0.98130  0.55040  0.31700  Biso   1.000  H
  H132     1.0000 0.96990  0.49790  0.31750  Biso   1.000  H
  C179     1.0000 0.40750  0.48800  0.32120  Biso   1.000  C
  C180     1.0000 0.09200  0.51630  0.32170  Biso   1.000  C
  Cd19     1.0000 0.49583  0.75017  0.11594  Biso   1.000  Cd
  Cd20     1.0000 0.24955  0.99644  0.86577  Biso   1.000  Cd
  Cd21     1.0000 0.27687  0.75439  0.26489  Biso   1.000  Cd
  N79      1.0000 0.49160  0.80630  0.21090  Biso   1.000  N
  O61      1.0000 0.34440  0.74550  0.15360  Biso   1.000  O
  C181     1.0000 0.00830  0.84860  0.80790  Biso   1.000  C
  N80      1.0000 0.03440  0.82990  0.94010  Biso   1.000  N
  C182     1.0000 0.47310  0.86190  0.11030  Biso   1.000  C
  N81      1.0000 0.00690  0.80550  0.78900  Biso   1.000  N
  C183     1.0000 0.04810  0.84310  0.01350  Biso   1.000  C
  H133     1.0000 0.05580  0.82140  0.05160  Biso   1.000  H
  N82      1.0000 0.45890  0.82970  0.06160  Biso   1.000  N
  C184     1.0000 0.47050  0.90600  0.08950  Biso   1.000  C
  H134     1.0000 0.47940  0.92740  0.12790  Biso   1.000  H
  O62      1.0000 0.09230  0.73500  0.98440  Biso   1.000  O
  C185     1.0000 0.24560  0.73200  0.05490  Biso   1.000  C
  H135     1.0000 0.22100  0.70660  0.08080  Biso   1.000  H
  H136     1.0000 0.21610  0.75870  0.07020  Biso   1.000  H
  O63      1.0000 0.38880  0.73180  0.03740  Biso   1.000  O
  O64      1.0000 0.35170  0.97820  0.77690  Biso   1.000  O
  O65      1.0000 0.14830  0.01160  0.77690  Biso   1.000  O
  N83      1.0000 0.24510  0.94460  0.96710  Biso   1.000  N
  C186     1.0000 0.32970  0.73650  0.08340  Biso   1.000  C
  C187     1.0000 0.15390  0.73410  0.94180  Biso   1.000  C
  C188     1.0000 0.25930  0.90230  0.06890  Biso   1.000  C
  N84      1.0000 0.21370  0.91720  0.81590  Biso   1.000  N
  N85      1.0000 0.25560  0.94620  0.04500  Biso   1.000  N
  O66      1.0000 0.14200  0.73870  0.86940  Biso   1.000  O
  N86      1.0000 0.20960  0.82590  0.77980  Biso   1.000  N
  O67      1.0000 0.39970  0.99250  0.89450  Biso   1.000  O
  N87      1.0000 0.24940  0.87260  0.01070  Biso   1.000  N
  C189     1.0000 0.27390  0.88990  0.14910  Biso   1.000  C
  C190     1.0000 0.22440  0.83960  0.85150  Biso   1.000  C
  H137     1.0000 0.23480  0.81840  0.88970  Biso   1.000  H
  C191     1.0000 0.02140  0.86170  0.88980  Biso   1.000  C
  C192     1.0000 0.23960  0.90060  0.94800  Biso   1.000  C
  C193     1.0000 0.22470  0.88420  0.87080  Biso   1.000  C
  C194     1.0000 0.19760  0.85840  0.72500  Biso   1.000  C
  H138     1.0000 0.18750  0.85020  0.67400  Biso   1.000  H
  C195     1.0000 0.02340  0.90660  0.91100  Biso   1.000  C
  H139     1.0000 0.01450  0.92800  0.87280  Biso   1.000  H
  N88      1.0000 0.03730  0.92060  0.98200  Biso   1.000  N
  N89      1.0000 0.28760  0.92390  0.19970  Biso   1.000  N
  N90      1.0000 0.45610  0.92050  0.01880  Biso   1.000  N
  C196     1.0000 0.44260  0.84310  0.98730  Biso   1.000  C
  H140     1.0000 0.43320  0.82150  0.94940  Biso   1.000  H
  C197     1.0000 0.43980  0.88760  0.96770  Biso   1.000  C
  H141     1.0000 0.42600  0.89550  0.91730  Biso   1.000  H
  C198     1.0000 0.48980  0.84960  0.19450  Biso   1.000  C
  C199     1.0000 0.05100  0.88770  0.03320  Biso   1.000  C
  H142     1.0000 0.06290  0.89530  0.08410  Biso   1.000  H
  C200     1.0000 0.11240  0.75440  0.27650  Biso   1.000  C
  O68      1.0000 0.09920  0.00490  0.89620  Biso   1.000  O
  C201     1.0000 0.23610  0.72610  0.97240  Biso   1.000  C
  H143     1.0000 0.25180  0.69570  0.95930  Biso   1.000  H
  H144     1.0000 0.27290  0.74630  0.94620  Biso   1.000  H
  C202     1.0000 0.02370  0.75420  0.28830  Biso   1.000  C
  H145     1.0000 0.00870  0.78040  0.31820  Biso   1.000  H
  H146     1.0000 0.00910  0.72780  0.31800  Biso   1.000  H
  O69      1.0000 0.14510  0.77510  0.21910  Biso   1.000  O
  O70      1.0000 0.15460  0.73470  0.32440  Biso   1.000  O
  C203     1.0000 0.20030  0.90290  0.74500  Biso   1.000  C
  H147     1.0000 0.19210  0.92410  0.70640  Biso   1.000  H
  N91      1.0000 0.28970  0.83370  0.24460  Biso   1.000  N
  C204     1.0000 0.27350  0.84540  0.17140  Biso   1.000  C
  H148     1.0000 0.26180  0.82330  0.13520  Biso   1.000  H
  C205     1.0000 0.30630  0.86670  0.29570  Biso   1.000  C
  H149     1.0000 0.31920  0.85940  0.34660  Biso   1.000  H
  C206     1.0000 0.30400  0.91210  0.27220  Biso   1.000  C
  H150     1.0000 0.31430  0.93440  0.30860  Biso   1.000  H
  C207     1.0000 0.00520  0.01880  0.79270  Biso   1.000  C
  H151     1.0000 0.97200  0.99510  0.81440  Biso   1.000  H
  H152     1.0000 0.98540  0.04710  0.81290  Biso   1.000  H
  C208     1.0000 0.49780  0.97770  0.79680  Biso   1.000  C
  H153     1.0000 0.51870  0.94960  0.81700  Biso   1.000  H
  H154     1.0000 0.53010  0.00210  0.81750  Biso   1.000  H
  C209     1.0000 0.09250  0.01200  0.82120  Biso   1.000  C
  C210     1.0000 0.40800  0.98370  0.82170  Biso   1.000  C
  Cd22     1.0000 0.99583  0.25017  0.11594  Biso   1.000  Cd
  Cd23     1.0000 0.74955  0.49644  0.86577  Biso   1.000  Cd
  Cd24     1.0000 0.77687  0.25439  0.26489  Biso   1.000  Cd
  N92      1.0000 0.99160  0.30630  0.21090  Biso   1.000  N
  O71      1.0000 0.84440  0.24550  0.15360  Biso   1.000  O
  C211     1.0000 0.50830  0.34860  0.80790  Biso   1.000  C
  N93      1.0000 0.53440  0.32990  0.94010  Biso   1.000  N
  C212     1.0000 0.97310  0.36190  0.11030  Biso   1.000  C
  N94      1.0000 0.50690  0.30550  0.78900  Biso   1.000  N
  C213     1.0000 0.54810  0.34310  0.01350  Biso   1.000  C
  H155     1.0000 0.55580  0.32140  0.05160  Biso   1.000  H
  N95      1.0000 0.95890  0.32970  0.06160  Biso   1.000  N
  C214     1.0000 0.97050  0.40600  0.08950  Biso   1.000  C
  H156     1.0000 0.97940  0.42740  0.12790  Biso   1.000  H
  O72      1.0000 0.59230  0.23500  0.98440  Biso   1.000  O
  C215     1.0000 0.74560  0.23200  0.05490  Biso   1.000  C
  H157     1.0000 0.72100  0.20660  0.08080  Biso   1.000  H
  H158     1.0000 0.71610  0.25870  0.07020  Biso   1.000  H
  O73      1.0000 0.88880  0.23180  0.03740  Biso   1.000  O
  O74      1.0000 0.85170  0.47820  0.77690  Biso   1.000  O
  O75      1.0000 0.64830  0.51160  0.77690  Biso   1.000  O
  N96      1.0000 0.74510  0.44460  0.96710  Biso   1.000  N
  C216     1.0000 0.82970  0.23650  0.08340  Biso   1.000  C
  C217     1.0000 0.65390  0.23410  0.94180  Biso   1.000  C
  C218     1.0000 0.75930  0.40230  0.06890  Biso   1.000  C
  N97      1.0000 0.71370  0.41720  0.81590  Biso   1.000  N
  N98      1.0000 0.75560  0.44620  0.04500  Biso   1.000  N
  O76      1.0000 0.64200  0.23870  0.86940  Biso   1.000  O
  N99      1.0000 0.70960  0.32590  0.77980  Biso   1.000  N
  O77      1.0000 0.89970  0.49250  0.89450  Biso   1.000  O
  N100     1.0000 0.74940  0.37260  0.01070  Biso   1.000  N
  C219     1.0000 0.77390  0.38990  0.14910  Biso   1.000  C
  C220     1.0000 0.72440  0.33960  0.85150  Biso   1.000  C
  H159     1.0000 0.73480  0.31840  0.88970  Biso   1.000  H
  C221     1.0000 0.52140  0.36170  0.88980  Biso   1.000  C
  C222     1.0000 0.73960  0.40060  0.94800  Biso   1.000  C
  C223     1.0000 0.72470  0.38420  0.87080  Biso   1.000  C
  C224     1.0000 0.69760  0.35840  0.72500  Biso   1.000  C
  H160     1.0000 0.68750  0.35020  0.67400  Biso   1.000  H
  C225     1.0000 0.52340  0.40660  0.91100  Biso   1.000  C
  H161     1.0000 0.51450  0.42800  0.87280  Biso   1.000  H
  N101     1.0000 0.53730  0.42060  0.98200  Biso   1.000  N
  N102     1.0000 0.78760  0.42390  0.19970  Biso   1.000  N
  N103     1.0000 0.95610  0.42050  0.01880  Biso   1.000  N
  C226     1.0000 0.94260  0.34310  0.98730  Biso   1.000  C
  H162     1.0000 0.93320  0.32150  0.94940  Biso   1.000  H
  C227     1.0000 0.93980  0.38760  0.96770  Biso   1.000  C
  H163     1.0000 0.92600  0.39550  0.91730  Biso   1.000  H
  C228     1.0000 0.98980  0.34960  0.19450  Biso   1.000  C
  C229     1.0000 0.55100  0.38770  0.03320  Biso   1.000  C
  H164     1.0000 0.56290  0.39530  0.08410  Biso   1.000  H
  C230     1.0000 0.61240  0.25440  0.27650  Biso   1.000  C
  O78      1.0000 0.59920  0.50490  0.89620  Biso   1.000  O
  C231     1.0000 0.73610  0.22610  0.97240  Biso   1.000  C
  H165     1.0000 0.75180  0.19570  0.95930  Biso   1.000  H
  H166     1.0000 0.77290  0.24630  0.94620  Biso   1.000  H
  C232     1.0000 0.52370  0.25420  0.28830  Biso   1.000  C
  H167     1.0000 0.50870  0.28040  0.31820  Biso   1.000  H
  H168     1.0000 0.50910  0.22780  0.31800  Biso   1.000  H
  O79      1.0000 0.64510  0.27510  0.21910  Biso   1.000  O
  O80      1.0000 0.65460  0.23470  0.32440  Biso   1.000  O
  C233     1.0000 0.70030  0.40290  0.74500  Biso   1.000  C
  H169     1.0000 0.69210  0.42410  0.70640  Biso   1.000  H
  N104     1.0000 0.78970  0.33370  0.24460  Biso   1.000  N
  C234     1.0000 0.77350  0.34540  0.17140  Biso   1.000  C
  H170     1.0000 0.76180  0.32330  0.13520  Biso   1.000  H
  C235     1.0000 0.80630  0.36670  0.29570  Biso   1.000  C
  H171     1.0000 0.81920  0.35940  0.34660  Biso   1.000  H
  C236     1.0000 0.80400  0.41210  0.27220  Biso   1.000  C
  H172     1.0000 0.81430  0.43440  0.30860  Biso   1.000  H
  C237     1.0000 0.50520  0.51880  0.79270  Biso   1.000  C
  H173     1.0000 0.47200  0.49510  0.81440  Biso   1.000  H
  H174     1.0000 0.48540  0.54710  0.81290  Biso   1.000  H
  C238     1.0000 0.99780  0.47770  0.79680  Biso   1.000  C
  H175     1.0000 0.01870  0.44960  0.81700  Biso   1.000  H
  H176     1.0000 0.03010  0.50210  0.81750  Biso   1.000  H
  C239     1.0000 0.59250  0.51200  0.82120  Biso   1.000  C
  C240     1.0000 0.90800  0.48370  0.82170  Biso   1.000  C
  Cd25     1.0000 0.47169  0.00000  0.00000  Biso   1.000  Cd
  Cd26     1.0000 0.02545  0.00000  0.00000  Biso   1.000  Cd
  Cd27     1.0000 0.97169  0.50000  0.00000  Biso   1.000  Cd
  Cd28     1.0000 0.52545  0.50000  0.00000  Biso   1.000  Cd
  Cd29     1.0000 0.52831  0.00000  0.50000  Biso   1.000  Cd
  Cd30     1.0000 0.97455  0.00000  0.50000  Biso   1.000  Cd
  Cd31     1.0000 0.02831  0.50000  0.50000  Biso   1.000  Cd
  Cd32     1.0000 0.47455  0.50000  0.50000  Biso   1.000  Cd
  N105     1.0000 0.00000  0.12260  0.25000  Biso   1.000  N
  N106     1.0000 0.50000  0.62260  0.25000  Biso   1.000  N
  N107     1.0000 0.00000  0.87740  0.75000  Biso   1.000  N
  N108     1.0000 0.50000  0.37740  0.75000  Biso   1.000  N
  N109     1.0000 0.50000  0.12190  0.75000  Biso   1.000  N
  N110     1.0000 0.00000  0.62190  0.75000  Biso   1.000  N
  N111     1.0000 0.50000  0.87810  0.25000  Biso   1.000  N
  N112     1.0000 0.00000  0.37810  0.25000  Biso   1.000  N
