data_image0
_cell_length_a       15.348
_cell_length_b       32.866
_cell_length_c       10.1122
_cell_angle_alpha    90
_cell_angle_beta     106.642
_cell_angle_gamma    90

_symmetry_space_group_name_H-M    "P 1"
_symmetry_int_tables_number       1

loop_
  _symmetry_equiv_pos_as_xyz
  'x, y, z'

loop_
  _atom_site_label
  _atom_site_occupancy
  _atom_site_fract_x
  _atom_site_fract_y
  _atom_site_fract_z
  _atom_site_thermal_displace_type
  _atom_site_B_iso_or_equiv
  _atom_site_type_symbol
  Cu1      1.0000 0.15488  0.27467  0.46082  Biso   1.000  Cu
  Cu2      1.0000 0.00823  0.21721  0.48399  Biso   1.000  Cu
  Cu3      1.0000 0.08122  0.21667  0.22564  Biso   1.000  Cu
  O1       1.0000 0.11870  0.21828  0.42540  Biso   1.000  O
  H1       1.0000 0.15890  0.20090  0.46450  Biso   1.000  H
  O2       1.0000 0.03300  0.15784  0.23530  Biso   1.000  O
  O3       1.0000 0.97310  0.16248  0.41500  Biso   1.000  O
  O4       1.0000 0.20670  0.22830  0.21320  Biso   1.000  O
  O5       1.0000 0.26360  0.26713  0.40120  Biso   1.000  O
  O6       1.0000 0.04530  0.22509  0.02890  Biso   1.000  O
  H2       1.0000 0.00520  0.20820  0.98590  Biso   1.000  H
  O7       1.0000 0.53860  0.34040  0.42910  Biso   1.000  O
  O8       1.0000 0.64570  0.30780  0.40140  Biso   1.000  O
  O9       1.0000 0.50360  0.30970  0.01900  Biso   1.000  O
  O10      1.0000 0.61180  0.34080  0.97700  Biso   1.000  O
  O11      1.0000 0.75790  0.99990  0.34220  Biso   1.000  O
  O12      1.0000 0.80100  0.04010  0.49080  Biso   1.000  O
  O13      1.0000 0.77990  0.01540  0.01840  Biso   1.000  O
  O14      1.0000 0.81430  0.97140  0.88060  Biso   1.000  O
  O15      1.0000 0.90230  0.27869  0.04880  Biso   1.000  O
  O16      1.0000 0.95560  0.23974  0.23670  Biso   1.000  O
  O17      1.0000 0.90050  0.81948  0.26830  Biso   1.000  O
  O18      1.0000 0.83610  0.83267  0.04650  Biso   1.000  O
  C1       1.0000 0.99290  0.14377  0.31700  Biso   1.000  C
  C2       1.0000 0.96610  0.09978  0.30000  Biso   1.000  C
  C3       1.0000 0.01090  0.07320  0.23690  Biso   1.000  C
  H3       1.0000 0.05800  0.08280  0.20450  Biso   1.000  H
  C4       1.0000 0.98730  0.03270  0.22070  Biso   1.000  C
  H4       1.0000 0.02040  0.01530  0.18100  Biso   1.000  H
  C5       1.0000 0.91550  0.01740  0.26220  Biso   1.000  C
  C6       1.0000 0.87070  0.04490  0.32510  Biso   1.000  C
  C7       1.0000 0.89670  0.08480  0.34550  Biso   1.000  C
  H5       1.0000 0.86670  0.10190  0.39110  Biso   1.000  H
  C8       1.0000 0.89290  0.97300  0.23980  Biso   1.000  C
  C9       1.0000 0.85070  0.95640  0.11040  Biso   1.000  C
  C10      1.0000 0.84200  0.91510  0.08820  Biso   1.000  C
  H6       1.0000 0.81300  0.90520  0.00050  Biso   1.000  H
  C11      1.0000 0.87610  0.88860  0.19470  Biso   1.000  C
  C12      1.0000 0.92160  0.90430  0.32380  Biso   1.000  C
  H7       1.0000 0.94700  0.88660  0.39660  Biso   1.000  H
  C13      1.0000 0.92960  0.94610  0.34520  Biso   1.000  C
  H8       1.0000 0.96020  0.95600  0.43230  Biso   1.000  H
  C14      1.0000 0.87100  0.84330  0.17100  Biso   1.000  C
  C15      1.0000 0.26950  0.24767  0.29670  Biso   1.000  C
  C16      1.0000 0.36060  0.24830  0.27040  Biso   1.000  C
  C17      1.0000 0.41820  0.28050  0.32290  Biso   1.000  C
  H9       1.0000 0.40060  0.30080  0.37370  Biso   1.000  H
  C18      1.0000 0.50230  0.28200  0.29880  Biso   1.000  C
  C19      1.0000 0.53170  0.25220  0.22180  Biso   1.000  C
  C20      1.0000 0.47330  0.21980  0.17600  Biso   1.000  C
  H10      1.0000 0.49130  0.19870  0.12860  Biso   1.000  H
  C21      1.0000 0.38880  0.21810  0.19890  Biso   1.000  C
  H11      1.0000 0.35060  0.19620  0.16520  Biso   1.000  H
  C22      1.0000 0.62150  0.25340  0.19070  Biso   1.000  C
  C23      1.0000 0.68520  0.22350  0.24700  Biso   1.000  C
  H12      1.0000 0.66840  0.20200  0.29420  Biso   1.000  H
  C24      1.0000 0.77260  0.22450  0.23540  Biso   1.000  C
  H13      1.0000 0.81400  0.20450  0.27760  Biso   1.000  H
  C25      1.0000 0.79880  0.25520  0.16130  Biso   1.000  C
  C26      1.0000 0.73400  0.28440  0.09710  Biso   1.000  C
  H14      1.0000 0.74960  0.30460  0.04380  Biso   1.000  H
  C27      1.0000 0.64820  0.28340  0.11160  Biso   1.000  C
  C28      1.0000 0.89380  0.25794  0.14970  Biso   1.000  C
  N1       1.0000 0.79170  0.03260  0.37040  Biso   1.000  N
  N2       1.0000 0.56370  0.31530  0.36280  Biso   1.000  N
  N3       1.0000 0.58430  0.31410  0.03790  Biso   1.000  N
  N4       1.0000 0.81230  0.98350  0.99300  Biso   1.000  N
  O19      1.0000 0.59730  0.33730  0.29500  Biso   1.000  O
  O20      1.0000 0.73910  0.05830  0.38900  Biso   1.000  O
  Cu4      1.0000 0.84512  0.77467  0.03918  Biso   1.000  Cu
  Cu5      1.0000 0.99177  0.71721  0.01601  Biso   1.000  Cu
  Cu6      1.0000 0.91878  0.71667  0.27436  Biso   1.000  Cu
  O21      1.0000 0.88130  0.71828  0.07460  Biso   1.000  O
  H15      1.0000 0.84110  0.70090  0.03550  Biso   1.000  H
  O22      1.0000 0.96700  0.65784  0.26470  Biso   1.000  O
  O23      1.0000 0.02690  0.66248  0.08500  Biso   1.000  O
  O24      1.0000 0.79330  0.72830  0.28680  Biso   1.000  O
  O25      1.0000 0.73640  0.76713  0.09880  Biso   1.000  O
  O26      1.0000 0.95470  0.72509  0.47110  Biso   1.000  O
  H16      1.0000 0.99480  0.70820  0.51410  Biso   1.000  H
  O27      1.0000 0.46140  0.84040  0.07090  Biso   1.000  O
  O28      1.0000 0.35430  0.80780  0.09860  Biso   1.000  O
  O29      1.0000 0.49640  0.80970  0.48100  Biso   1.000  O
  O30      1.0000 0.38820  0.84080  0.52300  Biso   1.000  O
  O31      1.0000 0.24210  0.49990  0.15780  Biso   1.000  O
  O32      1.0000 0.19900  0.54010  0.00920  Biso   1.000  O
  O33      1.0000 0.22010  0.51540  0.48160  Biso   1.000  O
  O34      1.0000 0.18570  0.47140  0.61940  Biso   1.000  O
  O35      1.0000 0.09770  0.77869  0.45120  Biso   1.000  O
  O36      1.0000 0.04440  0.73974  0.26330  Biso   1.000  O
  O37      1.0000 0.09950  0.31948  0.23170  Biso   1.000  O
  O38      1.0000 0.16390  0.33267  0.45350  Biso   1.000  O
  C29      1.0000 0.00710  0.64377  0.18300  Biso   1.000  C
  C30      1.0000 0.03390  0.59978  0.20000  Biso   1.000  C
  C31      1.0000 0.98910  0.57320  0.26310  Biso   1.000  C
  H17      1.0000 0.94200  0.58280  0.29550  Biso   1.000  H
  C32      1.0000 0.01270  0.53270  0.27930  Biso   1.000  C
  H18      1.0000 0.97960  0.51530  0.31900  Biso   1.000  H
  C33      1.0000 0.08450  0.51740  0.23780  Biso   1.000  C
  C34      1.0000 0.12930  0.54490  0.17490  Biso   1.000  C
  C35      1.0000 0.10330  0.58480  0.15450  Biso   1.000  C
  H19      1.0000 0.13330  0.60190  0.10890  Biso   1.000  H
  C36      1.0000 0.10710  0.47300  0.26020  Biso   1.000  C
  C37      1.0000 0.14930  0.45640  0.38960  Biso   1.000  C
  C38      1.0000 0.15800  0.41510  0.41180  Biso   1.000  C
  H20      1.0000 0.18700  0.40520  0.49950  Biso   1.000  H
  C39      1.0000 0.12390  0.38860  0.30530  Biso   1.000  C
  C40      1.0000 0.07840  0.40430  0.17620  Biso   1.000  C
  H21      1.0000 0.05300  0.38660  0.10340  Biso   1.000  H
  C41      1.0000 0.07040  0.44610  0.15480  Biso   1.000  C
  H22      1.0000 0.03980  0.45600  0.06770  Biso   1.000  H
  C42      1.0000 0.12900  0.34330  0.32900  Biso   1.000  C
  C43      1.0000 0.73050  0.74767  0.20330  Biso   1.000  C
  C44      1.0000 0.63940  0.74830  0.22960  Biso   1.000  C
  C45      1.0000 0.58180  0.78050  0.17710  Biso   1.000  C
  H23      1.0000 0.59940  0.80080  0.12630  Biso   1.000  H
  C46      1.0000 0.49770  0.78200  0.20120  Biso   1.000  C
  C47      1.0000 0.46830  0.75220  0.27820  Biso   1.000  C
  C48      1.0000 0.52670  0.71980  0.32400  Biso   1.000  C
  H24      1.0000 0.50870  0.69870  0.37140  Biso   1.000  H
  C49      1.0000 0.61120  0.71810  0.30110  Biso   1.000  C
  H25      1.0000 0.64940  0.69620  0.33480  Biso   1.000  H
  C50      1.0000 0.37850  0.75340  0.30930  Biso   1.000  C
  C51      1.0000 0.31480  0.72350  0.25300  Biso   1.000  C
  H26      1.0000 0.33160  0.70200  0.20580  Biso   1.000  H
  C52      1.0000 0.22740  0.72450  0.26460  Biso   1.000  C
  H27      1.0000 0.18600  0.70450  0.22240  Biso   1.000  H
  C53      1.0000 0.20120  0.75520  0.33870  Biso   1.000  C
  C54      1.0000 0.26600  0.78440  0.40290  Biso   1.000  C
  H28      1.0000 0.25040  0.80460  0.45620  Biso   1.000  H
  C55      1.0000 0.35180  0.78340  0.38840  Biso   1.000  C
  C56      1.0000 0.10620  0.75794  0.35030  Biso   1.000  C
  N5       1.0000 0.20830  0.53260  0.12960  Biso   1.000  N
  N6       1.0000 0.43630  0.81530  0.13720  Biso   1.000  N
  N7       1.0000 0.41570  0.81410  0.46210  Biso   1.000  N
  N8       1.0000 0.18770  0.48350  0.50700  Biso   1.000  N
  O39      1.0000 0.40270  0.83730  0.20500  Biso   1.000  O
  O40      1.0000 0.26090  0.55830  0.11100  Biso   1.000  O
  Cu7      1.0000 0.84512  0.72533  0.53918  Biso   1.000  Cu
  Cu8      1.0000 0.99177  0.78279  0.51601  Biso   1.000  Cu
  Cu9      1.0000 0.91878  0.78333  0.77436  Biso   1.000  Cu
  O41      1.0000 0.88130  0.78172  0.57460  Biso   1.000  O
  H29      1.0000 0.84110  0.79910  0.53550  Biso   1.000  H
  O42      1.0000 0.96700  0.84216  0.76470  Biso   1.000  O
  O43      1.0000 0.02690  0.83752  0.58500  Biso   1.000  O
  O44      1.0000 0.79330  0.77170  0.78680  Biso   1.000  O
  O45      1.0000 0.73640  0.73287  0.59880  Biso   1.000  O
  O46      1.0000 0.95470  0.77491  0.97110  Biso   1.000  O
  H30      1.0000 0.99480  0.79180  0.01410  Biso   1.000  H
  O47      1.0000 0.46140  0.65960  0.57090  Biso   1.000  O
  O48      1.0000 0.35430  0.69220  0.59860  Biso   1.000  O
  O49      1.0000 0.49640  0.69030  0.98100  Biso   1.000  O
  O50      1.0000 0.38820  0.65920  0.02300  Biso   1.000  O
  O51      1.0000 0.24210  0.00010  0.65780  Biso   1.000  O
  O52      1.0000 0.19900  0.95990  0.50920  Biso   1.000  O
  O53      1.0000 0.22010  0.98460  0.98160  Biso   1.000  O
  O54      1.0000 0.18570  0.02860  0.11940  Biso   1.000  O
  O55      1.0000 0.09770  0.72131  0.95120  Biso   1.000  O
  O56      1.0000 0.04440  0.76026  0.76330  Biso   1.000  O
  O57      1.0000 0.09950  0.18052  0.73170  Biso   1.000  O
  O58      1.0000 0.16390  0.16733  0.95350  Biso   1.000  O
  C57      1.0000 0.00710  0.85623  0.68300  Biso   1.000  C
  C58      1.0000 0.03390  0.90022  0.70000  Biso   1.000  C
  C59      1.0000 0.98910  0.92680  0.76310  Biso   1.000  C
  H31      1.0000 0.94200  0.91720  0.79550  Biso   1.000  H
  C60      1.0000 0.01270  0.96730  0.77930  Biso   1.000  C
  H32      1.0000 0.97960  0.98470  0.81900  Biso   1.000  H
  C61      1.0000 0.08450  0.98260  0.73780  Biso   1.000  C
  C62      1.0000 0.12930  0.95510  0.67490  Biso   1.000  C
  C63      1.0000 0.10330  0.91520  0.65450  Biso   1.000  C
  H33      1.0000 0.13330  0.89810  0.60890  Biso   1.000  H
  C64      1.0000 0.10710  0.02700  0.76020  Biso   1.000  C
  C65      1.0000 0.14930  0.04360  0.88960  Biso   1.000  C
  C66      1.0000 0.15800  0.08490  0.91180  Biso   1.000  C
  H34      1.0000 0.18700  0.09480  0.99950  Biso   1.000  H
  C67      1.0000 0.12390  0.11140  0.80530  Biso   1.000  C
  C68      1.0000 0.07840  0.09570  0.67620  Biso   1.000  C
  H35      1.0000 0.05300  0.11340  0.60340  Biso   1.000  H
  C69      1.0000 0.07040  0.05390  0.65480  Biso   1.000  C
  H36      1.0000 0.03980  0.04400  0.56770  Biso   1.000  H
  C70      1.0000 0.12900  0.15670  0.82900  Biso   1.000  C
  C71      1.0000 0.73050  0.75233  0.70330  Biso   1.000  C
  C72      1.0000 0.63940  0.75170  0.72960  Biso   1.000  C
  C73      1.0000 0.58180  0.71950  0.67710  Biso   1.000  C
  H37      1.0000 0.59940  0.69920  0.62630  Biso   1.000  H
  C74      1.0000 0.49770  0.71800  0.70120  Biso   1.000  C
  C75      1.0000 0.46830  0.74780  0.77820  Biso   1.000  C
  C76      1.0000 0.52670  0.78020  0.82400  Biso   1.000  C
  H38      1.0000 0.50870  0.80130  0.87140  Biso   1.000  H
  C77      1.0000 0.61120  0.78190  0.80110  Biso   1.000  C
  H39      1.0000 0.64940  0.80380  0.83480  Biso   1.000  H
  C78      1.0000 0.37850  0.74660  0.80930  Biso   1.000  C
  C79      1.0000 0.31480  0.77650  0.75300  Biso   1.000  C
  H40      1.0000 0.33160  0.79800  0.70580  Biso   1.000  H
  C80      1.0000 0.22740  0.77550  0.76460  Biso   1.000  C
  H41      1.0000 0.18600  0.79550  0.72240  Biso   1.000  H
  C81      1.0000 0.20120  0.74480  0.83870  Biso   1.000  C
  C82      1.0000 0.26600  0.71560  0.90290  Biso   1.000  C
  H42      1.0000 0.25040  0.69540  0.95620  Biso   1.000  H
  C83      1.0000 0.35180  0.71660  0.88840  Biso   1.000  C
  C84      1.0000 0.10620  0.74206  0.85030  Biso   1.000  C
  N9       1.0000 0.20830  0.96740  0.62960  Biso   1.000  N
  N10      1.0000 0.43630  0.68470  0.63720  Biso   1.000  N
  N11      1.0000 0.41570  0.68590  0.96210  Biso   1.000  N
  N12      1.0000 0.18770  0.01650  0.00700  Biso   1.000  N
  O59      1.0000 0.40270  0.66270  0.70500  Biso   1.000  O
  O60      1.0000 0.26090  0.94170  0.61100  Biso   1.000  O
  Cu10     1.0000 0.15488  0.22533  0.96082  Biso   1.000  Cu
  Cu11     1.0000 0.00823  0.28279  0.98399  Biso   1.000  Cu
  Cu12     1.0000 0.08122  0.28333  0.72564  Biso   1.000  Cu
  O61      1.0000 0.11870  0.28172  0.92540  Biso   1.000  O
  H43      1.0000 0.15890  0.29910  0.96450  Biso   1.000  H
  O62      1.0000 0.03300  0.34216  0.73530  Biso   1.000  O
  O63      1.0000 0.97310  0.33752  0.91500  Biso   1.000  O
  O64      1.0000 0.20670  0.27170  0.71320  Biso   1.000  O
  O65      1.0000 0.26360  0.23287  0.90120  Biso   1.000  O
  O66      1.0000 0.04530  0.27491  0.52890  Biso   1.000  O
  H44      1.0000 0.00520  0.29180  0.48590  Biso   1.000  H
  O67      1.0000 0.53860  0.15960  0.92910  Biso   1.000  O
  O68      1.0000 0.64570  0.19220  0.90140  Biso   1.000  O
  O69      1.0000 0.50360  0.19030  0.51900  Biso   1.000  O
  O70      1.0000 0.61180  0.15920  0.47700  Biso   1.000  O
  O71      1.0000 0.75790  0.50010  0.84220  Biso   1.000  O
  O72      1.0000 0.80100  0.45990  0.99080  Biso   1.000  O
  O73      1.0000 0.77990  0.48460  0.51840  Biso   1.000  O
  O74      1.0000 0.81430  0.52860  0.38060  Biso   1.000  O
  O75      1.0000 0.90230  0.22131  0.54880  Biso   1.000  O
  O76      1.0000 0.95560  0.26026  0.73670  Biso   1.000  O
  O77      1.0000 0.90050  0.68052  0.76830  Biso   1.000  O
  O78      1.0000 0.83610  0.66733  0.54650  Biso   1.000  O
  C85      1.0000 0.99290  0.35623  0.81700  Biso   1.000  C
  C86      1.0000 0.96610  0.40022  0.80000  Biso   1.000  C
  C87      1.0000 0.01090  0.42680  0.73690  Biso   1.000  C
  H45      1.0000 0.05800  0.41720  0.70450  Biso   1.000  H
  C88      1.0000 0.98730  0.46730  0.72070  Biso   1.000  C
  H46      1.0000 0.02040  0.48470  0.68100  Biso   1.000  H
  C89      1.0000 0.91550  0.48260  0.76220  Biso   1.000  C
  C90      1.0000 0.87070  0.45510  0.82510  Biso   1.000  C
  C91      1.0000 0.89670  0.41520  0.84550  Biso   1.000  C
  H47      1.0000 0.86670  0.39810  0.89110  Biso   1.000  H
  C92      1.0000 0.89290  0.52700  0.73980  Biso   1.000  C
  C93      1.0000 0.85070  0.54360  0.61040  Biso   1.000  C
  C94      1.0000 0.84200  0.58490  0.58820  Biso   1.000  C
  H48      1.0000 0.81300  0.59480  0.50050  Biso   1.000  H
  C95      1.0000 0.87610  0.61140  0.69470  Biso   1.000  C
  C96      1.0000 0.92160  0.59570  0.82380  Biso   1.000  C
  H49      1.0000 0.94700  0.61340  0.89660  Biso   1.000  H
  C97      1.0000 0.92960  0.55390  0.84520  Biso   1.000  C
  H50      1.0000 0.96020  0.54400  0.93230  Biso   1.000  H
  C98      1.0000 0.87100  0.65670  0.67100  Biso   1.000  C
  C99      1.0000 0.26950  0.25233  0.79670  Biso   1.000  C
  C100     1.0000 0.36060  0.25170  0.77040  Biso   1.000  C
  C101     1.0000 0.41820  0.21950  0.82290  Biso   1.000  C
  H51      1.0000 0.40060  0.19920  0.87370  Biso   1.000  H
  C102     1.0000 0.50230  0.21800  0.79880  Biso   1.000  C
  C103     1.0000 0.53170  0.24780  0.72180  Biso   1.000  C
  C104     1.0000 0.47330  0.28020  0.67600  Biso   1.000  C
  H52      1.0000 0.49130  0.30130  0.62860  Biso   1.000  H
  C105     1.0000 0.38880  0.28190  0.69890  Biso   1.000  C
  H53      1.0000 0.35060  0.30380  0.66520  Biso   1.000  H
  C106     1.0000 0.62150  0.24660  0.69070  Biso   1.000  C
  C107     1.0000 0.68520  0.27650  0.74700  Biso   1.000  C
  H54      1.0000 0.66840  0.29800  0.79420  Biso   1.000  H
  C108     1.0000 0.77260  0.27550  0.73540  Biso   1.000  C
  H55      1.0000 0.81400  0.29550  0.77760  Biso   1.000  H
  C109     1.0000 0.79880  0.24480  0.66130  Biso   1.000  C
  C110     1.0000 0.73400  0.21560  0.59710  Biso   1.000  C
  H56      1.0000 0.74960  0.19540  0.54380  Biso   1.000  H
  C111     1.0000 0.64820  0.21660  0.61160  Biso   1.000  C
  C112     1.0000 0.89380  0.24206  0.64970  Biso   1.000  C
  N13      1.0000 0.79170  0.46740  0.87040  Biso   1.000  N
  N14      1.0000 0.56370  0.18470  0.86280  Biso   1.000  N
  N15      1.0000 0.58430  0.18590  0.53790  Biso   1.000  N
  N16      1.0000 0.81230  0.51650  0.49300  Biso   1.000  N
  O79      1.0000 0.59730  0.16270  0.79500  Biso   1.000  O
  O80      1.0000 0.73910  0.44170  0.88900  Biso   1.000  O
