data_image0
_cell_length_a       8.2335
_cell_length_b       17.8751
_cell_length_c       14.2061
_cell_angle_alpha    90
_cell_angle_beta     90
_cell_angle_gamma    90

_symmetry_space_group_name_H-M    "P 1"
_symmetry_int_tables_number       1

loop_
  _symmetry_equiv_pos_as_xyz
  'x, y, z'

loop_
  _atom_site_label
  _atom_site_occupancy
  _atom_site_fract_x
  _atom_site_fract_y
  _atom_site_fract_z
  _atom_site_thermal_displace_type
  _atom_site_B_iso_or_equiv
  _atom_site_type_symbol
  H1       1.0000 0.05370  0.20570  0.84990  Biso   1.000  H
  H2       1.0000 0.76930  0.20550  0.82860  Biso   1.000  H
  C1       1.0000 0.90880  0.30961  0.65730  Biso   1.000  C
  H3       1.0000 0.89780  0.35970  0.67650  Biso   1.000  H
  N1       1.0000 0.95660  0.28915  0.57411  Biso   1.000  N
  C2       1.0000 0.08970  0.40023  0.36380  Biso   1.000  C
  H4       1.0000 0.19870  0.41390  0.37320  Biso   1.000  H
  N2       1.0000 0.04230  0.34082  0.31806  Biso   1.000  N
  N3       1.0000 0.87310  0.34122  0.32020  Biso   1.000  N
  C3       1.0000 0.82890  0.40098  0.36780  Biso   1.000  C
  H5       1.0000 0.72090  0.41480  0.38040  Biso   1.000  H
  N4       1.0000 0.96070  0.43927  0.39575  Biso   1.000  N
  C4       1.0000 0.96530  0.50842  0.45152  Biso   1.000  C
  H6       1.0000 0.85530  0.52880  0.45780  Biso   1.000  H
  H7       1.0000 0.03290  0.54580  0.41970  Biso   1.000  H
  H8       1.0000 0.44630  0.79430  0.34990  Biso   1.000  H
  H9       1.0000 0.73070  0.79450  0.32860  Biso   1.000  H
  C5       1.0000 0.59120  0.69039  0.15730  Biso   1.000  C
  H10      1.0000 0.60220  0.64030  0.17650  Biso   1.000  H
  N5       1.0000 0.54340  0.71085  0.07411  Biso   1.000  N
  C6       1.0000 0.41030  0.59977  0.86380  Biso   1.000  C
  H11      1.0000 0.30130  0.58610  0.87320  Biso   1.000  H
  N6       1.0000 0.45770  0.65918  0.81806  Biso   1.000  N
  N7       1.0000 0.62690  0.65878  0.82020  Biso   1.000  N
  C7       1.0000 0.67110  0.59902  0.86780  Biso   1.000  C
  H12      1.0000 0.77910  0.58520  0.88040  Biso   1.000  H
  N8       1.0000 0.53930  0.56073  0.89575  Biso   1.000  N
  C8       1.0000 0.53470  0.49158  0.95152  Biso   1.000  C
  H13      1.0000 0.64470  0.47120  0.95780  Biso   1.000  H
  H14      1.0000 0.46710  0.45420  0.91970  Biso   1.000  H
  H15      1.0000 0.94630  0.70570  0.15010  Biso   1.000  H
  H16      1.0000 0.23070  0.70550  0.17140  Biso   1.000  H
  C9       1.0000 0.09120  0.80961  0.34270  Biso   1.000  C
  H17      1.0000 0.10220  0.85970  0.32350  Biso   1.000  H
  N9       1.0000 0.04340  0.78915  0.42589  Biso   1.000  N
  C10      1.0000 0.91030  0.90023  0.63620  Biso   1.000  C
  H18      1.0000 0.80130  0.91390  0.62680  Biso   1.000  H
  N10      1.0000 0.95770  0.84082  0.68194  Biso   1.000  N
  N11      1.0000 0.12690  0.84122  0.67980  Biso   1.000  N
  C11      1.0000 0.17110  0.90098  0.63220  Biso   1.000  C
  H19      1.0000 0.27910  0.91480  0.61960  Biso   1.000  H
  N12      1.0000 0.03930  0.93927  0.60425  Biso   1.000  N
  C12      1.0000 0.03470  0.00842  0.54848  Biso   1.000  C
  H20      1.0000 0.14470  0.02880  0.54220  Biso   1.000  H
  H21      1.0000 0.96710  0.04580  0.58030  Biso   1.000  H
  H22      1.0000 0.55370  0.29430  0.65010  Biso   1.000  H
  H23      1.0000 0.26930  0.29450  0.67140  Biso   1.000  H
  C13      1.0000 0.40880  0.19039  0.84270  Biso   1.000  C
  H24      1.0000 0.39780  0.14030  0.82350  Biso   1.000  H
  N13      1.0000 0.45660  0.21085  0.92589  Biso   1.000  N
  C14      1.0000 0.58970  0.09977  0.13620  Biso   1.000  C
  H25      1.0000 0.69870  0.08610  0.12680  Biso   1.000  H
  N14      1.0000 0.54230  0.15918  0.18194  Biso   1.000  N
  N15      1.0000 0.37310  0.15878  0.17980  Biso   1.000  N
  C15      1.0000 0.32890  0.09902  0.13220  Biso   1.000  C
  H26      1.0000 0.22090  0.08520  0.11960  Biso   1.000  H
  N16      1.0000 0.46070  0.06073  0.10425  Biso   1.000  N
  C16      1.0000 0.46530  0.99158  0.04848  Biso   1.000  C
  H27      1.0000 0.35530  0.97120  0.04220  Biso   1.000  H
  H28      1.0000 0.53290  0.95420  0.08030  Biso   1.000  H
  H29      1.0000 0.94630  0.79430  0.15010  Biso   1.000  H
  H30      1.0000 0.23070  0.79450  0.17140  Biso   1.000  H
  C17      1.0000 0.09120  0.69039  0.34270  Biso   1.000  C
  H31      1.0000 0.10220  0.64030  0.32350  Biso   1.000  H
  N17      1.0000 0.04340  0.71085  0.42589  Biso   1.000  N
  C18      1.0000 0.91030  0.59977  0.63620  Biso   1.000  C
  H32      1.0000 0.80130  0.58610  0.62680  Biso   1.000  H
  N18      1.0000 0.95770  0.65918  0.68194  Biso   1.000  N
  N19      1.0000 0.12690  0.65878  0.67980  Biso   1.000  N
  C19      1.0000 0.17110  0.59902  0.63220  Biso   1.000  C
  H33      1.0000 0.27910  0.58520  0.61960  Biso   1.000  H
  N20      1.0000 0.03930  0.56073  0.60425  Biso   1.000  N
  C20      1.0000 0.03470  0.49158  0.54848  Biso   1.000  C
  H34      1.0000 0.14470  0.47120  0.54220  Biso   1.000  H
  H35      1.0000 0.96710  0.45420  0.58030  Biso   1.000  H
  H36      1.0000 0.55370  0.20570  0.65010  Biso   1.000  H
  H37      1.0000 0.26930  0.20550  0.67140  Biso   1.000  H
  C21      1.0000 0.40880  0.30961  0.84270  Biso   1.000  C
  H38      1.0000 0.39780  0.35970  0.82350  Biso   1.000  H
  N21      1.0000 0.45660  0.28915  0.92589  Biso   1.000  N
  C22      1.0000 0.58970  0.40023  0.13620  Biso   1.000  C
  H39      1.0000 0.69870  0.41390  0.12680  Biso   1.000  H
  N22      1.0000 0.54230  0.34082  0.18194  Biso   1.000  N
  N23      1.0000 0.37310  0.34122  0.17980  Biso   1.000  N
  C23      1.0000 0.32890  0.40098  0.13220  Biso   1.000  C
  H40      1.0000 0.22090  0.41480  0.11960  Biso   1.000  H
  N24      1.0000 0.46070  0.43927  0.10425  Biso   1.000  N
  C24      1.0000 0.46530  0.50842  0.04848  Biso   1.000  C
  H41      1.0000 0.35530  0.52880  0.04220  Biso   1.000  H
  H42      1.0000 0.53290  0.54580  0.08030  Biso   1.000  H
  H43      1.0000 0.05370  0.29430  0.84990  Biso   1.000  H
  H44      1.0000 0.76930  0.29450  0.82860  Biso   1.000  H
  C25      1.0000 0.90880  0.19039  0.65730  Biso   1.000  C
  H45      1.0000 0.89780  0.14030  0.67650  Biso   1.000  H
  N25      1.0000 0.95660  0.21085  0.57411  Biso   1.000  N
  C26      1.0000 0.08970  0.09977  0.36380  Biso   1.000  C
  H46      1.0000 0.19870  0.08610  0.37320  Biso   1.000  H
  N26      1.0000 0.04230  0.15918  0.31806  Biso   1.000  N
  N27      1.0000 0.87310  0.15878  0.32020  Biso   1.000  N
  C27      1.0000 0.82890  0.09902  0.36780  Biso   1.000  C
  H47      1.0000 0.72090  0.08520  0.38040  Biso   1.000  H
  N28      1.0000 0.96070  0.06073  0.39575  Biso   1.000  N
  C28      1.0000 0.96530  0.99158  0.45152  Biso   1.000  C
  H48      1.0000 0.85530  0.97120  0.45780  Biso   1.000  H
  H49      1.0000 0.03290  0.95420  0.41970  Biso   1.000  H
  H50      1.0000 0.44630  0.70570  0.34990  Biso   1.000  H
  H51      1.0000 0.73070  0.70550  0.32860  Biso   1.000  H
  C29      1.0000 0.59120  0.80961  0.15730  Biso   1.000  C
  H52      1.0000 0.60220  0.85970  0.17650  Biso   1.000  H
  N29      1.0000 0.54340  0.78915  0.07411  Biso   1.000  N
  C30      1.0000 0.41030  0.90023  0.86380  Biso   1.000  C
  H53      1.0000 0.30130  0.91390  0.87320  Biso   1.000  H
  N30      1.0000 0.45770  0.84082  0.81806  Biso   1.000  N
  N31      1.0000 0.62690  0.84122  0.82020  Biso   1.000  N
  C31      1.0000 0.67110  0.90098  0.86780  Biso   1.000  C
  H54      1.0000 0.77910  0.91480  0.88040  Biso   1.000  H
  N32      1.0000 0.53930  0.93927  0.89575  Biso   1.000  N
  C32      1.0000 0.53470  0.00842  0.95152  Biso   1.000  C
  H55      1.0000 0.64470  0.02880  0.95780  Biso   1.000  H
  H56      1.0000 0.46710  0.04580  0.91970  Biso   1.000  H
  Cd1      1.0000 0.20828  0.25000  0.25092  Biso   1.000  Cd
  C33      1.0000 0.09180  0.25000  0.03160  Biso   1.000  C
  H57      1.0000 0.20220  0.25000  0.01460  Biso   1.000  H
  N33      1.0000 0.03840  0.25000  0.11850  Biso   1.000  N
  N34      1.0000 0.87160  0.25000  0.11320  Biso   1.000  N
  C34      1.0000 0.83300  0.25000  0.02320  Biso   1.000  C
  H58      1.0000 0.72640  0.25000  0.99950  Biso   1.000  H
  N35      1.0000 0.96860  0.25000  0.97000  Biso   1.000  N
  C35      1.0000 0.99060  0.25000  0.86780  Biso   1.000  C
  C36      1.0000 0.83350  0.25000  0.81320  Biso   1.000  C
  N36      1.0000 0.87660  0.25000  0.71310  Biso   1.000  N
  Cd2      1.0000 0.29172  0.75000  0.75092  Biso   1.000  Cd
  C37      1.0000 0.40820  0.75000  0.53160  Biso   1.000  C
  H59      1.0000 0.29780  0.75000  0.51460  Biso   1.000  H
  N37      1.0000 0.46160  0.75000  0.61850  Biso   1.000  N
  N38      1.0000 0.62840  0.75000  0.61320  Biso   1.000  N
  C38      1.0000 0.66700  0.75000  0.52320  Biso   1.000  C
  H60      1.0000 0.77360  0.75000  0.49950  Biso   1.000  H
  N39      1.0000 0.53140  0.75000  0.47000  Biso   1.000  N
  C39      1.0000 0.50940  0.75000  0.36780  Biso   1.000  C
  C40      1.0000 0.66650  0.75000  0.31320  Biso   1.000  C
  N40      1.0000 0.62340  0.75000  0.21310  Biso   1.000  N
  Cd3      1.0000 0.79172  0.75000  0.74908  Biso   1.000  Cd
  C41      1.0000 0.90820  0.75000  0.96840  Biso   1.000  C
  H61      1.0000 0.79780  0.75000  0.98540  Biso   1.000  H
  N41      1.0000 0.96160  0.75000  0.88150  Biso   1.000  N
  N42      1.0000 0.12840  0.75000  0.88680  Biso   1.000  N
  C42      1.0000 0.16700  0.75000  0.97680  Biso   1.000  C
  H62      1.0000 0.27360  0.75000  0.00050  Biso   1.000  H
  N43      1.0000 0.03140  0.75000  0.03000  Biso   1.000  N
  C43      1.0000 0.00940  0.75000  0.13220  Biso   1.000  C
  C44      1.0000 0.16650  0.75000  0.18680  Biso   1.000  C
  N44      1.0000 0.12340  0.75000  0.28690  Biso   1.000  N
  Cd4      1.0000 0.70828  0.25000  0.24908  Biso   1.000  Cd
  C45      1.0000 0.59180  0.25000  0.46840  Biso   1.000  C
  H63      1.0000 0.70220  0.25000  0.48540  Biso   1.000  H
  N45      1.0000 0.53840  0.25000  0.38150  Biso   1.000  N
  N46      1.0000 0.37160  0.25000  0.38680  Biso   1.000  N
  C46      1.0000 0.33300  0.25000  0.47680  Biso   1.000  C
  H64      1.0000 0.22640  0.25000  0.50050  Biso   1.000  H
  N47      1.0000 0.46860  0.25000  0.53000  Biso   1.000  N
  C47      1.0000 0.49060  0.25000  0.63220  Biso   1.000  C
  C48      1.0000 0.33350  0.25000  0.68680  Biso   1.000  C
  N48      1.0000 0.37660  0.25000  0.78690  Biso   1.000  N
