data_image0
_cell_length_a       30.863
_cell_length_b       15.7425
_cell_length_c       22.192
_cell_angle_alpha    90
_cell_angle_beta     133.173
_cell_angle_gamma    90

_symmetry_space_group_name_H-M    "P 1"
_symmetry_int_tables_number       1

loop_
  _symmetry_equiv_pos_as_xyz
  'x, y, z'

loop_
  _atom_site_label
  _atom_site_occupancy
  _atom_site_fract_x
  _atom_site_fract_y
  _atom_site_fract_z
  _atom_site_thermal_displace_type
  _atom_site_B_iso_or_equiv
  _atom_site_type_symbol
  La1      1.0000 0.89008  0.86284  0.32831  Biso   1.000  La
  La2      1.0000 0.83052  0.12895  0.48594  Biso   1.000  La
  N1       1.0000 0.83790  0.00410  0.24190  Biso   1.000  N
  N2       1.0000 0.13320  0.73080  0.53590  Biso   1.000  N
  O1       1.0000 0.87570  0.88580  0.20330  Biso   1.000  O
  O2       1.0000 0.84090  0.95490  0.09110  Biso   1.000  O
  O3       1.0000 0.86630  0.97390  0.38280  Biso   1.000  O
  O4       1.0000 0.82530  0.09840  0.37240  Biso   1.000  O
  O5       1.0000 0.05960  0.85210  0.43160  Biso   1.000  O
  O6       1.0000 0.98080  0.78080  0.38980  Biso   1.000  O
  O7       1.0000 0.24710  0.76450  0.62670  Biso   1.000  O
  O8       1.0000 0.27610  0.65040  0.70580  Biso   1.000  O
  C1       1.0000 0.84980  0.94780  0.15480  Biso   1.000  C
  C2       1.0000 0.82520  0.01320  0.17190  Biso   1.000  C
  C3       1.0000 0.78650  0.07570  0.11670  Biso   1.000  C
  H1       1.0000 0.77870  0.08280  0.06840  Biso   1.000  H
  C4       1.0000 0.75880  0.12870  0.13260  Biso   1.000  C
  H2       1.0000 0.73070  0.16880  0.09430  Biso   1.000  H
  C5       1.0000 0.77500  0.11880  0.20740  Biso   1.000  C
  H3       1.0000 0.75900  0.15420  0.22150  Biso   1.000  H
  C6       1.0000 0.81480  0.05680  0.26110  Biso   1.000  C
  C7       1.0000 0.83720  0.04250  0.34570  Biso   1.000  C
  C8       1.0000 0.03500  0.78870  0.43100  Biso   1.000  C
  C9       1.0000 0.07620  0.71840  0.48920  Biso   1.000  C
  C10      1.0000 0.05400  0.64500  0.49690  Biso   1.000  C
  H4       1.0000 0.01340  0.63770  0.46450  Biso   1.000  H
  C11      1.0000 0.09440  0.58410  0.55410  Biso   1.000  C
  H5       1.0000 0.08100  0.53350  0.55830  Biso   1.000  H
  C12      1.0000 0.15560  0.59930  0.60590  Biso   1.000  C
  H6       1.0000 0.18380  0.56110  0.64710  Biso   1.000  H
  C13      1.0000 0.17230  0.67400  0.59280  Biso   1.000  C
  C14      1.0000 0.23610  0.69720  0.64510  Biso   1.000  C
  La3      1.0000 0.39008  0.36284  0.32831  Biso   1.000  La
  La4      1.0000 0.33052  0.62895  0.48594  Biso   1.000  La
  N3       1.0000 0.33790  0.50410  0.24190  Biso   1.000  N
  N4       1.0000 0.63320  0.23080  0.53590  Biso   1.000  N
  O9       1.0000 0.37570  0.38580  0.20330  Biso   1.000  O
  O10      1.0000 0.34090  0.45490  0.09110  Biso   1.000  O
  O11      1.0000 0.36630  0.47390  0.38280  Biso   1.000  O
  O12      1.0000 0.32530  0.59840  0.37240  Biso   1.000  O
  O13      1.0000 0.55960  0.35210  0.43160  Biso   1.000  O
  O14      1.0000 0.48080  0.28080  0.38980  Biso   1.000  O
  O15      1.0000 0.74710  0.26450  0.62670  Biso   1.000  O
  O16      1.0000 0.77610  0.15040  0.70580  Biso   1.000  O
  C15      1.0000 0.34980  0.44780  0.15480  Biso   1.000  C
  C16      1.0000 0.32520  0.51320  0.17190  Biso   1.000  C
  C17      1.0000 0.28650  0.57570  0.11670  Biso   1.000  C
  H7       1.0000 0.27870  0.58280  0.06840  Biso   1.000  H
  C18      1.0000 0.25880  0.62870  0.13260  Biso   1.000  C
  H8       1.0000 0.23070  0.66880  0.09430  Biso   1.000  H
  C19      1.0000 0.27500  0.61880  0.20740  Biso   1.000  C
  H9       1.0000 0.25900  0.65420  0.22150  Biso   1.000  H
  C20      1.0000 0.31480  0.55680  0.26110  Biso   1.000  C
  C21      1.0000 0.33720  0.54250  0.34570  Biso   1.000  C
  C22      1.0000 0.53500  0.28870  0.43100  Biso   1.000  C
  C23      1.0000 0.57620  0.21840  0.48920  Biso   1.000  C
  C24      1.0000 0.55400  0.14500  0.49690  Biso   1.000  C
  H10      1.0000 0.51340  0.13770  0.46450  Biso   1.000  H
  C25      1.0000 0.59440  0.08410  0.55410  Biso   1.000  C
  H11      1.0000 0.58100  0.03350  0.55830  Biso   1.000  H
  C26      1.0000 0.65560  0.09930  0.60590  Biso   1.000  C
  H12      1.0000 0.68380  0.06110  0.64710  Biso   1.000  H
  C27      1.0000 0.67230  0.17400  0.59280  Biso   1.000  C
  C28      1.0000 0.73610  0.19720  0.64510  Biso   1.000  C
  La5      1.0000 0.10992  0.86284  0.17169  Biso   1.000  La
  La6      1.0000 0.16948  0.12895  0.01406  Biso   1.000  La
  N5       1.0000 0.16210  0.00410  0.25810  Biso   1.000  N
  N6       1.0000 0.86680  0.73080  0.96410  Biso   1.000  N
  O17      1.0000 0.12430  0.88580  0.29670  Biso   1.000  O
  O18      1.0000 0.15910  0.95490  0.40890  Biso   1.000  O
  O19      1.0000 0.13370  0.97390  0.11720  Biso   1.000  O
  O20      1.0000 0.17470  0.09840  0.12760  Biso   1.000  O
  O21      1.0000 0.94040  0.85210  0.06840  Biso   1.000  O
  O22      1.0000 0.01920  0.78080  0.11020  Biso   1.000  O
  O23      1.0000 0.75290  0.76450  0.87330  Biso   1.000  O
  O24      1.0000 0.72390  0.65040  0.79420  Biso   1.000  O
  C29      1.0000 0.15020  0.94780  0.34520  Biso   1.000  C
  C30      1.0000 0.17480  0.01320  0.32810  Biso   1.000  C
  C31      1.0000 0.21350  0.07570  0.38330  Biso   1.000  C
  H13      1.0000 0.22130  0.08280  0.43160  Biso   1.000  H
  C32      1.0000 0.24120  0.12870  0.36740  Biso   1.000  C
  H14      1.0000 0.26930  0.16880  0.40570  Biso   1.000  H
  C33      1.0000 0.22500  0.11880  0.29260  Biso   1.000  C
  H15      1.0000 0.24100  0.15420  0.27850  Biso   1.000  H
  C34      1.0000 0.18520  0.05680  0.23890  Biso   1.000  C
  C35      1.0000 0.16280  0.04250  0.15430  Biso   1.000  C
  C36      1.0000 0.96500  0.78870  0.06900  Biso   1.000  C
  C37      1.0000 0.92380  0.71840  0.01080  Biso   1.000  C
  C38      1.0000 0.94600  0.64500  0.00310  Biso   1.000  C
  H16      1.0000 0.98660  0.63770  0.03550  Biso   1.000  H
  C39      1.0000 0.90560  0.58410  0.94590  Biso   1.000  C
  H17      1.0000 0.91900  0.53350  0.94170  Biso   1.000  H
  C40      1.0000 0.84440  0.59930  0.89410  Biso   1.000  C
  H18      1.0000 0.81620  0.56110  0.85290  Biso   1.000  H
  C41      1.0000 0.82770  0.67400  0.90720  Biso   1.000  C
  C42      1.0000 0.76390  0.69720  0.85490  Biso   1.000  C
  La7      1.0000 0.60992  0.36284  0.17169  Biso   1.000  La
  La8      1.0000 0.66948  0.62895  0.01406  Biso   1.000  La
  N7       1.0000 0.66210  0.50410  0.25810  Biso   1.000  N
  N8       1.0000 0.36680  0.23080  0.96410  Biso   1.000  N
  O25      1.0000 0.62430  0.38580  0.29670  Biso   1.000  O
  O26      1.0000 0.65910  0.45490  0.40890  Biso   1.000  O
  O27      1.0000 0.63370  0.47390  0.11720  Biso   1.000  O
  O28      1.0000 0.67470  0.59840  0.12760  Biso   1.000  O
  O29      1.0000 0.44040  0.35210  0.06840  Biso   1.000  O
  O30      1.0000 0.51920  0.28080  0.11020  Biso   1.000  O
  O31      1.0000 0.25290  0.26450  0.87330  Biso   1.000  O
  O32      1.0000 0.22390  0.15040  0.79420  Biso   1.000  O
  C43      1.0000 0.65020  0.44780  0.34520  Biso   1.000  C
  C44      1.0000 0.67480  0.51320  0.32810  Biso   1.000  C
  C45      1.0000 0.71350  0.57570  0.38330  Biso   1.000  C
  H19      1.0000 0.72130  0.58280  0.43160  Biso   1.000  H
  C46      1.0000 0.74120  0.62870  0.36740  Biso   1.000  C
  H20      1.0000 0.76930  0.66880  0.40570  Biso   1.000  H
  C47      1.0000 0.72500  0.61880  0.29260  Biso   1.000  C
  H21      1.0000 0.74100  0.65420  0.27850  Biso   1.000  H
  C48      1.0000 0.68520  0.55680  0.23890  Biso   1.000  C
  C49      1.0000 0.66280  0.54250  0.15430  Biso   1.000  C
  C50      1.0000 0.46500  0.28870  0.06900  Biso   1.000  C
  C51      1.0000 0.42380  0.21840  0.01080  Biso   1.000  C
  C52      1.0000 0.44600  0.14500  0.00310  Biso   1.000  C
  H22      1.0000 0.48660  0.13770  0.03550  Biso   1.000  H
  C53      1.0000 0.40560  0.08410  0.94590  Biso   1.000  C
  H23      1.0000 0.41900  0.03350  0.94170  Biso   1.000  H
  C54      1.0000 0.34440  0.09930  0.89410  Biso   1.000  C
  H24      1.0000 0.31620  0.06110  0.85290  Biso   1.000  H
  C55      1.0000 0.32770  0.17400  0.90720  Biso   1.000  C
  C56      1.0000 0.26390  0.19720  0.85490  Biso   1.000  C
  La9      1.0000 0.10992  0.13716  0.67169  Biso   1.000  La
  La10     1.0000 0.16948  0.87105  0.51406  Biso   1.000  La
  N9       1.0000 0.16210  0.99590  0.75810  Biso   1.000  N
  N10      1.0000 0.86680  0.26920  0.46410  Biso   1.000  N
  O33      1.0000 0.12430  0.11420  0.79670  Biso   1.000  O
  O34      1.0000 0.15910  0.04510  0.90890  Biso   1.000  O
  O35      1.0000 0.13370  0.02610  0.61720  Biso   1.000  O
  O36      1.0000 0.17470  0.90160  0.62760  Biso   1.000  O
  O37      1.0000 0.94040  0.14790  0.56840  Biso   1.000  O
  O38      1.0000 0.01920  0.21920  0.61020  Biso   1.000  O
  O39      1.0000 0.75290  0.23550  0.37330  Biso   1.000  O
  O40      1.0000 0.72390  0.34960  0.29420  Biso   1.000  O
  C57      1.0000 0.15020  0.05220  0.84520  Biso   1.000  C
  C58      1.0000 0.17480  0.98680  0.82810  Biso   1.000  C
  C59      1.0000 0.21350  0.92430  0.88330  Biso   1.000  C
  H25      1.0000 0.22130  0.91720  0.93160  Biso   1.000  H
  C60      1.0000 0.24120  0.87130  0.86740  Biso   1.000  C
  H26      1.0000 0.26930  0.83120  0.90570  Biso   1.000  H
  C61      1.0000 0.22500  0.88120  0.79260  Biso   1.000  C
  H27      1.0000 0.24100  0.84580  0.77850  Biso   1.000  H
  C62      1.0000 0.18520  0.94320  0.73890  Biso   1.000  C
  C63      1.0000 0.16280  0.95750  0.65430  Biso   1.000  C
  C64      1.0000 0.96500  0.21130  0.56900  Biso   1.000  C
  C65      1.0000 0.92380  0.28160  0.51080  Biso   1.000  C
  C66      1.0000 0.94600  0.35500  0.50310  Biso   1.000  C
  H28      1.0000 0.98660  0.36230  0.53550  Biso   1.000  H
  C67      1.0000 0.90560  0.41590  0.44590  Biso   1.000  C
  H29      1.0000 0.91900  0.46650  0.44170  Biso   1.000  H
  C68      1.0000 0.84440  0.40070  0.39410  Biso   1.000  C
  H30      1.0000 0.81620  0.43890  0.35290  Biso   1.000  H
  C69      1.0000 0.82770  0.32600  0.40720  Biso   1.000  C
  C70      1.0000 0.76390  0.30280  0.35490  Biso   1.000  C
  La11     1.0000 0.60992  0.63716  0.67169  Biso   1.000  La
  La12     1.0000 0.66948  0.37105  0.51406  Biso   1.000  La
  N11      1.0000 0.66210  0.49590  0.75810  Biso   1.000  N
  N12      1.0000 0.36680  0.76920  0.46410  Biso   1.000  N
  O41      1.0000 0.62430  0.61420  0.79670  Biso   1.000  O
  O42      1.0000 0.65910  0.54510  0.90890  Biso   1.000  O
  O43      1.0000 0.63370  0.52610  0.61720  Biso   1.000  O
  O44      1.0000 0.67470  0.40160  0.62760  Biso   1.000  O
  O45      1.0000 0.44040  0.64790  0.56840  Biso   1.000  O
  O46      1.0000 0.51920  0.71920  0.61020  Biso   1.000  O
  O47      1.0000 0.25290  0.73550  0.37330  Biso   1.000  O
  O48      1.0000 0.22390  0.84960  0.29420  Biso   1.000  O
  C71      1.0000 0.65020  0.55220  0.84520  Biso   1.000  C
  C72      1.0000 0.67480  0.48680  0.82810  Biso   1.000  C
  C73      1.0000 0.71350  0.42430  0.88330  Biso   1.000  C
  H31      1.0000 0.72130  0.41720  0.93160  Biso   1.000  H
  C74      1.0000 0.74120  0.37130  0.86740  Biso   1.000  C
  H32      1.0000 0.76930  0.33120  0.90570  Biso   1.000  H
  C75      1.0000 0.72500  0.38120  0.79260  Biso   1.000  C
  H33      1.0000 0.74100  0.34580  0.77850  Biso   1.000  H
  C76      1.0000 0.68520  0.44320  0.73890  Biso   1.000  C
  C77      1.0000 0.66280  0.45750  0.65430  Biso   1.000  C
  C78      1.0000 0.46500  0.71130  0.56900  Biso   1.000  C
  C79      1.0000 0.42380  0.78160  0.51080  Biso   1.000  C
  C80      1.0000 0.44600  0.85500  0.50310  Biso   1.000  C
  H34      1.0000 0.48660  0.86230  0.53550  Biso   1.000  H
  C81      1.0000 0.40560  0.91590  0.44590  Biso   1.000  C
  H35      1.0000 0.41900  0.96650  0.44170  Biso   1.000  H
  C82      1.0000 0.34440  0.90070  0.39410  Biso   1.000  C
  H36      1.0000 0.31620  0.93890  0.35290  Biso   1.000  H
  C83      1.0000 0.32770  0.82600  0.40720  Biso   1.000  C
  C84      1.0000 0.26390  0.80280  0.35490  Biso   1.000  C
  La13     1.0000 0.89008  0.13716  0.82831  Biso   1.000  La
  La14     1.0000 0.83052  0.87105  0.98594  Biso   1.000  La
  N13      1.0000 0.83790  0.99590  0.74190  Biso   1.000  N
  N14      1.0000 0.13320  0.26920  0.03590  Biso   1.000  N
  O49      1.0000 0.87570  0.11420  0.70330  Biso   1.000  O
  O50      1.0000 0.84090  0.04510  0.59110  Biso   1.000  O
  O51      1.0000 0.86630  0.02610  0.88280  Biso   1.000  O
  O52      1.0000 0.82530  0.90160  0.87240  Biso   1.000  O
  O53      1.0000 0.05960  0.14790  0.93160  Biso   1.000  O
  O54      1.0000 0.98080  0.21920  0.88980  Biso   1.000  O
  O55      1.0000 0.24710  0.23550  0.12670  Biso   1.000  O
  O56      1.0000 0.27610  0.34960  0.20580  Biso   1.000  O
  C85      1.0000 0.84980  0.05220  0.65480  Biso   1.000  C
  C86      1.0000 0.82520  0.98680  0.67190  Biso   1.000  C
  C87      1.0000 0.78650  0.92430  0.61670  Biso   1.000  C
  H37      1.0000 0.77870  0.91720  0.56840  Biso   1.000  H
  C88      1.0000 0.75880  0.87130  0.63260  Biso   1.000  C
  H38      1.0000 0.73070  0.83120  0.59430  Biso   1.000  H
  C89      1.0000 0.77500  0.88120  0.70740  Biso   1.000  C
  H39      1.0000 0.75900  0.84580  0.72150  Biso   1.000  H
  C90      1.0000 0.81480  0.94320  0.76110  Biso   1.000  C
  C91      1.0000 0.83720  0.95750  0.84570  Biso   1.000  C
  C92      1.0000 0.03500  0.21130  0.93100  Biso   1.000  C
  C93      1.0000 0.07620  0.28160  0.98920  Biso   1.000  C
  C94      1.0000 0.05400  0.35500  0.99690  Biso   1.000  C
  H40      1.0000 0.01340  0.36230  0.96450  Biso   1.000  H
  C95      1.0000 0.09440  0.41590  0.05410  Biso   1.000  C
  H41      1.0000 0.08100  0.46650  0.05830  Biso   1.000  H
  C96      1.0000 0.15560  0.40070  0.10590  Biso   1.000  C
  H42      1.0000 0.18380  0.43890  0.14710  Biso   1.000  H
  C97      1.0000 0.17230  0.32600  0.09280  Biso   1.000  C
  C98      1.0000 0.23610  0.30280  0.14510  Biso   1.000  C
  La15     1.0000 0.39008  0.63716  0.82831  Biso   1.000  La
  La16     1.0000 0.33052  0.37105  0.98594  Biso   1.000  La
  N15      1.0000 0.33790  0.49590  0.74190  Biso   1.000  N
  N16      1.0000 0.63320  0.76920  0.03590  Biso   1.000  N
  O57      1.0000 0.37570  0.61420  0.70330  Biso   1.000  O
  O58      1.0000 0.34090  0.54510  0.59110  Biso   1.000  O
  O59      1.0000 0.36630  0.52610  0.88280  Biso   1.000  O
  O60      1.0000 0.32530  0.40160  0.87240  Biso   1.000  O
  O61      1.0000 0.55960  0.64790  0.93160  Biso   1.000  O
  O62      1.0000 0.48080  0.71920  0.88980  Biso   1.000  O
  O63      1.0000 0.74710  0.73550  0.12670  Biso   1.000  O
  O64      1.0000 0.77610  0.84960  0.20580  Biso   1.000  O
  C99      1.0000 0.34980  0.55220  0.65480  Biso   1.000  C
  C100     1.0000 0.32520  0.48680  0.67190  Biso   1.000  C
  C101     1.0000 0.28650  0.42430  0.61670  Biso   1.000  C
  H43      1.0000 0.27870  0.41720  0.56840  Biso   1.000  H
  C102     1.0000 0.25880  0.37130  0.63260  Biso   1.000  C
  H44      1.0000 0.23070  0.33120  0.59430  Biso   1.000  H
  C103     1.0000 0.27500  0.38120  0.70740  Biso   1.000  C
  H45      1.0000 0.25900  0.34580  0.72150  Biso   1.000  H
  C104     1.0000 0.31480  0.44320  0.76110  Biso   1.000  C
  C105     1.0000 0.33720  0.45750  0.84570  Biso   1.000  C
  C106     1.0000 0.53500  0.71130  0.93100  Biso   1.000  C
  C107     1.0000 0.57620  0.78160  0.98920  Biso   1.000  C
  C108     1.0000 0.55400  0.85500  0.99690  Biso   1.000  C
  H46      1.0000 0.51340  0.86230  0.96450  Biso   1.000  H
  C109     1.0000 0.59440  0.91590  0.05410  Biso   1.000  C
  H47      1.0000 0.58100  0.96650  0.05830  Biso   1.000  H
  C110     1.0000 0.65560  0.90070  0.10590  Biso   1.000  C
  H48      1.0000 0.68380  0.93890  0.14710  Biso   1.000  H
  C111     1.0000 0.67230  0.82600  0.09280  Biso   1.000  C
  C112     1.0000 0.73610  0.80280  0.14510  Biso   1.000  C
