data_image0
_cell_length_a       30.846
_cell_length_b       15.773
_cell_length_c       22.189
_cell_angle_alpha    90
_cell_angle_beta     133.134
_cell_angle_gamma    90

_symmetry_space_group_name_H-M    "P 1"
_symmetry_int_tables_number       1

loop_
  _symmetry_equiv_pos_as_xyz
  'x, y, z'

loop_
  _atom_site_label
  _atom_site_occupancy
  _atom_site_fract_x
  _atom_site_fract_y
  _atom_site_fract_z
  _atom_site_thermal_displace_type
  _atom_site_B_iso_or_equiv
  _atom_site_type_symbol
  La1      1.0000 0.62790  0.36364  0.89285  Biso   1.000  La
  La2      1.0000 0.68660  0.62839  0.73405  Biso   1.000  La
  La3      1.0000 0.84739  0.12942  0.20544  Biso   1.000  La
  La4      1.0000 0.90824  0.13748  0.54918  Biso   1.000  La
  N1       1.0000 0.68010  0.50500  0.97690  Biso   1.000  N
  N2       1.0000 0.65040  0.76860  0.75610  Biso   1.000  N
  N3       1.0000 0.88310  0.26910  0.18270  Biso   1.000  N
  N4       1.0000 0.85780  0.99700  0.46320  Biso   1.000  N
  O1       1.0000 0.65050  0.47600  0.83780  Biso   1.000  O
  O2       1.0000 0.68930  0.59620  0.84460  Biso   1.000  O
  O3       1.0000 0.64400  0.38750  0.02050  Biso   1.000  O
  O4       1.0000 0.67610  0.45620  0.12780  Biso   1.000  O
  O5       1.0000 0.76440  0.73430  0.84770  Biso   1.000  O
  O6       1.0000 0.79150  0.84890  0.92370  Biso   1.000  O
  O7       1.0000 0.57720  0.64850  0.65140  Biso   1.000  O
  O8       1.0000 0.49770  0.71850  0.61050  Biso   1.000  O
  O9       1.0000 0.77020  0.23460  0.09270  Biso   1.000  O
  O10      1.0000 0.74010  0.34960  0.01300  Biso   1.000  O
  O11      1.0000 0.95740  0.14530  0.28820  Biso   1.000  O
  O12      1.0000 0.03550  0.21940  0.33170  Biso   1.000  O
  O13      1.0000 0.89670  0.11500  0.42770  Biso   1.000  O
  O14      1.0000 0.85830  0.04590  0.30920  Biso   1.000  O
  O15      1.0000 0.88380  0.02570  0.60250  Biso   1.000  O
  O16      1.0000 0.84080  0.90120  0.59000  Biso   1.000  O
  O17      1.0000 0.98520  0.12910  0.70940  Biso   1.000  O
  H1       1.0000 0.98120  0.17840  0.72050  Biso   1.000  H
  H2       1.0000 0.96140  0.09670  0.70570  Biso   1.000  H
  C1       1.0000 0.68060  0.54300  0.87490  Biso   1.000  C
  C2       1.0000 0.70240  0.55510  0.95990  Biso   1.000  C
  C3       1.0000 0.74210  0.62120  0.01290  Biso   1.000  C
  H3       1.0000 0.75470  0.66000  0.99600  Biso   1.000  H
  C4       1.0000 0.76140  0.62660  0.08970  Biso   1.000  C
  H4       1.0000 0.79310  0.66120  0.13080  Biso   1.000  H
  C5       1.0000 0.73150  0.57840  0.10280  Biso   1.000  C
  H5       1.0000 0.73660  0.58900  0.14850  Biso   1.000  H
  C6       1.0000 0.69380  0.51400  0.04860  Biso   1.000  C
  C7       1.0000 0.66750  0.44740  0.06620  Biso   1.000  C
  C8       1.0000 0.75390  0.80050  0.86600  Biso   1.000  C
  C9       1.0000 0.68900  0.82740  0.81040  Biso   1.000  C
  C10      1.0000 0.67190  0.89960  0.82370  Biso   1.000  C
  H6       1.0000 0.70030  0.93830  0.86360  Biso   1.000  H
  C11      1.0000 0.61190  0.91490  0.77720  Biso   1.000  C
  H7       1.0000 0.59930  0.96320  0.78550  Biso   1.000  H
  C12      1.0000 0.57230  0.85620  0.71900  Biso   1.000  C
  H8       1.0000 0.53170  0.86440  0.68610  Biso   1.000  H
  C13      1.0000 0.59340  0.78200  0.70880  Biso   1.000  C
  C14      1.0000 0.55220  0.71210  0.64900  Biso   1.000  C
  C15      1.0000 0.77950  0.30400  0.07260  Biso   1.000  C
  C16      1.0000 0.84340  0.32500  0.12200  Biso   1.000  C
  C17      1.0000 0.86220  0.40070  0.11460  Biso   1.000  C
  H9       1.0000 0.83540  0.44110  0.07520  Biso   1.000  H
  C18      1.0000 0.92250  0.41310  0.16810  Biso   1.000  C
  H10      1.0000 0.93590  0.46390  0.16440  Biso   1.000  H
  C19      1.0000 0.96470  0.35490  0.22740  Biso   1.000  C
  H11      1.0000 0.00530  0.36460  0.26220  Biso   1.000  H
  C20      1.0000 0.94200  0.28140  0.23090  Biso   1.000  C
  C21      1.0000 0.98140  0.21150  0.28730  Biso   1.000  C
  C22      1.0000 0.86790  0.05230  0.37430  Biso   1.000  C
  C23      1.0000 0.84220  0.98810  0.39020  Biso   1.000  C
  C24      1.0000 0.80350  0.92540  0.33540  Biso   1.000  C
  H12      1.0000 0.79240  0.92030  0.28460  Biso   1.000  H
  C25      1.0000 0.78140  0.86930  0.35820  Biso   1.000  C
  H13      1.0000 0.75920  0.82230  0.32570  Biso   1.000  H
  C26      1.0000 0.79310  0.88500  0.43050  Biso   1.000  C
  H14      1.0000 0.77380  0.85430  0.44200  Biso   1.000  H
  C27      1.0000 0.83240  0.94470  0.48230  Biso   1.000  C
  C28      1.0000 0.85490  0.95820  0.56530  Biso   1.000  C
  La5      1.0000 0.12790  0.86364  0.89285  Biso   1.000  La
  La6      1.0000 0.18660  0.12839  0.73405  Biso   1.000  La
  La7      1.0000 0.34739  0.62942  0.20544  Biso   1.000  La
  La8      1.0000 0.40824  0.63748  0.54918  Biso   1.000  La
  N5       1.0000 0.18010  0.00500  0.97690  Biso   1.000  N
  N6       1.0000 0.15040  0.26860  0.75610  Biso   1.000  N
  N7       1.0000 0.38310  0.76910  0.18270  Biso   1.000  N
  N8       1.0000 0.35780  0.49700  0.46320  Biso   1.000  N
  O18      1.0000 0.15050  0.97600  0.83780  Biso   1.000  O
  O19      1.0000 0.18930  0.09620  0.84460  Biso   1.000  O
  O20      1.0000 0.14400  0.88750  0.02050  Biso   1.000  O
  O21      1.0000 0.17610  0.95620  0.12780  Biso   1.000  O
  O22      1.0000 0.26440  0.23430  0.84770  Biso   1.000  O
  O23      1.0000 0.29150  0.34890  0.92370  Biso   1.000  O
  O24      1.0000 0.07720  0.14850  0.65140  Biso   1.000  O
  O25      1.0000 0.99770  0.21850  0.61050  Biso   1.000  O
  O26      1.0000 0.27020  0.73460  0.09270  Biso   1.000  O
  O27      1.0000 0.24010  0.84960  0.01300  Biso   1.000  O
  O28      1.0000 0.45740  0.64530  0.28820  Biso   1.000  O
  O29      1.0000 0.53550  0.71940  0.33170  Biso   1.000  O
  O30      1.0000 0.39670  0.61500  0.42770  Biso   1.000  O
  O31      1.0000 0.35830  0.54590  0.30920  Biso   1.000  O
  O32      1.0000 0.38380  0.52570  0.60250  Biso   1.000  O
  O33      1.0000 0.34080  0.40120  0.59000  Biso   1.000  O
  O34      1.0000 0.48520  0.62910  0.70940  Biso   1.000  O
  H15      1.0000 0.48120  0.67840  0.72050  Biso   1.000  H
  H16      1.0000 0.46140  0.59670  0.70570  Biso   1.000  H
  C29      1.0000 0.18060  0.04300  0.87490  Biso   1.000  C
  C30      1.0000 0.20240  0.05510  0.95990  Biso   1.000  C
  C31      1.0000 0.24210  0.12120  0.01290  Biso   1.000  C
  H17      1.0000 0.25470  0.16000  0.99600  Biso   1.000  H
  C32      1.0000 0.26140  0.12660  0.08970  Biso   1.000  C
  H18      1.0000 0.29310  0.16120  0.13080  Biso   1.000  H
  C33      1.0000 0.23150  0.07840  0.10280  Biso   1.000  C
  H19      1.0000 0.23660  0.08900  0.14850  Biso   1.000  H
  C34      1.0000 0.19380  0.01400  0.04860  Biso   1.000  C
  C35      1.0000 0.16750  0.94740  0.06620  Biso   1.000  C
  C36      1.0000 0.25390  0.30050  0.86600  Biso   1.000  C
  C37      1.0000 0.18900  0.32740  0.81040  Biso   1.000  C
  C38      1.0000 0.17190  0.39960  0.82370  Biso   1.000  C
  H20      1.0000 0.20030  0.43830  0.86360  Biso   1.000  H
  C39      1.0000 0.11190  0.41490  0.77720  Biso   1.000  C
  H21      1.0000 0.09930  0.46320  0.78550  Biso   1.000  H
  C40      1.0000 0.07230  0.35620  0.71900  Biso   1.000  C
  H22      1.0000 0.03170  0.36440  0.68610  Biso   1.000  H
  C41      1.0000 0.09340  0.28200  0.70880  Biso   1.000  C
  C42      1.0000 0.05220  0.21210  0.64900  Biso   1.000  C
  C43      1.0000 0.27950  0.80400  0.07260  Biso   1.000  C
  C44      1.0000 0.34340  0.82500  0.12200  Biso   1.000  C
  C45      1.0000 0.36220  0.90070  0.11460  Biso   1.000  C
  H23      1.0000 0.33540  0.94110  0.07520  Biso   1.000  H
  C46      1.0000 0.42250  0.91310  0.16810  Biso   1.000  C
  H24      1.0000 0.43590  0.96390  0.16440  Biso   1.000  H
  C47      1.0000 0.46470  0.85490  0.22740  Biso   1.000  C
  H25      1.0000 0.50530  0.86460  0.26220  Biso   1.000  H
  C48      1.0000 0.44200  0.78140  0.23090  Biso   1.000  C
  C49      1.0000 0.48140  0.71150  0.28730  Biso   1.000  C
  C50      1.0000 0.36790  0.55230  0.37430  Biso   1.000  C
  C51      1.0000 0.34220  0.48810  0.39020  Biso   1.000  C
  C52      1.0000 0.30350  0.42540  0.33540  Biso   1.000  C
  H26      1.0000 0.29240  0.42030  0.28460  Biso   1.000  H
  C53      1.0000 0.28140  0.36930  0.35820  Biso   1.000  C
  H27      1.0000 0.25920  0.32230  0.32570  Biso   1.000  H
  C54      1.0000 0.29310  0.38500  0.43050  Biso   1.000  C
  H28      1.0000 0.27380  0.35430  0.44200  Biso   1.000  H
  C55      1.0000 0.33240  0.44470  0.48230  Biso   1.000  C
  C56      1.0000 0.35490  0.45820  0.56530  Biso   1.000  C
  La9      1.0000 0.62790  0.63636  0.39285  Biso   1.000  La
  La10     1.0000 0.68660  0.37161  0.23405  Biso   1.000  La
  La11     1.0000 0.84739  0.87058  0.70544  Biso   1.000  La
  La12     1.0000 0.90824  0.86252  0.04918  Biso   1.000  La
  N9       1.0000 0.68010  0.49500  0.47690  Biso   1.000  N
  N10      1.0000 0.65040  0.23140  0.25610  Biso   1.000  N
  N11      1.0000 0.88310  0.73090  0.68270  Biso   1.000  N
  N12      1.0000 0.85780  0.00300  0.96320  Biso   1.000  N
  O35      1.0000 0.65050  0.52400  0.33780  Biso   1.000  O
  O36      1.0000 0.68930  0.40380  0.34460  Biso   1.000  O
  O37      1.0000 0.64400  0.61250  0.52050  Biso   1.000  O
  O38      1.0000 0.67610  0.54380  0.62780  Biso   1.000  O
  O39      1.0000 0.76440  0.26570  0.34770  Biso   1.000  O
  O40      1.0000 0.79150  0.15110  0.42370  Biso   1.000  O
  O41      1.0000 0.57720  0.35150  0.15140  Biso   1.000  O
  O42      1.0000 0.49770  0.28150  0.11050  Biso   1.000  O
  O43      1.0000 0.77020  0.76540  0.59270  Biso   1.000  O
  O44      1.0000 0.74010  0.65040  0.51300  Biso   1.000  O
  O45      1.0000 0.95740  0.85470  0.78820  Biso   1.000  O
  O46      1.0000 0.03550  0.78060  0.83170  Biso   1.000  O
  O47      1.0000 0.89670  0.88500  0.92770  Biso   1.000  O
  O48      1.0000 0.85830  0.95410  0.80920  Biso   1.000  O
  O49      1.0000 0.88380  0.97430  0.10250  Biso   1.000  O
  O50      1.0000 0.84080  0.09880  0.09000  Biso   1.000  O
  O51      1.0000 0.98520  0.87090  0.20940  Biso   1.000  O
  H29      1.0000 0.98120  0.82160  0.22050  Biso   1.000  H
  H30      1.0000 0.96140  0.90330  0.20570  Biso   1.000  H
  C57      1.0000 0.68060  0.45700  0.37490  Biso   1.000  C
  C58      1.0000 0.70240  0.44490  0.45990  Biso   1.000  C
  C59      1.0000 0.74210  0.37880  0.51290  Biso   1.000  C
  H31      1.0000 0.75470  0.34000  0.49600  Biso   1.000  H
  C60      1.0000 0.76140  0.37340  0.58970  Biso   1.000  C
  H32      1.0000 0.79310  0.33880  0.63080  Biso   1.000  H
  C61      1.0000 0.73150  0.42160  0.60280  Biso   1.000  C
  H33      1.0000 0.73660  0.41100  0.64850  Biso   1.000  H
  C62      1.0000 0.69380  0.48600  0.54860  Biso   1.000  C
  C63      1.0000 0.66750  0.55260  0.56620  Biso   1.000  C
  C64      1.0000 0.75390  0.19950  0.36600  Biso   1.000  C
  C65      1.0000 0.68900  0.17260  0.31040  Biso   1.000  C
  C66      1.0000 0.67190  0.10040  0.32370  Biso   1.000  C
  H34      1.0000 0.70030  0.06170  0.36360  Biso   1.000  H
  C67      1.0000 0.61190  0.08510  0.27720  Biso   1.000  C
  H35      1.0000 0.59930  0.03680  0.28550  Biso   1.000  H
  C68      1.0000 0.57230  0.14380  0.21900  Biso   1.000  C
  H36      1.0000 0.53170  0.13560  0.18610  Biso   1.000  H
  C69      1.0000 0.59340  0.21800  0.20880  Biso   1.000  C
  C70      1.0000 0.55220  0.28790  0.14900  Biso   1.000  C
  C71      1.0000 0.77950  0.69600  0.57260  Biso   1.000  C
  C72      1.0000 0.84340  0.67500  0.62200  Biso   1.000  C
  C73      1.0000 0.86220  0.59930  0.61460  Biso   1.000  C
  H37      1.0000 0.83540  0.55890  0.57520  Biso   1.000  H
  C74      1.0000 0.92250  0.58690  0.66810  Biso   1.000  C
  H38      1.0000 0.93590  0.53610  0.66440  Biso   1.000  H
  C75      1.0000 0.96470  0.64510  0.72740  Biso   1.000  C
  H39      1.0000 0.00530  0.63540  0.76220  Biso   1.000  H
  C76      1.0000 0.94200  0.71860  0.73090  Biso   1.000  C
  C77      1.0000 0.98140  0.78850  0.78730  Biso   1.000  C
  C78      1.0000 0.86790  0.94770  0.87430  Biso   1.000  C
  C79      1.0000 0.84220  0.01190  0.89020  Biso   1.000  C
  C80      1.0000 0.80350  0.07460  0.83540  Biso   1.000  C
  H40      1.0000 0.79240  0.07970  0.78460  Biso   1.000  H
  C81      1.0000 0.78140  0.13070  0.85820  Biso   1.000  C
  H41      1.0000 0.75920  0.17770  0.82570  Biso   1.000  H
  C82      1.0000 0.79310  0.11500  0.93050  Biso   1.000  C
  H42      1.0000 0.77380  0.14570  0.94200  Biso   1.000  H
  C83      1.0000 0.83240  0.05530  0.98230  Biso   1.000  C
  C84      1.0000 0.85490  0.04180  0.06530  Biso   1.000  C
  La13     1.0000 0.12790  0.13636  0.39285  Biso   1.000  La
  La14     1.0000 0.18660  0.87161  0.23405  Biso   1.000  La
  La15     1.0000 0.34739  0.37058  0.70544  Biso   1.000  La
  La16     1.0000 0.40824  0.36252  0.04918  Biso   1.000  La
  N13      1.0000 0.18010  0.99500  0.47690  Biso   1.000  N
  N14      1.0000 0.15040  0.73140  0.25610  Biso   1.000  N
  N15      1.0000 0.38310  0.23090  0.68270  Biso   1.000  N
  N16      1.0000 0.35780  0.50300  0.96320  Biso   1.000  N
  O52      1.0000 0.15050  0.02400  0.33780  Biso   1.000  O
  O53      1.0000 0.18930  0.90380  0.34460  Biso   1.000  O
  O54      1.0000 0.14400  0.11250  0.52050  Biso   1.000  O
  O55      1.0000 0.17610  0.04380  0.62780  Biso   1.000  O
  O56      1.0000 0.26440  0.76570  0.34770  Biso   1.000  O
  O57      1.0000 0.29150  0.65110  0.42370  Biso   1.000  O
  O58      1.0000 0.07720  0.85150  0.15140  Biso   1.000  O
  O59      1.0000 0.99770  0.78150  0.11050  Biso   1.000  O
  O60      1.0000 0.27020  0.26540  0.59270  Biso   1.000  O
  O61      1.0000 0.24010  0.15040  0.51300  Biso   1.000  O
  O62      1.0000 0.45740  0.35470  0.78820  Biso   1.000  O
  O63      1.0000 0.53550  0.28060  0.83170  Biso   1.000  O
  O64      1.0000 0.39670  0.38500  0.92770  Biso   1.000  O
  O65      1.0000 0.35830  0.45410  0.80920  Biso   1.000  O
  O66      1.0000 0.38380  0.47430  0.10250  Biso   1.000  O
  O67      1.0000 0.34080  0.59880  0.09000  Biso   1.000  O
  O68      1.0000 0.48520  0.37090  0.20940  Biso   1.000  O
  H43      1.0000 0.48120  0.32160  0.22050  Biso   1.000  H
  H44      1.0000 0.46140  0.40330  0.20570  Biso   1.000  H
  C85      1.0000 0.18060  0.95700  0.37490  Biso   1.000  C
  C86      1.0000 0.20240  0.94490  0.45990  Biso   1.000  C
  C87      1.0000 0.24210  0.87880  0.51290  Biso   1.000  C
  H45      1.0000 0.25470  0.84000  0.49600  Biso   1.000  H
  C88      1.0000 0.26140  0.87340  0.58970  Biso   1.000  C
  H46      1.0000 0.29310  0.83880  0.63080  Biso   1.000  H
  C89      1.0000 0.23150  0.92160  0.60280  Biso   1.000  C
  H47      1.0000 0.23660  0.91100  0.64850  Biso   1.000  H
  C90      1.0000 0.19380  0.98600  0.54860  Biso   1.000  C
  C91      1.0000 0.16750  0.05260  0.56620  Biso   1.000  C
  C92      1.0000 0.25390  0.69950  0.36600  Biso   1.000  C
  C93      1.0000 0.18900  0.67260  0.31040  Biso   1.000  C
  C94      1.0000 0.17190  0.60040  0.32370  Biso   1.000  C
  H48      1.0000 0.20030  0.56170  0.36360  Biso   1.000  H
  C95      1.0000 0.11190  0.58510  0.27720  Biso   1.000  C
  H49      1.0000 0.09930  0.53680  0.28550  Biso   1.000  H
  C96      1.0000 0.07230  0.64380  0.21900  Biso   1.000  C
  H50      1.0000 0.03170  0.63560  0.18610  Biso   1.000  H
  C97      1.0000 0.09340  0.71800  0.20880  Biso   1.000  C
  C98      1.0000 0.05220  0.78790  0.14900  Biso   1.000  C
  C99      1.0000 0.27950  0.19600  0.57260  Biso   1.000  C
  C100     1.0000 0.34340  0.17500  0.62200  Biso   1.000  C
  C101     1.0000 0.36220  0.09930  0.61460  Biso   1.000  C
  H51      1.0000 0.33540  0.05890  0.57520  Biso   1.000  H
  C102     1.0000 0.42250  0.08690  0.66810  Biso   1.000  C
  H52      1.0000 0.43590  0.03610  0.66440  Biso   1.000  H
  C103     1.0000 0.46470  0.14510  0.72740  Biso   1.000  C
  H53      1.0000 0.50530  0.13540  0.76220  Biso   1.000  H
  C104     1.0000 0.44200  0.21860  0.73090  Biso   1.000  C
  C105     1.0000 0.48140  0.28850  0.78730  Biso   1.000  C
  C106     1.0000 0.36790  0.44770  0.87430  Biso   1.000  C
  C107     1.0000 0.34220  0.51190  0.89020  Biso   1.000  C
  C108     1.0000 0.30350  0.57460  0.83540  Biso   1.000  C
  H54      1.0000 0.29240  0.57970  0.78460  Biso   1.000  H
  C109     1.0000 0.28140  0.63070  0.85820  Biso   1.000  C
  H55      1.0000 0.25920  0.67770  0.82570  Biso   1.000  H
  C110     1.0000 0.29310  0.61500  0.93050  Biso   1.000  C
  H56      1.0000 0.27380  0.64570  0.94200  Biso   1.000  H
  C111     1.0000 0.33240  0.55530  0.98230  Biso   1.000  C
  C112     1.0000 0.35490  0.54180  0.06530  Biso   1.000  C
