data_image0
_cell_length_a       30.573
_cell_length_b       15.733
_cell_length_c       22.013
_cell_angle_alpha    90
_cell_angle_beta     132.965
_cell_angle_gamma    90

_symmetry_space_group_name_H-M    "P 1"
_symmetry_int_tables_number       1

loop_
  _symmetry_equiv_pos_as_xyz
  'x, y, z'

loop_
  _atom_site_label
  _atom_site_occupancy
  _atom_site_fract_x
  _atom_site_fract_y
  _atom_site_fract_z
  _atom_site_thermal_displace_type
  _atom_site_B_iso_or_equiv
  _atom_site_type_symbol
  N1       1.0000 0.63350  0.26530  0.53520  Biso   1.000  N
  N2       1.0000 0.66190  0.99820  0.25840  Biso   1.000  N
  Nd1      1.0000 0.66918  0.12782  0.51468  Biso   1.000  Nd
  Nd2      1.0000 0.88996  0.36398  0.82563  Biso   1.000  Nd
  O1       1.0000 0.74770  0.23000  0.62830  Biso   1.000  O
  O2       1.0000 0.77690  0.34810  0.70390  Biso   1.000  O
  O3       1.0000 0.56030  0.14390  0.43080  Biso   1.000  O
  O4       1.0000 0.48060  0.21600  0.38700  Biso   1.000  O
  O5       1.0000 0.62290  0.11560  0.29630  Biso   1.000  O
  O6       1.0000 0.65890  0.04720  0.41100  Biso   1.000  O
  O7       1.0000 0.63420  0.03000  0.11830  Biso   1.000  O
  O8       1.0000 0.67260  0.90430  0.12500  Biso   1.000  O
  C1       1.0000 0.73860  0.29890  0.64760  Biso   1.000  C
  C2       1.0000 0.67340  0.32270  0.59380  Biso   1.000  C
  C3       1.0000 0.65490  0.39800  0.60420  Biso   1.000  C
  H1       1.0000 0.68270  0.43750  0.64430  Biso   1.000  H
  C4       1.0000 0.59410  0.41250  0.55330  Biso   1.000  C
  H2       1.0000 0.58060  0.46240  0.55850  Biso   1.000  H
  C5       1.0000 0.55330  0.35130  0.49410  Biso   1.000  C
  H3       1.0000 0.51230  0.35950  0.45990  Biso   1.000  H
  C6       1.0000 0.57550  0.27800  0.48770  Biso   1.000  C
  C7       1.0000 0.53510  0.20680  0.42960  Biso   1.000  C
  C8       1.0000 0.65050  0.05350  0.34720  Biso   1.000  C
  C9       1.0000 0.67450  0.98780  0.32850  Biso   1.000  C
  C10      1.0000 0.71340  0.92410  0.38310  Biso   1.000  C
  H4       1.0000 0.72150  0.91610  0.43180  Biso   1.000  H
  C11      1.0000 0.74020  0.87270  0.36590  Biso   1.000  C
  H5       1.0000 0.76760  0.83140  0.40360  Biso   1.000  H
  C12      1.0000 0.72570  0.88330  0.29230  Biso   1.000  C
  H6       1.0000 0.74320  0.84990  0.27890  Biso   1.000  H
  C13      1.0000 0.68410  0.94550  0.23810  Biso   1.000  C
  C14      1.0000 0.66150  0.96080  0.15330  Biso   1.000  C
  N3       1.0000 0.13350  0.76530  0.53520  Biso   1.000  N
  N4       1.0000 0.16190  0.49820  0.25840  Biso   1.000  N
  Nd3      1.0000 0.16918  0.62782  0.51468  Biso   1.000  Nd
  Nd4      1.0000 0.38996  0.86398  0.82563  Biso   1.000  Nd
  O9       1.0000 0.24770  0.73000  0.62830  Biso   1.000  O
  O10      1.0000 0.27690  0.84810  0.70390  Biso   1.000  O
  O11      1.0000 0.06030  0.64390  0.43080  Biso   1.000  O
  O12      1.0000 0.98060  0.71600  0.38700  Biso   1.000  O
  O13      1.0000 0.12290  0.61560  0.29630  Biso   1.000  O
  O14      1.0000 0.15890  0.54720  0.41100  Biso   1.000  O
  O15      1.0000 0.13420  0.53000  0.11830  Biso   1.000  O
  O16      1.0000 0.17260  0.40430  0.12500  Biso   1.000  O
  C15      1.0000 0.23860  0.79890  0.64760  Biso   1.000  C
  C16      1.0000 0.17340  0.82270  0.59380  Biso   1.000  C
  C17      1.0000 0.15490  0.89800  0.60420  Biso   1.000  C
  H7       1.0000 0.18270  0.93750  0.64430  Biso   1.000  H
  C18      1.0000 0.09410  0.91250  0.55330  Biso   1.000  C
  H8       1.0000 0.08060  0.96240  0.55850  Biso   1.000  H
  C19      1.0000 0.05330  0.85130  0.49410  Biso   1.000  C
  H9       1.0000 0.01230  0.85950  0.45990  Biso   1.000  H
  C20      1.0000 0.07550  0.77800  0.48770  Biso   1.000  C
  C21      1.0000 0.03510  0.70680  0.42960  Biso   1.000  C
  C22      1.0000 0.15050  0.55350  0.34720  Biso   1.000  C
  C23      1.0000 0.17450  0.48780  0.32850  Biso   1.000  C
  C24      1.0000 0.21340  0.42410  0.38310  Biso   1.000  C
  H10      1.0000 0.22150  0.41610  0.43180  Biso   1.000  H
  C25      1.0000 0.24020  0.37270  0.36590  Biso   1.000  C
  H11      1.0000 0.26760  0.33140  0.40360  Biso   1.000  H
  C26      1.0000 0.22570  0.38330  0.29230  Biso   1.000  C
  H12      1.0000 0.24320  0.34990  0.27890  Biso   1.000  H
  C27      1.0000 0.18410  0.44550  0.23810  Biso   1.000  C
  C28      1.0000 0.16150  0.46080  0.15330  Biso   1.000  C
  N5       1.0000 0.36650  0.26530  0.96480  Biso   1.000  N
  N6       1.0000 0.33810  0.99820  0.24160  Biso   1.000  N
  Nd5      1.0000 0.33082  0.12782  0.98532  Biso   1.000  Nd
  Nd6      1.0000 0.11004  0.36398  0.67437  Biso   1.000  Nd
  O17      1.0000 0.25230  0.23000  0.87170  Biso   1.000  O
  O18      1.0000 0.22310  0.34810  0.79610  Biso   1.000  O
  O19      1.0000 0.43970  0.14390  0.06920  Biso   1.000  O
  O20      1.0000 0.51940  0.21600  0.11300  Biso   1.000  O
  O21      1.0000 0.37710  0.11560  0.20370  Biso   1.000  O
  O22      1.0000 0.34110  0.04720  0.08900  Biso   1.000  O
  O23      1.0000 0.36580  0.03000  0.38170  Biso   1.000  O
  O24      1.0000 0.32740  0.90430  0.37500  Biso   1.000  O
  C29      1.0000 0.26140  0.29890  0.85240  Biso   1.000  C
  C30      1.0000 0.32660  0.32270  0.90620  Biso   1.000  C
  C31      1.0000 0.34510  0.39800  0.89580  Biso   1.000  C
  H13      1.0000 0.31730  0.43750  0.85570  Biso   1.000  H
  C32      1.0000 0.40590  0.41250  0.94670  Biso   1.000  C
  H14      1.0000 0.41940  0.46240  0.94150  Biso   1.000  H
  C33      1.0000 0.44670  0.35130  0.00590  Biso   1.000  C
  H15      1.0000 0.48770  0.35950  0.04010  Biso   1.000  H
  C34      1.0000 0.42450  0.27800  0.01230  Biso   1.000  C
  C35      1.0000 0.46490  0.20680  0.07040  Biso   1.000  C
  C36      1.0000 0.34950  0.05350  0.15280  Biso   1.000  C
  C37      1.0000 0.32550  0.98780  0.17150  Biso   1.000  C
  C38      1.0000 0.28660  0.92410  0.11690  Biso   1.000  C
  H16      1.0000 0.27850  0.91610  0.06820  Biso   1.000  H
  C39      1.0000 0.25980  0.87270  0.13410  Biso   1.000  C
  H17      1.0000 0.23240  0.83140  0.09640  Biso   1.000  H
  C40      1.0000 0.27430  0.88330  0.20770  Biso   1.000  C
  H18      1.0000 0.25680  0.84990  0.22110  Biso   1.000  H
  C41      1.0000 0.31590  0.94550  0.26190  Biso   1.000  C
  C42      1.0000 0.33850  0.96080  0.34670  Biso   1.000  C
  N7       1.0000 0.86650  0.76530  0.96480  Biso   1.000  N
  N8       1.0000 0.83810  0.49820  0.24160  Biso   1.000  N
  Nd7      1.0000 0.83082  0.62782  0.98532  Biso   1.000  Nd
  Nd8      1.0000 0.61004  0.86398  0.67437  Biso   1.000  Nd
  O25      1.0000 0.75230  0.73000  0.87170  Biso   1.000  O
  O26      1.0000 0.72310  0.84810  0.79610  Biso   1.000  O
  O27      1.0000 0.93970  0.64390  0.06920  Biso   1.000  O
  O28      1.0000 0.01940  0.71600  0.11300  Biso   1.000  O
  O29      1.0000 0.87710  0.61560  0.20370  Biso   1.000  O
  O30      1.0000 0.84110  0.54720  0.08900  Biso   1.000  O
  O31      1.0000 0.86580  0.53000  0.38170  Biso   1.000  O
  O32      1.0000 0.82740  0.40430  0.37500  Biso   1.000  O
  C43      1.0000 0.76140  0.79890  0.85240  Biso   1.000  C
  C44      1.0000 0.82660  0.82270  0.90620  Biso   1.000  C
  C45      1.0000 0.84510  0.89800  0.89580  Biso   1.000  C
  H19      1.0000 0.81730  0.93750  0.85570  Biso   1.000  H
  C46      1.0000 0.90590  0.91250  0.94670  Biso   1.000  C
  H20      1.0000 0.91940  0.96240  0.94150  Biso   1.000  H
  C47      1.0000 0.94670  0.85130  0.00590  Biso   1.000  C
  H21      1.0000 0.98770  0.85950  0.04010  Biso   1.000  H
  C48      1.0000 0.92450  0.77800  0.01230  Biso   1.000  C
  C49      1.0000 0.96490  0.70680  0.07040  Biso   1.000  C
  C50      1.0000 0.84950  0.55350  0.15280  Biso   1.000  C
  C51      1.0000 0.82550  0.48780  0.17150  Biso   1.000  C
  C52      1.0000 0.78660  0.42410  0.11690  Biso   1.000  C
  H22      1.0000 0.77850  0.41610  0.06820  Biso   1.000  H
  C53      1.0000 0.75980  0.37270  0.13410  Biso   1.000  C
  H23      1.0000 0.73240  0.33140  0.09640  Biso   1.000  H
  C54      1.0000 0.77430  0.38330  0.20770  Biso   1.000  C
  H24      1.0000 0.75680  0.34990  0.22110  Biso   1.000  H
  C55      1.0000 0.81590  0.44550  0.26190  Biso   1.000  C
  C56      1.0000 0.83850  0.46080  0.34670  Biso   1.000  C
  N9       1.0000 0.36650  0.73470  0.46480  Biso   1.000  N
  N10      1.0000 0.33810  0.00180  0.74160  Biso   1.000  N
  Nd9      1.0000 0.33082  0.87218  0.48532  Biso   1.000  Nd
  Nd10     1.0000 0.11004  0.63602  0.17437  Biso   1.000  Nd
  O33      1.0000 0.25230  0.77000  0.37170  Biso   1.000  O
  O34      1.0000 0.22310  0.65190  0.29610  Biso   1.000  O
  O35      1.0000 0.43970  0.85610  0.56920  Biso   1.000  O
  O36      1.0000 0.51940  0.78400  0.61300  Biso   1.000  O
  O37      1.0000 0.37710  0.88440  0.70370  Biso   1.000  O
  O38      1.0000 0.34110  0.95280  0.58900  Biso   1.000  O
  O39      1.0000 0.36580  0.97000  0.88170  Biso   1.000  O
  O40      1.0000 0.32740  0.09570  0.87500  Biso   1.000  O
  C57      1.0000 0.26140  0.70110  0.35240  Biso   1.000  C
  C58      1.0000 0.32660  0.67730  0.40620  Biso   1.000  C
  C59      1.0000 0.34510  0.60200  0.39580  Biso   1.000  C
  H25      1.0000 0.31730  0.56250  0.35570  Biso   1.000  H
  C60      1.0000 0.40590  0.58750  0.44670  Biso   1.000  C
  H26      1.0000 0.41940  0.53760  0.44150  Biso   1.000  H
  C61      1.0000 0.44670  0.64870  0.50590  Biso   1.000  C
  H27      1.0000 0.48770  0.64050  0.54010  Biso   1.000  H
  C62      1.0000 0.42450  0.72200  0.51230  Biso   1.000  C
  C63      1.0000 0.46490  0.79320  0.57040  Biso   1.000  C
  C64      1.0000 0.34950  0.94650  0.65280  Biso   1.000  C
  C65      1.0000 0.32550  0.01220  0.67150  Biso   1.000  C
  C66      1.0000 0.28660  0.07590  0.61690  Biso   1.000  C
  H28      1.0000 0.27850  0.08390  0.56820  Biso   1.000  H
  C67      1.0000 0.25980  0.12730  0.63410  Biso   1.000  C
  H29      1.0000 0.23240  0.16860  0.59640  Biso   1.000  H
  C68      1.0000 0.27430  0.11670  0.70770  Biso   1.000  C
  H30      1.0000 0.25680  0.15010  0.72110  Biso   1.000  H
  C69      1.0000 0.31590  0.05450  0.76190  Biso   1.000  C
  C70      1.0000 0.33850  0.03920  0.84670  Biso   1.000  C
  N11      1.0000 0.86650  0.23470  0.46480  Biso   1.000  N
  N12      1.0000 0.83810  0.50180  0.74160  Biso   1.000  N
  Nd11     1.0000 0.83082  0.37218  0.48532  Biso   1.000  Nd
  Nd12     1.0000 0.61004  0.13602  0.17437  Biso   1.000  Nd
  O41      1.0000 0.75230  0.27000  0.37170  Biso   1.000  O
  O42      1.0000 0.72310  0.15190  0.29610  Biso   1.000  O
  O43      1.0000 0.93970  0.35610  0.56920  Biso   1.000  O
  O44      1.0000 0.01940  0.28400  0.61300  Biso   1.000  O
  O45      1.0000 0.87710  0.38440  0.70370  Biso   1.000  O
  O46      1.0000 0.84110  0.45280  0.58900  Biso   1.000  O
  O47      1.0000 0.86580  0.47000  0.88170  Biso   1.000  O
  O48      1.0000 0.82740  0.59570  0.87500  Biso   1.000  O
  C71      1.0000 0.76140  0.20110  0.35240  Biso   1.000  C
  C72      1.0000 0.82660  0.17730  0.40620  Biso   1.000  C
  C73      1.0000 0.84510  0.10200  0.39580  Biso   1.000  C
  H31      1.0000 0.81730  0.06250  0.35570  Biso   1.000  H
  C74      1.0000 0.90590  0.08750  0.44670  Biso   1.000  C
  H32      1.0000 0.91940  0.03760  0.44150  Biso   1.000  H
  C75      1.0000 0.94670  0.14870  0.50590  Biso   1.000  C
  H33      1.0000 0.98770  0.14050  0.54010  Biso   1.000  H
  C76      1.0000 0.92450  0.22200  0.51230  Biso   1.000  C
  C77      1.0000 0.96490  0.29320  0.57040  Biso   1.000  C
  C78      1.0000 0.84950  0.44650  0.65280  Biso   1.000  C
  C79      1.0000 0.82550  0.51220  0.67150  Biso   1.000  C
  C80      1.0000 0.78660  0.57590  0.61690  Biso   1.000  C
  H34      1.0000 0.77850  0.58390  0.56820  Biso   1.000  H
  C81      1.0000 0.75980  0.62730  0.63410  Biso   1.000  C
  H35      1.0000 0.73240  0.66860  0.59640  Biso   1.000  H
  C82      1.0000 0.77430  0.61670  0.70770  Biso   1.000  C
  H36      1.0000 0.75680  0.65010  0.72110  Biso   1.000  H
  C83      1.0000 0.81590  0.55450  0.76190  Biso   1.000  C
  C84      1.0000 0.83850  0.53920  0.84670  Biso   1.000  C
  N13      1.0000 0.63350  0.73470  0.03520  Biso   1.000  N
  N14      1.0000 0.66190  0.00180  0.75840  Biso   1.000  N
  Nd13     1.0000 0.66918  0.87218  0.01468  Biso   1.000  Nd
  Nd14     1.0000 0.88996  0.63602  0.32563  Biso   1.000  Nd
  O49      1.0000 0.74770  0.77000  0.12830  Biso   1.000  O
  O50      1.0000 0.77690  0.65190  0.20390  Biso   1.000  O
  O51      1.0000 0.56030  0.85610  0.93080  Biso   1.000  O
  O52      1.0000 0.48060  0.78400  0.88700  Biso   1.000  O
  O53      1.0000 0.62290  0.88440  0.79630  Biso   1.000  O
  O54      1.0000 0.65890  0.95280  0.91100  Biso   1.000  O
  O55      1.0000 0.63420  0.97000  0.61830  Biso   1.000  O
  O56      1.0000 0.67260  0.09570  0.62500  Biso   1.000  O
  C85      1.0000 0.73860  0.70110  0.14760  Biso   1.000  C
  C86      1.0000 0.67340  0.67730  0.09380  Biso   1.000  C
  C87      1.0000 0.65490  0.60200  0.10420  Biso   1.000  C
  H37      1.0000 0.68270  0.56250  0.14430  Biso   1.000  H
  C88      1.0000 0.59410  0.58750  0.05330  Biso   1.000  C
  H38      1.0000 0.58060  0.53760  0.05850  Biso   1.000  H
  C89      1.0000 0.55330  0.64870  0.99410  Biso   1.000  C
  H39      1.0000 0.51230  0.64050  0.95990  Biso   1.000  H
  C90      1.0000 0.57550  0.72200  0.98770  Biso   1.000  C
  C91      1.0000 0.53510  0.79320  0.92960  Biso   1.000  C
  C92      1.0000 0.65050  0.94650  0.84720  Biso   1.000  C
  C93      1.0000 0.67450  0.01220  0.82850  Biso   1.000  C
  C94      1.0000 0.71340  0.07590  0.88310  Biso   1.000  C
  H40      1.0000 0.72150  0.08390  0.93180  Biso   1.000  H
  C95      1.0000 0.74020  0.12730  0.86590  Biso   1.000  C
  H41      1.0000 0.76760  0.16860  0.90360  Biso   1.000  H
  C96      1.0000 0.72570  0.11670  0.79230  Biso   1.000  C
  H42      1.0000 0.74320  0.15010  0.77890  Biso   1.000  H
  C97      1.0000 0.68410  0.05450  0.73810  Biso   1.000  C
  C98      1.0000 0.66150  0.03920  0.65330  Biso   1.000  C
  N15      1.0000 0.13350  0.23470  0.03520  Biso   1.000  N
  N16      1.0000 0.16190  0.50180  0.75840  Biso   1.000  N
  Nd15     1.0000 0.16918  0.37218  0.01468  Biso   1.000  Nd
  Nd16     1.0000 0.38996  0.13602  0.32563  Biso   1.000  Nd
  O57      1.0000 0.24770  0.27000  0.12830  Biso   1.000  O
  O58      1.0000 0.27690  0.15190  0.20390  Biso   1.000  O
  O59      1.0000 0.06030  0.35610  0.93080  Biso   1.000  O
  O60      1.0000 0.98060  0.28400  0.88700  Biso   1.000  O
  O61      1.0000 0.12290  0.38440  0.79630  Biso   1.000  O
  O62      1.0000 0.15890  0.45280  0.91100  Biso   1.000  O
  O63      1.0000 0.13420  0.47000  0.61830  Biso   1.000  O
  O64      1.0000 0.17260  0.59570  0.62500  Biso   1.000  O
  C99      1.0000 0.23860  0.20110  0.14760  Biso   1.000  C
  C100     1.0000 0.17340  0.17730  0.09380  Biso   1.000  C
  C101     1.0000 0.15490  0.10200  0.10420  Biso   1.000  C
  H43      1.0000 0.18270  0.06250  0.14430  Biso   1.000  H
  C102     1.0000 0.09410  0.08750  0.05330  Biso   1.000  C
  H44      1.0000 0.08060  0.03760  0.05850  Biso   1.000  H
  C103     1.0000 0.05330  0.14870  0.99410  Biso   1.000  C
  H45      1.0000 0.01230  0.14050  0.95990  Biso   1.000  H
  C104     1.0000 0.07550  0.22200  0.98770  Biso   1.000  C
  C105     1.0000 0.03510  0.29320  0.92960  Biso   1.000  C
  C106     1.0000 0.15050  0.44650  0.84720  Biso   1.000  C
  C107     1.0000 0.17450  0.51220  0.82850  Biso   1.000  C
  C108     1.0000 0.21340  0.57590  0.88310  Biso   1.000  C
  H46      1.0000 0.22150  0.58390  0.93180  Biso   1.000  H
  C109     1.0000 0.24020  0.62730  0.86590  Biso   1.000  C
  H47      1.0000 0.26760  0.66860  0.90360  Biso   1.000  H
  C110     1.0000 0.22570  0.61670  0.79230  Biso   1.000  C
  H48      1.0000 0.24320  0.65010  0.77890  Biso   1.000  H
  C111     1.0000 0.18410  0.55450  0.73810  Biso   1.000  C
  C112     1.0000 0.16150  0.53920  0.65330  Biso   1.000  C
