data_image0
_cell_length_a       24.641
_cell_length_b       12.468
_cell_length_c       15.427
_cell_angle_alpha    90
_cell_angle_beta     90
_cell_angle_gamma    90

_symmetry_space_group_name_H-M    "P 1"
_symmetry_int_tables_number       1

loop_
  _symmetry_equiv_pos_as_xyz
  'x, y, z'

loop_
  _atom_site_label
  _atom_site_occupancy
  _atom_site_fract_x
  _atom_site_fract_y
  _atom_site_fract_z
  _atom_site_thermal_displace_type
  _atom_site_B_iso_or_equiv
  _atom_site_type_symbol
  Cd1      1.0000 0.23602  0.82527  0.57756  Biso   1.000  Cd
  N1       1.0000 0.23210  0.43140  0.32500  Biso   1.000  N
  N2       1.0000 0.32080  0.51990  0.46250  Biso   1.000  N
  N3       1.0000 0.32532  0.88350  0.57270  Biso   1.000  N
  O1       1.0000 0.17381  0.73510  0.48380  Biso   1.000  O
  O2       1.0000 0.26063  0.72050  0.45320  Biso   1.000  O
  O3       1.0000 0.34820  0.66640  0.18210  Biso   1.000  O
  O4       1.0000 0.27020  0.59790  0.21130  Biso   1.000  O
  O5       1.0000 0.27370  0.36810  0.30480  Biso   1.000  O
  O6       1.0000 0.28452  0.49280  0.52420  Biso   1.000  O
  C1       1.0000 0.18070  0.40170  0.30680  Biso   1.000  C
  H1       1.0000 0.17410  0.33590  0.28060  Biso   1.000  H
  C2       1.0000 0.13910  0.46700  0.32660  Biso   1.000  C
  H2       1.0000 0.10400  0.44820  0.31010  Biso   1.000  H
  C3       1.0000 0.14790  0.56410  0.37210  Biso   1.000  C
  H3       1.0000 0.11890  0.60760  0.38830  Biso   1.000  H
  C4       1.0000 0.20030  0.59220  0.39170  Biso   1.000  C
  C5       1.0000 0.24280  0.52480  0.36650  Biso   1.000  C
  C6       1.0000 0.30130  0.54520  0.38230  Biso   1.000  C
  C7       1.0000 0.33790  0.58380  0.32050  Biso   1.000  C
  C8       1.0000 0.39190  0.59540  0.34270  Biso   1.000  C
  H4       1.0000 0.41630  0.62310  0.30250  Biso   1.000  H
  C9       1.0000 0.40990  0.56590  0.42440  Biso   1.000  C
  H5       1.0000 0.44650  0.57120  0.43870  Biso   1.000  H
  C10      1.0000 0.37290  0.52890  0.48410  Biso   1.000  C
  H6       1.0000 0.38430  0.51010  0.53950  Biso   1.000  H
  C11      1.0000 0.21280  0.69140  0.44490  Biso   1.000  C
  C12      1.0000 0.31700  0.61720  0.23080  Biso   1.000  C
  C13      1.0000 0.36340  0.82390  0.53420  Biso   1.000  C
  H7       1.0000 0.35450  0.75500  0.51580  Biso   1.000  H
  C14      1.0000 0.41570  0.86110  0.52080  Biso   1.000  C
  H8       1.0000 0.44150  0.81700  0.49510  Biso   1.000  H
  C15      1.0000 0.42930  0.96440  0.54600  Biso   1.000  C
  C16      1.0000 0.39060  0.02450  0.58530  Biso   1.000  C
  H9       1.0000 0.39840  0.09380  0.60360  Biso   1.000  H
  C17      1.0000 0.34000  0.98210  0.59780  Biso   1.000  C
  H10      1.0000 0.31410  0.02450  0.62540  Biso   1.000  H
  C18      1.0000 0.48340  0.01600  0.52520  Biso   1.000  C
  H11      1.0000 0.49170  0.07900  0.55460  Biso   1.000  H
  Cd2      1.0000 0.26398  0.67473  0.07756  Biso   1.000  Cd
  N4       1.0000 0.26790  0.06860  0.82500  Biso   1.000  N
  N5       1.0000 0.17920  0.98010  0.96250  Biso   1.000  N
  N6       1.0000 0.17468  0.61650  0.07270  Biso   1.000  N
  O7       1.0000 0.32619  0.76490  0.98380  Biso   1.000  O
  O8       1.0000 0.23937  0.77950  0.95320  Biso   1.000  O
  O9       1.0000 0.15180  0.83360  0.68210  Biso   1.000  O
  O10      1.0000 0.22980  0.90210  0.71130  Biso   1.000  O
  O11      1.0000 0.22630  0.13190  0.80480  Biso   1.000  O
  O12      1.0000 0.21548  0.00720  0.02420  Biso   1.000  O
  C19      1.0000 0.31930  0.09830  0.80680  Biso   1.000  C
  H12      1.0000 0.32590  0.16410  0.78060  Biso   1.000  H
  C20      1.0000 0.36090  0.03300  0.82660  Biso   1.000  C
  H13      1.0000 0.39600  0.05180  0.81010  Biso   1.000  H
  C21      1.0000 0.35210  0.93590  0.87210  Biso   1.000  C
  H14      1.0000 0.38110  0.89240  0.88830  Biso   1.000  H
  C22      1.0000 0.29970  0.90780  0.89170  Biso   1.000  C
  C23      1.0000 0.25720  0.97520  0.86650  Biso   1.000  C
  C24      1.0000 0.19870  0.95480  0.88230  Biso   1.000  C
  C25      1.0000 0.16210  0.91620  0.82050  Biso   1.000  C
  C26      1.0000 0.10810  0.90460  0.84270  Biso   1.000  C
  H15      1.0000 0.08370  0.87690  0.80250  Biso   1.000  H
  C27      1.0000 0.09010  0.93410  0.92440  Biso   1.000  C
  H16      1.0000 0.05350  0.92880  0.93870  Biso   1.000  H
  C28      1.0000 0.12710  0.97110  0.98410  Biso   1.000  C
  H17      1.0000 0.11570  0.98990  0.03950  Biso   1.000  H
  C29      1.0000 0.28720  0.80860  0.94490  Biso   1.000  C
  C30      1.0000 0.18300  0.88280  0.73080  Biso   1.000  C
  C31      1.0000 0.13660  0.67610  0.03420  Biso   1.000  C
  H18      1.0000 0.14550  0.74500  0.01580  Biso   1.000  H
  C32      1.0000 0.08430  0.63890  0.02080  Biso   1.000  C
  H19      1.0000 0.05850  0.68300  0.99510  Biso   1.000  H
  C33      1.0000 0.07070  0.53560  0.04600  Biso   1.000  C
  C34      1.0000 0.10940  0.47550  0.08530  Biso   1.000  C
  H20      1.0000 0.10160  0.40620  0.10360  Biso   1.000  H
  C35      1.0000 0.16000  0.51790  0.09780  Biso   1.000  C
  H21      1.0000 0.18590  0.47550  0.12540  Biso   1.000  H
  C36      1.0000 0.01660  0.48400  0.02520  Biso   1.000  C
  H22      1.0000 0.00830  0.42100  0.05460  Biso   1.000  H
  Cd3      1.0000 0.76398  0.82527  0.92244  Biso   1.000  Cd
  N7       1.0000 0.76790  0.43140  0.17500  Biso   1.000  N
  N8       1.0000 0.67920  0.51990  0.03750  Biso   1.000  N
  N9       1.0000 0.67468  0.88350  0.92730  Biso   1.000  N
  O13      1.0000 0.82619  0.73510  0.01620  Biso   1.000  O
  O14      1.0000 0.73937  0.72050  0.04680  Biso   1.000  O
  O15      1.0000 0.65180  0.66640  0.31790  Biso   1.000  O
  O16      1.0000 0.72980  0.59790  0.28870  Biso   1.000  O
  O17      1.0000 0.72630  0.36810  0.19520  Biso   1.000  O
  O18      1.0000 0.71548  0.49280  0.97580  Biso   1.000  O
  C37      1.0000 0.81930  0.40170  0.19320  Biso   1.000  C
  H23      1.0000 0.82590  0.33590  0.21940  Biso   1.000  H
  C38      1.0000 0.86090  0.46700  0.17340  Biso   1.000  C
  H24      1.0000 0.89600  0.44820  0.18990  Biso   1.000  H
  C39      1.0000 0.85210  0.56410  0.12790  Biso   1.000  C
  H25      1.0000 0.88110  0.60760  0.11170  Biso   1.000  H
  C40      1.0000 0.79970  0.59220  0.10830  Biso   1.000  C
  C41      1.0000 0.75720  0.52480  0.13350  Biso   1.000  C
  C42      1.0000 0.69870  0.54520  0.11770  Biso   1.000  C
  C43      1.0000 0.66210  0.58380  0.17950  Biso   1.000  C
  C44      1.0000 0.60810  0.59540  0.15730  Biso   1.000  C
  H26      1.0000 0.58370  0.62310  0.19750  Biso   1.000  H
  C45      1.0000 0.59010  0.56590  0.07560  Biso   1.000  C
  H27      1.0000 0.55350  0.57120  0.06130  Biso   1.000  H
  C46      1.0000 0.62710  0.52890  0.01590  Biso   1.000  C
  H28      1.0000 0.61570  0.51010  0.96050  Biso   1.000  H
  C47      1.0000 0.78720  0.69140  0.05510  Biso   1.000  C
  C48      1.0000 0.68300  0.61720  0.26920  Biso   1.000  C
  C49      1.0000 0.63660  0.82390  0.96580  Biso   1.000  C
  H29      1.0000 0.64550  0.75500  0.98420  Biso   1.000  H
  C50      1.0000 0.58430  0.86110  0.97920  Biso   1.000  C
  H30      1.0000 0.55850  0.81700  0.00490  Biso   1.000  H
  C51      1.0000 0.57070  0.96440  0.95400  Biso   1.000  C
  C52      1.0000 0.60940  0.02450  0.91470  Biso   1.000  C
  H31      1.0000 0.60160  0.09380  0.89640  Biso   1.000  H
  C53      1.0000 0.66000  0.98210  0.90220  Biso   1.000  C
  H32      1.0000 0.68590  0.02450  0.87460  Biso   1.000  H
  C54      1.0000 0.51660  0.01600  0.97480  Biso   1.000  C
  H33      1.0000 0.50830  0.07900  0.94540  Biso   1.000  H
  Cd4      1.0000 0.73602  0.67473  0.42244  Biso   1.000  Cd
  N10      1.0000 0.73210  0.06860  0.67500  Biso   1.000  N
  N11      1.0000 0.82080  0.98010  0.53750  Biso   1.000  N
  N12      1.0000 0.82532  0.61650  0.42730  Biso   1.000  N
  O19      1.0000 0.67381  0.76490  0.51620  Biso   1.000  O
  O20      1.0000 0.76063  0.77950  0.54680  Biso   1.000  O
  O21      1.0000 0.84820  0.83360  0.81790  Biso   1.000  O
  O22      1.0000 0.77020  0.90210  0.78870  Biso   1.000  O
  O23      1.0000 0.77370  0.13190  0.69520  Biso   1.000  O
  O24      1.0000 0.78452  0.00720  0.47580  Biso   1.000  O
  C55      1.0000 0.68070  0.09830  0.69320  Biso   1.000  C
  H34      1.0000 0.67410  0.16410  0.71940  Biso   1.000  H
  C56      1.0000 0.63910  0.03300  0.67340  Biso   1.000  C
  H35      1.0000 0.60400  0.05180  0.68990  Biso   1.000  H
  C57      1.0000 0.64790  0.93590  0.62790  Biso   1.000  C
  H36      1.0000 0.61890  0.89240  0.61170  Biso   1.000  H
  C58      1.0000 0.70030  0.90780  0.60830  Biso   1.000  C
  C59      1.0000 0.74280  0.97520  0.63350  Biso   1.000  C
  C60      1.0000 0.80130  0.95480  0.61770  Biso   1.000  C
  C61      1.0000 0.83790  0.91620  0.67950  Biso   1.000  C
  C62      1.0000 0.89190  0.90460  0.65730  Biso   1.000  C
  H37      1.0000 0.91630  0.87690  0.69750  Biso   1.000  H
  C63      1.0000 0.90990  0.93410  0.57560  Biso   1.000  C
  H38      1.0000 0.94650  0.92880  0.56130  Biso   1.000  H
  C64      1.0000 0.87290  0.97110  0.51590  Biso   1.000  C
  H39      1.0000 0.88430  0.98990  0.46050  Biso   1.000  H
  C65      1.0000 0.71280  0.80860  0.55510  Biso   1.000  C
  C66      1.0000 0.81700  0.88280  0.76920  Biso   1.000  C
  C67      1.0000 0.86340  0.67610  0.46580  Biso   1.000  C
  H40      1.0000 0.85450  0.74500  0.48420  Biso   1.000  H
  C68      1.0000 0.91570  0.63890  0.47920  Biso   1.000  C
  H41      1.0000 0.94150  0.68300  0.50490  Biso   1.000  H
  C69      1.0000 0.92930  0.53560  0.45400  Biso   1.000  C
  C70      1.0000 0.89060  0.47550  0.41470  Biso   1.000  C
  H42      1.0000 0.89840  0.40620  0.39640  Biso   1.000  H
  C71      1.0000 0.84000  0.51790  0.40220  Biso   1.000  C
  H43      1.0000 0.81410  0.47550  0.37460  Biso   1.000  H
  C72      1.0000 0.98340  0.48400  0.47480  Biso   1.000  C
  H44      1.0000 0.99170  0.42100  0.44540  Biso   1.000  H
  Cd5      1.0000 0.76398  0.17473  0.42244  Biso   1.000  Cd
  N13      1.0000 0.76790  0.56860  0.67500  Biso   1.000  N
  N14      1.0000 0.67920  0.48010  0.53750  Biso   1.000  N
  N15      1.0000 0.67468  0.11650  0.42730  Biso   1.000  N
  O25      1.0000 0.82619  0.26490  0.51620  Biso   1.000  O
  O26      1.0000 0.73937  0.27950  0.54680  Biso   1.000  O
  O27      1.0000 0.65180  0.33360  0.81790  Biso   1.000  O
  O28      1.0000 0.72980  0.40210  0.78870  Biso   1.000  O
  O29      1.0000 0.72630  0.63190  0.69520  Biso   1.000  O
  O30      1.0000 0.71548  0.50720  0.47580  Biso   1.000  O
  C73      1.0000 0.81930  0.59830  0.69320  Biso   1.000  C
  H45      1.0000 0.82590  0.66410  0.71940  Biso   1.000  H
  C74      1.0000 0.86090  0.53300  0.67340  Biso   1.000  C
  H46      1.0000 0.89600  0.55180  0.68990  Biso   1.000  H
  C75      1.0000 0.85210  0.43590  0.62790  Biso   1.000  C
  H47      1.0000 0.88110  0.39240  0.61170  Biso   1.000  H
  C76      1.0000 0.79970  0.40780  0.60830  Biso   1.000  C
  C77      1.0000 0.75720  0.47520  0.63350  Biso   1.000  C
  C78      1.0000 0.69870  0.45480  0.61770  Biso   1.000  C
  C79      1.0000 0.66210  0.41620  0.67950  Biso   1.000  C
  C80      1.0000 0.60810  0.40460  0.65730  Biso   1.000  C
  H48      1.0000 0.58370  0.37690  0.69750  Biso   1.000  H
  C81      1.0000 0.59010  0.43410  0.57560  Biso   1.000  C
  H49      1.0000 0.55350  0.42880  0.56130  Biso   1.000  H
  C82      1.0000 0.62710  0.47110  0.51590  Biso   1.000  C
  H50      1.0000 0.61570  0.48990  0.46050  Biso   1.000  H
  C83      1.0000 0.78720  0.30860  0.55510  Biso   1.000  C
  C84      1.0000 0.68300  0.38280  0.76920  Biso   1.000  C
  C85      1.0000 0.63660  0.17610  0.46580  Biso   1.000  C
  H51      1.0000 0.64550  0.24500  0.48420  Biso   1.000  H
  C86      1.0000 0.58430  0.13890  0.47920  Biso   1.000  C
  H52      1.0000 0.55850  0.18300  0.50490  Biso   1.000  H
  C87      1.0000 0.57070  0.03560  0.45400  Biso   1.000  C
  C88      1.0000 0.60940  0.97550  0.41470  Biso   1.000  C
  H53      1.0000 0.60160  0.90620  0.39640  Biso   1.000  H
  C89      1.0000 0.66000  0.01790  0.40220  Biso   1.000  C
  H54      1.0000 0.68590  0.97550  0.37460  Biso   1.000  H
  C90      1.0000 0.51660  0.98400  0.47480  Biso   1.000  C
  H55      1.0000 0.50830  0.92100  0.44540  Biso   1.000  H
  Cd6      1.0000 0.73602  0.32527  0.92244  Biso   1.000  Cd
  N16      1.0000 0.73210  0.93140  0.17500  Biso   1.000  N
  N17      1.0000 0.82080  0.01990  0.03750  Biso   1.000  N
  N18      1.0000 0.82532  0.38350  0.92730  Biso   1.000  N
  O31      1.0000 0.67381  0.23510  0.01620  Biso   1.000  O
  O32      1.0000 0.76063  0.22050  0.04680  Biso   1.000  O
  O33      1.0000 0.84820  0.16640  0.31790  Biso   1.000  O
  O34      1.0000 0.77020  0.09790  0.28870  Biso   1.000  O
  O35      1.0000 0.77370  0.86810  0.19520  Biso   1.000  O
  O36      1.0000 0.78452  0.99280  0.97580  Biso   1.000  O
  C91      1.0000 0.68070  0.90170  0.19320  Biso   1.000  C
  H56      1.0000 0.67410  0.83590  0.21940  Biso   1.000  H
  C92      1.0000 0.63910  0.96700  0.17340  Biso   1.000  C
  H57      1.0000 0.60400  0.94820  0.18990  Biso   1.000  H
  C93      1.0000 0.64790  0.06410  0.12790  Biso   1.000  C
  H58      1.0000 0.61890  0.10760  0.11170  Biso   1.000  H
  C94      1.0000 0.70030  0.09220  0.10830  Biso   1.000  C
  C95      1.0000 0.74280  0.02480  0.13350  Biso   1.000  C
  C96      1.0000 0.80130  0.04520  0.11770  Biso   1.000  C
  C97      1.0000 0.83790  0.08380  0.17950  Biso   1.000  C
  C98      1.0000 0.89190  0.09540  0.15730  Biso   1.000  C
  H59      1.0000 0.91630  0.12310  0.19750  Biso   1.000  H
  C99      1.0000 0.90990  0.06590  0.07560  Biso   1.000  C
  H60      1.0000 0.94650  0.07120  0.06130  Biso   1.000  H
  C100     1.0000 0.87290  0.02890  0.01590  Biso   1.000  C
  H61      1.0000 0.88430  0.01010  0.96050  Biso   1.000  H
  C101     1.0000 0.71280  0.19140  0.05510  Biso   1.000  C
  C102     1.0000 0.81700  0.11720  0.26920  Biso   1.000  C
  C103     1.0000 0.86340  0.32390  0.96580  Biso   1.000  C
  H62      1.0000 0.85450  0.25500  0.98420  Biso   1.000  H
  C104     1.0000 0.91570  0.36110  0.97920  Biso   1.000  C
  H63      1.0000 0.94150  0.31700  0.00490  Biso   1.000  H
  C105     1.0000 0.92930  0.46440  0.95400  Biso   1.000  C
  C106     1.0000 0.89060  0.52450  0.91470  Biso   1.000  C
  H64      1.0000 0.89840  0.59380  0.89640  Biso   1.000  H
  C107     1.0000 0.84000  0.48210  0.90220  Biso   1.000  C
  H65      1.0000 0.81410  0.52450  0.87460  Biso   1.000  H
  C108     1.0000 0.98340  0.51600  0.97480  Biso   1.000  C
  H66      1.0000 0.99170  0.57900  0.94540  Biso   1.000  H
  Cd7      1.0000 0.23602  0.17473  0.07756  Biso   1.000  Cd
  N19      1.0000 0.23210  0.56860  0.82500  Biso   1.000  N
  N20      1.0000 0.32080  0.48010  0.96250  Biso   1.000  N
  N21      1.0000 0.32532  0.11650  0.07270  Biso   1.000  N
  O37      1.0000 0.17381  0.26490  0.98380  Biso   1.000  O
  O38      1.0000 0.26063  0.27950  0.95320  Biso   1.000  O
  O39      1.0000 0.34820  0.33360  0.68210  Biso   1.000  O
  O40      1.0000 0.27020  0.40210  0.71130  Biso   1.000  O
  O41      1.0000 0.27370  0.63190  0.80480  Biso   1.000  O
  O42      1.0000 0.28452  0.50720  0.02420  Biso   1.000  O
  C109     1.0000 0.18070  0.59830  0.80680  Biso   1.000  C
  H67      1.0000 0.17410  0.66410  0.78060  Biso   1.000  H
  C110     1.0000 0.13910  0.53300  0.82660  Biso   1.000  C
  H68      1.0000 0.10400  0.55180  0.81010  Biso   1.000  H
  C111     1.0000 0.14790  0.43590  0.87210  Biso   1.000  C
  H69      1.0000 0.11890  0.39240  0.88830  Biso   1.000  H
  C112     1.0000 0.20030  0.40780  0.89170  Biso   1.000  C
  C113     1.0000 0.24280  0.47520  0.86650  Biso   1.000  C
  C114     1.0000 0.30130  0.45480  0.88230  Biso   1.000  C
  C115     1.0000 0.33790  0.41620  0.82050  Biso   1.000  C
  C116     1.0000 0.39190  0.40460  0.84270  Biso   1.000  C
  H70      1.0000 0.41630  0.37690  0.80250  Biso   1.000  H
  C117     1.0000 0.40990  0.43410  0.92440  Biso   1.000  C
  H71      1.0000 0.44650  0.42880  0.93870  Biso   1.000  H
  C118     1.0000 0.37290  0.47110  0.98410  Biso   1.000  C
  H72      1.0000 0.38430  0.48990  0.03950  Biso   1.000  H
  C119     1.0000 0.21280  0.30860  0.94490  Biso   1.000  C
  C120     1.0000 0.31700  0.38280  0.73080  Biso   1.000  C
  C121     1.0000 0.36340  0.17610  0.03420  Biso   1.000  C
  H73      1.0000 0.35450  0.24500  0.01580  Biso   1.000  H
  C122     1.0000 0.41570  0.13890  0.02080  Biso   1.000  C
  H74      1.0000 0.44150  0.18300  0.99510  Biso   1.000  H
  C123     1.0000 0.42930  0.03560  0.04600  Biso   1.000  C
  C124     1.0000 0.39060  0.97550  0.08530  Biso   1.000  C
  H75      1.0000 0.39840  0.90620  0.10360  Biso   1.000  H
  C125     1.0000 0.34000  0.01790  0.09780  Biso   1.000  C
  H76      1.0000 0.31410  0.97550  0.12540  Biso   1.000  H
  C126     1.0000 0.48340  0.98400  0.02520  Biso   1.000  C
  H77      1.0000 0.49170  0.92100  0.05460  Biso   1.000  H
  Cd8      1.0000 0.26398  0.32527  0.57756  Biso   1.000  Cd
  N22      1.0000 0.26790  0.93140  0.32500  Biso   1.000  N
  N23      1.0000 0.17920  0.01990  0.46250  Biso   1.000  N
  N24      1.0000 0.17468  0.38350  0.57270  Biso   1.000  N
  O43      1.0000 0.32619  0.23510  0.48380  Biso   1.000  O
  O44      1.0000 0.23937  0.22050  0.45320  Biso   1.000  O
  O45      1.0000 0.15180  0.16640  0.18210  Biso   1.000  O
  O46      1.0000 0.22980  0.09790  0.21130  Biso   1.000  O
  O47      1.0000 0.22630  0.86810  0.30480  Biso   1.000  O
  O48      1.0000 0.21548  0.99280  0.52420  Biso   1.000  O
  C127     1.0000 0.31930  0.90170  0.30680  Biso   1.000  C
  H78      1.0000 0.32590  0.83590  0.28060  Biso   1.000  H
  C128     1.0000 0.36090  0.96700  0.32660  Biso   1.000  C
  H79      1.0000 0.39600  0.94820  0.31010  Biso   1.000  H
  C129     1.0000 0.35210  0.06410  0.37210  Biso   1.000  C
  H80      1.0000 0.38110  0.10760  0.38830  Biso   1.000  H
  C130     1.0000 0.29970  0.09220  0.39170  Biso   1.000  C
  C131     1.0000 0.25720  0.02480  0.36650  Biso   1.000  C
  C132     1.0000 0.19870  0.04520  0.38230  Biso   1.000  C
  C133     1.0000 0.16210  0.08380  0.32050  Biso   1.000  C
  C134     1.0000 0.10810  0.09540  0.34270  Biso   1.000  C
  H81      1.0000 0.08370  0.12310  0.30250  Biso   1.000  H
  C135     1.0000 0.09010  0.06590  0.42440  Biso   1.000  C
  H82      1.0000 0.05350  0.07120  0.43870  Biso   1.000  H
  C136     1.0000 0.12710  0.02890  0.48410  Biso   1.000  C
  H83      1.0000 0.11570  0.01010  0.53950  Biso   1.000  H
  C137     1.0000 0.28720  0.19140  0.44490  Biso   1.000  C
  C138     1.0000 0.18300  0.11720  0.23080  Biso   1.000  C
  C139     1.0000 0.13660  0.32390  0.53420  Biso   1.000  C
  H84      1.0000 0.14550  0.25500  0.51580  Biso   1.000  H
  C140     1.0000 0.08430  0.36110  0.52080  Biso   1.000  C
  H85      1.0000 0.05850  0.31700  0.49510  Biso   1.000  H
  C141     1.0000 0.07070  0.46440  0.54600  Biso   1.000  C
  C142     1.0000 0.10940  0.52450  0.58530  Biso   1.000  C
  H86      1.0000 0.10160  0.59380  0.60360  Biso   1.000  H
  C143     1.0000 0.16000  0.48210  0.59780  Biso   1.000  C
  H87      1.0000 0.18590  0.52450  0.62540  Biso   1.000  H
  C144     1.0000 0.01660  0.51600  0.52520  Biso   1.000  C
  H88      1.0000 0.00830  0.57900  0.55460  Biso   1.000  H
