data_image0
_cell_length_a       24.542
_cell_length_b       12.641
_cell_length_c       15.446
_cell_angle_alpha    90
_cell_angle_beta     90
_cell_angle_gamma    90

_symmetry_space_group_name_H-M    "P 1"
_symmetry_int_tables_number       1

loop_
  _symmetry_equiv_pos_as_xyz
  'x, y, z'

loop_
  _atom_site_label
  _atom_site_occupancy
  _atom_site_fract_x
  _atom_site_fract_y
  _atom_site_fract_z
  _atom_site_thermal_displace_type
  _atom_site_B_iso_or_equiv
  _atom_site_type_symbol
  C1       1.0000 0.62560  0.53540  0.02630  Biso   1.000  C
  H1       1.0000 0.61280  0.51720  0.97170  Biso   1.000  H
  C2       1.0000 0.59080  0.57570  0.08650  Biso   1.000  C
  H2       1.0000 0.55420  0.58540  0.07320  Biso   1.000  H
  C3       1.0000 0.61060  0.60220  0.16810  Biso   1.000  C
  H3       1.0000 0.58710  0.63090  0.20910  Biso   1.000  H
  C4       1.0000 0.66410  0.58680  0.18890  Biso   1.000  C
  C5       1.0000 0.69850  0.54560  0.12630  Biso   1.000  C
  C6       1.0000 0.75770  0.52420  0.13920  Biso   1.000  C
  C7       1.0000 0.80060  0.58840  0.11280  Biso   1.000  C
  C8       1.0000 0.85290  0.55740  0.13010  Biso   1.000  C
  H4       1.0000 0.88220  0.59900  0.11230  Biso   1.000  H
  C9       1.0000 0.86210  0.46240  0.17490  Biso   1.000  C
  H5       1.0000 0.89740  0.44240  0.18930  Biso   1.000  H
  C10      1.0000 0.81960  0.40000  0.19710  Biso   1.000  C
  H6       1.0000 0.82580  0.33560  0.22440  Biso   1.000  H
  C11      1.0000 0.68520  0.61800  0.27750  Biso   1.000  C
  C12      1.0000 0.78800  0.68720  0.06040  Biso   1.000  C
  C13      1.0000 0.84300  0.52290  0.41120  Biso   1.000  C
  H7       1.0000 0.81720  0.47660  0.38840  Biso   1.000  H
  C14      1.0000 0.89620  0.49030  0.41220  Biso   1.000  C
  H8       1.0000 0.90580  0.42520  0.38870  Biso   1.000  H
  C15      1.0000 0.93490  0.55410  0.44790  Biso   1.000  C
  C16      1.0000 0.91790  0.65210  0.47860  Biso   1.000  C
  H9       1.0000 0.94290  0.69990  0.50110  Biso   1.000  H
  C17      1.0000 0.86300  0.67720  0.47530  Biso   1.000  C
  H10      1.0000 0.85180  0.74120  0.49910  Biso   1.000  H
  C18      1.0000 0.99360  0.52350  0.45460  Biso   1.000  C
  H11      1.0000 0.01620  0.58520  0.44470  Biso   1.000  H
  H12      1.0000 0.00210  0.47160  0.41040  Biso   1.000  H
  Cd1      1.0000 0.73548  0.67365  0.43249  Biso   1.000  Cd
  N1       1.0000 0.82540  0.61510  0.44010  Biso   1.000  N
  N2       1.0000 0.76790  0.43100  0.17980  Biso   1.000  N
  N3       1.0000 0.67800  0.52220  0.04570  Biso   1.000  N
  O1       1.0000 0.73300  0.59210  0.29640  Biso   1.000  O
  O2       1.0000 0.65580  0.66870  0.32650  Biso   1.000  O
  O3       1.0000 0.82731  0.73070  0.02050  Biso   1.000  O
  O4       1.0000 0.73989  0.71850  0.05510  Biso   1.000  O
  O5       1.0000 0.71210  0.49270  0.98430  Biso   1.000  O
  O6       1.0000 0.72660  0.37090  0.20370  Biso   1.000  O
  C19      1.0000 0.87440  0.96460  0.52630  Biso   1.000  C
  H13      1.0000 0.88720  0.98280  0.47170  Biso   1.000  H
  C20      1.0000 0.90920  0.92430  0.58650  Biso   1.000  C
  H14      1.0000 0.94580  0.91460  0.57320  Biso   1.000  H
  C21      1.0000 0.88940  0.89780  0.66810  Biso   1.000  C
  H15      1.0000 0.91290  0.86910  0.70910  Biso   1.000  H
  C22      1.0000 0.83590  0.91320  0.68890  Biso   1.000  C
  C23      1.0000 0.80150  0.95440  0.62630  Biso   1.000  C
  C24      1.0000 0.74230  0.97580  0.63920  Biso   1.000  C
  C25      1.0000 0.69940  0.91160  0.61280  Biso   1.000  C
  C26      1.0000 0.64710  0.94260  0.63010  Biso   1.000  C
  H16      1.0000 0.61780  0.90100  0.61230  Biso   1.000  H
  C27      1.0000 0.63790  0.03760  0.67490  Biso   1.000  C
  H17      1.0000 0.60260  0.05760  0.68930  Biso   1.000  H
  C28      1.0000 0.68040  0.10000  0.69710  Biso   1.000  C
  H18      1.0000 0.67420  0.16440  0.72440  Biso   1.000  H
  C29      1.0000 0.81480  0.88200  0.77750  Biso   1.000  C
  C30      1.0000 0.71200  0.81280  0.56040  Biso   1.000  C
  C31      1.0000 0.65700  0.97710  0.91120  Biso   1.000  C
  H19      1.0000 0.68280  0.02340  0.88840  Biso   1.000  H
  C32      1.0000 0.60380  0.00970  0.91220  Biso   1.000  C
  H20      1.0000 0.59420  0.07480  0.88870  Biso   1.000  H
  C33      1.0000 0.56510  0.94590  0.94790  Biso   1.000  C
  C34      1.0000 0.58210  0.84790  0.97860  Biso   1.000  C
  H21      1.0000 0.55710  0.80010  0.00110  Biso   1.000  H
  C35      1.0000 0.63700  0.82280  0.97530  Biso   1.000  C
  H22      1.0000 0.64820  0.75880  0.99910  Biso   1.000  H
  C36      1.0000 0.50640  0.97650  0.95460  Biso   1.000  C
  H23      1.0000 0.48380  0.91480  0.94470  Biso   1.000  H
  H24      1.0000 0.49790  0.02840  0.91040  Biso   1.000  H
  Cd2      1.0000 0.76452  0.82635  0.93249  Biso   1.000  Cd
  N4       1.0000 0.67460  0.88490  0.94010  Biso   1.000  N
  N5       1.0000 0.73210  0.06900  0.67980  Biso   1.000  N
  N6       1.0000 0.82200  0.97780  0.54570  Biso   1.000  N
  O7       1.0000 0.76700  0.90790  0.79640  Biso   1.000  O
  O8       1.0000 0.84420  0.83130  0.82650  Biso   1.000  O
  O9       1.0000 0.67269  0.76930  0.52050  Biso   1.000  O
  O10      1.0000 0.76011  0.78150  0.55510  Biso   1.000  O
  O11      1.0000 0.78790  0.00730  0.48430  Biso   1.000  O
  O12      1.0000 0.77340  0.12910  0.70370  Biso   1.000  O
  C37      1.0000 0.37440  0.53540  0.47370  Biso   1.000  C
  H25      1.0000 0.38720  0.51720  0.52830  Biso   1.000  H
  C38      1.0000 0.40920  0.57570  0.41350  Biso   1.000  C
  H26      1.0000 0.44580  0.58540  0.42680  Biso   1.000  H
  C39      1.0000 0.38940  0.60220  0.33190  Biso   1.000  C
  H27      1.0000 0.41290  0.63090  0.29090  Biso   1.000  H
  C40      1.0000 0.33590  0.58680  0.31110  Biso   1.000  C
  C41      1.0000 0.30150  0.54560  0.37370  Biso   1.000  C
  C42      1.0000 0.24230  0.52420  0.36080  Biso   1.000  C
  C43      1.0000 0.19940  0.58840  0.38720  Biso   1.000  C
  C44      1.0000 0.14710  0.55740  0.36990  Biso   1.000  C
  H28      1.0000 0.11780  0.59900  0.38770  Biso   1.000  H
  C45      1.0000 0.13790  0.46240  0.32510  Biso   1.000  C
  H29      1.0000 0.10260  0.44240  0.31070  Biso   1.000  H
  C46      1.0000 0.18040  0.40000  0.30290  Biso   1.000  C
  H30      1.0000 0.17420  0.33560  0.27560  Biso   1.000  H
  C47      1.0000 0.31480  0.61800  0.22250  Biso   1.000  C
  C48      1.0000 0.21200  0.68720  0.43960  Biso   1.000  C
  C49      1.0000 0.15700  0.52290  0.08880  Biso   1.000  C
  H31      1.0000 0.18280  0.47660  0.11160  Biso   1.000  H
  C50      1.0000 0.10380  0.49030  0.08780  Biso   1.000  C
  H32      1.0000 0.09420  0.42520  0.11130  Biso   1.000  H
  C51      1.0000 0.06510  0.55410  0.05210  Biso   1.000  C
  C52      1.0000 0.08210  0.65210  0.02140  Biso   1.000  C
  H33      1.0000 0.05710  0.69990  0.99890  Biso   1.000  H
  C53      1.0000 0.13700  0.67720  0.02470  Biso   1.000  C
  H34      1.0000 0.14820  0.74120  0.00090  Biso   1.000  H
  C54      1.0000 0.00640  0.52350  0.04540  Biso   1.000  C
  H35      1.0000 0.98380  0.58520  0.05530  Biso   1.000  H
  H36      1.0000 0.99790  0.47160  0.08960  Biso   1.000  H
  Cd3      1.0000 0.26452  0.67365  0.06751  Biso   1.000  Cd
  N7       1.0000 0.17460  0.61510  0.05990  Biso   1.000  N
  N8       1.0000 0.23210  0.43100  0.32020  Biso   1.000  N
  N9       1.0000 0.32200  0.52220  0.45430  Biso   1.000  N
  O13      1.0000 0.26700  0.59210  0.20360  Biso   1.000  O
  O14      1.0000 0.34420  0.66870  0.17350  Biso   1.000  O
  O15      1.0000 0.17269  0.73070  0.47950  Biso   1.000  O
  O16      1.0000 0.26011  0.71850  0.44490  Biso   1.000  O
  O17      1.0000 0.28790  0.49270  0.51570  Biso   1.000  O
  O18      1.0000 0.27340  0.37090  0.29630  Biso   1.000  O
  C55      1.0000 0.12560  0.96460  0.97370  Biso   1.000  C
  H37      1.0000 0.11280  0.98280  0.02830  Biso   1.000  H
  C56      1.0000 0.09080  0.92430  0.91350  Biso   1.000  C
  H38      1.0000 0.05420  0.91460  0.92680  Biso   1.000  H
  C57      1.0000 0.11060  0.89780  0.83190  Biso   1.000  C
  H39      1.0000 0.08710  0.86910  0.79090  Biso   1.000  H
  C58      1.0000 0.16410  0.91320  0.81110  Biso   1.000  C
  C59      1.0000 0.19850  0.95440  0.87370  Biso   1.000  C
  C60      1.0000 0.25770  0.97580  0.86080  Biso   1.000  C
  C61      1.0000 0.30060  0.91160  0.88720  Biso   1.000  C
  C62      1.0000 0.35290  0.94260  0.86990  Biso   1.000  C
  H40      1.0000 0.38220  0.90100  0.88770  Biso   1.000  H
  C63      1.0000 0.36210  0.03760  0.82510  Biso   1.000  C
  H41      1.0000 0.39740  0.05760  0.81070  Biso   1.000  H
  C64      1.0000 0.31960  0.10000  0.80290  Biso   1.000  C
  H42      1.0000 0.32580  0.16440  0.77560  Biso   1.000  H
  C65      1.0000 0.18520  0.88200  0.72250  Biso   1.000  C
  C66      1.0000 0.28800  0.81280  0.93960  Biso   1.000  C
  C67      1.0000 0.34300  0.97710  0.58880  Biso   1.000  C
  H43      1.0000 0.31720  0.02340  0.61160  Biso   1.000  H
  C68      1.0000 0.39620  0.00970  0.58780  Biso   1.000  C
  H44      1.0000 0.40580  0.07480  0.61130  Biso   1.000  H
  C69      1.0000 0.43490  0.94590  0.55210  Biso   1.000  C
  C70      1.0000 0.41790  0.84790  0.52140  Biso   1.000  C
  H45      1.0000 0.44290  0.80010  0.49890  Biso   1.000  H
  C71      1.0000 0.36300  0.82280  0.52470  Biso   1.000  C
  H46      1.0000 0.35180  0.75880  0.50090  Biso   1.000  H
  C72      1.0000 0.49360  0.97650  0.54540  Biso   1.000  C
  H47      1.0000 0.51620  0.91480  0.55530  Biso   1.000  H
  H48      1.0000 0.50210  0.02840  0.58960  Biso   1.000  H
  Cd4      1.0000 0.23548  0.82635  0.56751  Biso   1.000  Cd
  N10      1.0000 0.32540  0.88490  0.55990  Biso   1.000  N
  N11      1.0000 0.26790  0.06900  0.82020  Biso   1.000  N
  N12      1.0000 0.17800  0.97780  0.95430  Biso   1.000  N
  O19      1.0000 0.23300  0.90790  0.70360  Biso   1.000  O
  O20      1.0000 0.15580  0.83130  0.67350  Biso   1.000  O
  O21      1.0000 0.32731  0.76930  0.97950  Biso   1.000  O
  O22      1.0000 0.23989  0.78150  0.94490  Biso   1.000  O
  O23      1.0000 0.21210  0.00730  0.01570  Biso   1.000  O
  O24      1.0000 0.22660  0.12910  0.79630  Biso   1.000  O
  C73      1.0000 0.37440  0.46460  0.97370  Biso   1.000  C
  H49      1.0000 0.38720  0.48280  0.02830  Biso   1.000  H
  C74      1.0000 0.40920  0.42430  0.91350  Biso   1.000  C
  H50      1.0000 0.44580  0.41460  0.92680  Biso   1.000  H
  C75      1.0000 0.38940  0.39780  0.83190  Biso   1.000  C
  H51      1.0000 0.41290  0.36910  0.79090  Biso   1.000  H
  C76      1.0000 0.33590  0.41320  0.81110  Biso   1.000  C
  C77      1.0000 0.30150  0.45440  0.87370  Biso   1.000  C
  C78      1.0000 0.24230  0.47580  0.86080  Biso   1.000  C
  C79      1.0000 0.19940  0.41160  0.88720  Biso   1.000  C
  C80      1.0000 0.14710  0.44260  0.86990  Biso   1.000  C
  H52      1.0000 0.11780  0.40100  0.88770  Biso   1.000  H
  C81      1.0000 0.13790  0.53760  0.82510  Biso   1.000  C
  H53      1.0000 0.10260  0.55760  0.81070  Biso   1.000  H
  C82      1.0000 0.18040  0.60000  0.80290  Biso   1.000  C
  H54      1.0000 0.17420  0.66440  0.77560  Biso   1.000  H
  C83      1.0000 0.31480  0.38200  0.72250  Biso   1.000  C
  C84      1.0000 0.21200  0.31280  0.93960  Biso   1.000  C
  C85      1.0000 0.15700  0.47710  0.58880  Biso   1.000  C
  H55      1.0000 0.18280  0.52340  0.61160  Biso   1.000  H
  C86      1.0000 0.10380  0.50970  0.58780  Biso   1.000  C
  H56      1.0000 0.09420  0.57480  0.61130  Biso   1.000  H
  C87      1.0000 0.06510  0.44590  0.55210  Biso   1.000  C
  C88      1.0000 0.08210  0.34790  0.52140  Biso   1.000  C
  H57      1.0000 0.05710  0.30010  0.49890  Biso   1.000  H
  C89      1.0000 0.13700  0.32280  0.52470  Biso   1.000  C
  H58      1.0000 0.14820  0.25880  0.50090  Biso   1.000  H
  C90      1.0000 0.00640  0.47650  0.54540  Biso   1.000  C
  H59      1.0000 0.98380  0.41480  0.55530  Biso   1.000  H
  H60      1.0000 0.99790  0.52840  0.58960  Biso   1.000  H
  Cd5      1.0000 0.26452  0.32635  0.56751  Biso   1.000  Cd
  N13      1.0000 0.17460  0.38490  0.55990  Biso   1.000  N
  N14      1.0000 0.23210  0.56900  0.82020  Biso   1.000  N
  N15      1.0000 0.32200  0.47780  0.95430  Biso   1.000  N
  O25      1.0000 0.26700  0.40790  0.70360  Biso   1.000  O
  O26      1.0000 0.34420  0.33130  0.67350  Biso   1.000  O
  O27      1.0000 0.17269  0.26930  0.97950  Biso   1.000  O
  O28      1.0000 0.26011  0.28150  0.94490  Biso   1.000  O
  O29      1.0000 0.28790  0.50730  0.01570  Biso   1.000  O
  O30      1.0000 0.27340  0.62910  0.79630  Biso   1.000  O
  C91      1.0000 0.12560  0.03540  0.47370  Biso   1.000  C
  H61      1.0000 0.11280  0.01720  0.52830  Biso   1.000  H
  C92      1.0000 0.09080  0.07570  0.41350  Biso   1.000  C
  H62      1.0000 0.05420  0.08540  0.42680  Biso   1.000  H
  C93      1.0000 0.11060  0.10220  0.33190  Biso   1.000  C
  H63      1.0000 0.08710  0.13090  0.29090  Biso   1.000  H
  C94      1.0000 0.16410  0.08680  0.31110  Biso   1.000  C
  C95      1.0000 0.19850  0.04560  0.37370  Biso   1.000  C
  C96      1.0000 0.25770  0.02420  0.36080  Biso   1.000  C
  C97      1.0000 0.30060  0.08840  0.38720  Biso   1.000  C
  C98      1.0000 0.35290  0.05740  0.36990  Biso   1.000  C
  H64      1.0000 0.38220  0.09900  0.38770  Biso   1.000  H
  C99      1.0000 0.36210  0.96240  0.32510  Biso   1.000  C
  H65      1.0000 0.39740  0.94240  0.31070  Biso   1.000  H
  C100     1.0000 0.31960  0.90000  0.30290  Biso   1.000  C
  H66      1.0000 0.32580  0.83560  0.27560  Biso   1.000  H
  C101     1.0000 0.18520  0.11800  0.22250  Biso   1.000  C
  C102     1.0000 0.28800  0.18720  0.43960  Biso   1.000  C
  C103     1.0000 0.34300  0.02290  0.08880  Biso   1.000  C
  H67      1.0000 0.31720  0.97660  0.11160  Biso   1.000  H
  C104     1.0000 0.39620  0.99030  0.08780  Biso   1.000  C
  H68      1.0000 0.40580  0.92520  0.11130  Biso   1.000  H
  C105     1.0000 0.43490  0.05410  0.05210  Biso   1.000  C
  C106     1.0000 0.41790  0.15210  0.02140  Biso   1.000  C
  H69      1.0000 0.44290  0.19990  0.99890  Biso   1.000  H
  C107     1.0000 0.36300  0.17720  0.02470  Biso   1.000  C
  H70      1.0000 0.35180  0.24120  0.00090  Biso   1.000  H
  C108     1.0000 0.49360  0.02350  0.04540  Biso   1.000  C
  H71      1.0000 0.51620  0.08520  0.05530  Biso   1.000  H
  H72      1.0000 0.50210  0.97160  0.08960  Biso   1.000  H
  Cd6      1.0000 0.23548  0.17365  0.06751  Biso   1.000  Cd
  N16      1.0000 0.32540  0.11510  0.05990  Biso   1.000  N
  N17      1.0000 0.26790  0.93100  0.32020  Biso   1.000  N
  N18      1.0000 0.17800  0.02220  0.45430  Biso   1.000  N
  O31      1.0000 0.23300  0.09210  0.20360  Biso   1.000  O
  O32      1.0000 0.15580  0.16870  0.17350  Biso   1.000  O
  O33      1.0000 0.32731  0.23070  0.47950  Biso   1.000  O
  O34      1.0000 0.23989  0.21850  0.44490  Biso   1.000  O
  O35      1.0000 0.21210  0.99270  0.51570  Biso   1.000  O
  O36      1.0000 0.22660  0.87090  0.29630  Biso   1.000  O
  C109     1.0000 0.62560  0.46460  0.52630  Biso   1.000  C
  H73      1.0000 0.61280  0.48280  0.47170  Biso   1.000  H
  C110     1.0000 0.59080  0.42430  0.58650  Biso   1.000  C
  H74      1.0000 0.55420  0.41460  0.57320  Biso   1.000  H
  C111     1.0000 0.61060  0.39780  0.66810  Biso   1.000  C
  H75      1.0000 0.58710  0.36910  0.70910  Biso   1.000  H
  C112     1.0000 0.66410  0.41320  0.68890  Biso   1.000  C
  C113     1.0000 0.69850  0.45440  0.62630  Biso   1.000  C
  C114     1.0000 0.75770  0.47580  0.63920  Biso   1.000  C
  C115     1.0000 0.80060  0.41160  0.61280  Biso   1.000  C
  C116     1.0000 0.85290  0.44260  0.63010  Biso   1.000  C
  H76      1.0000 0.88220  0.40100  0.61230  Biso   1.000  H
  C117     1.0000 0.86210  0.53760  0.67490  Biso   1.000  C
  H77      1.0000 0.89740  0.55760  0.68930  Biso   1.000  H
  C118     1.0000 0.81960  0.60000  0.69710  Biso   1.000  C
  H78      1.0000 0.82580  0.66440  0.72440  Biso   1.000  H
  C119     1.0000 0.68520  0.38200  0.77750  Biso   1.000  C
  C120     1.0000 0.78800  0.31280  0.56040  Biso   1.000  C
  C121     1.0000 0.84300  0.47710  0.91120  Biso   1.000  C
  H79      1.0000 0.81720  0.52340  0.88840  Biso   1.000  H
  C122     1.0000 0.89620  0.50970  0.91220  Biso   1.000  C
  H80      1.0000 0.90580  0.57480  0.88870  Biso   1.000  H
  C123     1.0000 0.93490  0.44590  0.94790  Biso   1.000  C
  C124     1.0000 0.91790  0.34790  0.97860  Biso   1.000  C
  H81      1.0000 0.94290  0.30010  0.00110  Biso   1.000  H
  C125     1.0000 0.86300  0.32280  0.97530  Biso   1.000  C
  H82      1.0000 0.85180  0.25880  0.99910  Biso   1.000  H
  C126     1.0000 0.99360  0.47650  0.95460  Biso   1.000  C
  H83      1.0000 0.01620  0.41480  0.94470  Biso   1.000  H
  H84      1.0000 0.00210  0.52840  0.91040  Biso   1.000  H
  Cd7      1.0000 0.73548  0.32635  0.93249  Biso   1.000  Cd
  N19      1.0000 0.82540  0.38490  0.94010  Biso   1.000  N
  N20      1.0000 0.76790  0.56900  0.67980  Biso   1.000  N
  N21      1.0000 0.67800  0.47780  0.54570  Biso   1.000  N
  O37      1.0000 0.73300  0.40790  0.79640  Biso   1.000  O
  O38      1.0000 0.65580  0.33130  0.82650  Biso   1.000  O
  O39      1.0000 0.82731  0.26930  0.52050  Biso   1.000  O
  O40      1.0000 0.73989  0.28150  0.55510  Biso   1.000  O
  O41      1.0000 0.71210  0.50730  0.48430  Biso   1.000  O
  O42      1.0000 0.72660  0.62910  0.70370  Biso   1.000  O
  C127     1.0000 0.87440  0.03540  0.02630  Biso   1.000  C
  H85      1.0000 0.88720  0.01720  0.97170  Biso   1.000  H
  C128     1.0000 0.90920  0.07570  0.08650  Biso   1.000  C
  H86      1.0000 0.94580  0.08540  0.07320  Biso   1.000  H
  C129     1.0000 0.88940  0.10220  0.16810  Biso   1.000  C
  H87      1.0000 0.91290  0.13090  0.20910  Biso   1.000  H
  C130     1.0000 0.83590  0.08680  0.18890  Biso   1.000  C
  C131     1.0000 0.80150  0.04560  0.12630  Biso   1.000  C
  C132     1.0000 0.74230  0.02420  0.13920  Biso   1.000  C
  C133     1.0000 0.69940  0.08840  0.11280  Biso   1.000  C
  C134     1.0000 0.64710  0.05740  0.13010  Biso   1.000  C
  H88      1.0000 0.61780  0.09900  0.11230  Biso   1.000  H
  C135     1.0000 0.63790  0.96240  0.17490  Biso   1.000  C
  H89      1.0000 0.60260  0.94240  0.18930  Biso   1.000  H
  C136     1.0000 0.68040  0.90000  0.19710  Biso   1.000  C
  H90      1.0000 0.67420  0.83560  0.22440  Biso   1.000  H
  C137     1.0000 0.81480  0.11800  0.27750  Biso   1.000  C
  C138     1.0000 0.71200  0.18720  0.06040  Biso   1.000  C
  C139     1.0000 0.65700  0.02290  0.41120  Biso   1.000  C
  H91      1.0000 0.68280  0.97660  0.38840  Biso   1.000  H
  C140     1.0000 0.60380  0.99030  0.41220  Biso   1.000  C
  H92      1.0000 0.59420  0.92520  0.38870  Biso   1.000  H
  C141     1.0000 0.56510  0.05410  0.44790  Biso   1.000  C
  C142     1.0000 0.58210  0.15210  0.47860  Biso   1.000  C
  H93      1.0000 0.55710  0.19990  0.50110  Biso   1.000  H
  C143     1.0000 0.63700  0.17720  0.47530  Biso   1.000  C
  H94      1.0000 0.64820  0.24120  0.49910  Biso   1.000  H
  C144     1.0000 0.50640  0.02350  0.45460  Biso   1.000  C
  H95      1.0000 0.48380  0.08520  0.44470  Biso   1.000  H
  H96      1.0000 0.49790  0.97160  0.41040  Biso   1.000  H
  Cd8      1.0000 0.76452  0.17365  0.43249  Biso   1.000  Cd
  N22      1.0000 0.67460  0.11510  0.44010  Biso   1.000  N
  N23      1.0000 0.73210  0.93100  0.17980  Biso   1.000  N
  N24      1.0000 0.82200  0.02220  0.04570  Biso   1.000  N
  O43      1.0000 0.76700  0.09210  0.29640  Biso   1.000  O
  O44      1.0000 0.84420  0.16870  0.32650  Biso   1.000  O
  O45      1.0000 0.67269  0.23070  0.02050  Biso   1.000  O
  O46      1.0000 0.76011  0.21850  0.05510  Biso   1.000  O
  O47      1.0000 0.78790  0.99270  0.98430  Biso   1.000  O
  O48      1.0000 0.77340  0.87090  0.20370  Biso   1.000  O
