data_FOWTOC_clean
_audit_creation_date              2015-10-16
_audit_creation_method            'Materials Studio'
_symmetry_space_group_name_H-M    'P1'
_symmetry_Int_Tables_number       1
_symmetry_cell_setting            triclinic
loop_
_symmetry_equiv_pos_as_xyz
  x,y,z
_cell_length_a                    16.4374
_cell_length_b                    18.1041
_cell_length_c                    18.1041
_cell_angle_alpha                 90.0000
_cell_angle_beta                  90.0000
_cell_angle_gamma                 90.0000
loop_
_atom_site_label
_atom_site_type_symbol
_atom_site_fract_x
_atom_site_fract_y
_atom_site_fract_z
_atom_site_U_iso_or_equiv
_atom_site_adp_type
_atom_site_occupancy
Nd1    Nd    0.00000   0.78336   0.78336   0.01267  Uiso   1.00
Nd2    Nd    0.25000   0.71664   0.28336   0.01267  Uiso   1.00
Nd3    Nd    0.50000   0.21664   0.21664   0.01267  Uiso   1.00
Nd4    Nd    0.75000   0.28336   0.71664   0.01267  Uiso   1.00
H1     H     0.17060   0.03660   0.51330   0.01267  Uiso   1.00
H2     H     0.02740   0.82140   0.13690   0.01267  Uiso   1.00
H3     H     0.61530   0.13770   0.64280   0.01267  Uiso   1.00
H4     H     0.88970   0.66370   0.58390   0.01267  Uiso   1.00
H5     H     0.00380   0.19430   0.94820   0.01267  Uiso   1.00
H6     H     0.63590   0.34870   0.88380   0.01267  Uiso   1.00
H7     H     0.63910   0.58380   0.13580   0.01267  Uiso   1.00
H8     H     0.38910   0.63580   0.91620   0.01267  Uiso   1.00
H9     H     0.36530   0.14280   0.36230   0.01267  Uiso   1.00
H10    H     0.43860   0.59930   0.02870   0.01267  Uiso   1.00
H11    H     0.47260   0.86310   0.17860   0.01267  Uiso   1.00
H12    H     0.06750   0.70850   0.46730   0.01267  Uiso   1.00
H13    H     0.81980   0.09550   0.95450   0.01267  Uiso   1.00
H14    H     0.56350   0.98260   0.92920   0.01267  Uiso   1.00
H15    H     0.88470   0.35720   0.86230   0.01267  Uiso   1.00
H16    H     0.65070   0.38850   0.48590   0.01267  Uiso   1.00
H17    H     0.52740   0.17860   0.86310   0.01267  Uiso   1.00
H18    H     0.61410   0.15130   0.38380   0.01267  Uiso   1.00
H19    H     0.40840   0.11500   0.88650   0.01267  Uiso   1.00
H20    H     0.21280   0.38890   0.21470   0.01267  Uiso   1.00
H21    H     0.04810   0.14510   0.00720   0.01267  Uiso   1.00
H22    H     0.11410   0.84870   0.61620   0.01267  Uiso   1.00
H23    H     0.77740   0.63690   0.67860   0.01267  Uiso   1.00
H24    H     0.45190   0.99280   0.85490   0.01267  Uiso   1.00
H25    H     0.82870   0.51960   0.90930   0.01267  Uiso   1.00
H26    H     0.11530   0.86230   0.35720   0.01267  Uiso   1.00
H27    H     0.86090   0.86420   0.41620   0.01267  Uiso   1.00
H28    H     0.28720   0.78530   0.61110   0.01267  Uiso   1.00
H29    H     0.65840   0.61350   0.61500   0.01267  Uiso   1.00
H30    H     0.75380   0.44820   0.30570   0.01267  Uiso   1.00
H31    H     0.92060   0.01330   0.46340   0.01267  Uiso   1.00
H32    H     0.55260   0.95520   0.07550   0.01267  Uiso   1.00
H33    H     0.31980   0.90450   0.04550   0.01267  Uiso   1.00
H34    H     0.71280   0.61110   0.78530   0.01267  Uiso   1.00
H35    H     0.21650   0.09000   0.28480   0.01267  Uiso   1.00
H36    H     0.13970   0.91610   0.16370   0.01267  Uiso   1.00
H37    H     0.57940   0.53660   0.98670   0.01267  Uiso   1.00
H38    H     0.67130   0.09070   0.48040   0.01267  Uiso   1.00
H39    H     0.24620   0.30570   0.44820   0.01267  Uiso   1.00
H40    H     0.11030   0.58390   0.66370   0.01267  Uiso   1.00
H41    H     0.72260   0.32140   0.36310   0.01267  Uiso   1.00
H42    H     0.85580   0.10080   0.39810   0.01267  Uiso   1.00
H43    H     0.16080   0.46780   0.65300   0.01267  Uiso   1.00
H44    H     0.19740   0.45520   0.42450   0.01267  Uiso   1.00
H45    H     0.09160   0.11350   0.88500   0.01267  Uiso   1.00
H46    H     0.39420   0.39920   0.89810   0.01267  Uiso   1.00
H47    H     0.81140   0.90070   0.52870   0.01267  Uiso   1.00
H48    H     0.13910   0.41620   0.86420   0.01267  Uiso   1.00
H49    H     0.07940   0.46340   0.01330   0.01267  Uiso   1.00
H50    H     0.82940   0.51330   0.03660   0.01267  Uiso   1.00
H51    H     0.41080   0.84700   0.96780   0.01267  Uiso   1.00
H52    H     0.96280   0.71470   0.11110   0.01267  Uiso   1.00
H53    H     0.06140   0.97130   0.40070   0.01267  Uiso   1.00
H54    H     0.79810   0.50720   0.35490   0.01267  Uiso   1.00
H55    H     0.71650   0.91000   0.71520   0.01267  Uiso   1.00
H56    H     0.15070   0.61150   0.51410   0.01267  Uiso   1.00
H57    H     0.84930   0.51410   0.61150   0.01267  Uiso   1.00
H58    H     0.13470   0.63770   0.85720   0.01267  Uiso   1.00
H59    H     0.61030   0.41610   0.33630   0.01267  Uiso   1.00
H60    H     0.18250   0.79150   0.96730   0.01267  Uiso   1.00
H61    H     0.95190   0.00720   0.14510   0.01267  Uiso   1.00
H62    H     0.27740   0.36310   0.32140   0.01267  Uiso   1.00
H63    H     0.59160   0.88650   0.11500   0.01267  Uiso   1.00
H64    H     0.05260   0.04480   0.92450   0.01267  Uiso   1.00
H65    H     0.83920   0.65300   0.46780   0.01267  Uiso   1.00
H66    H     0.68250   0.20850   0.03270   0.01267  Uiso   1.00
H67    H     0.33920   0.34700   0.53220   0.01267  Uiso   1.00
H68    H     0.32940   0.48670   0.96340   0.01267  Uiso   1.00
H69    H     0.68020   0.04550   0.90450   0.01267  Uiso   1.00
H70    H     0.56140   0.02870   0.59930   0.01267  Uiso   1.00
H71    H     0.25380   0.55180   0.69430   0.01267  Uiso   1.00
H72    H     0.11090   0.08380   0.36420   0.01267  Uiso   1.00
H73    H     0.53720   0.88890   0.28530   0.01267  Uiso   1.00
H74    H     0.38970   0.33630   0.41610   0.01267  Uiso   1.00
H75    H     0.68650   0.51740   0.42920   0.01267  Uiso   1.00
H76    H     0.64420   0.60190   0.89920   0.01267  Uiso   1.00
H77    H     0.29810   0.49280   0.64510   0.01267  Uiso   1.00
H78    H     0.84160   0.38500   0.38650   0.01267  Uiso   1.00
H79    H     0.97260   0.13690   0.82140   0.01267  Uiso   1.00
H80    H     0.10580   0.10190   0.60080   0.01267  Uiso   1.00
H81    H     0.08920   0.03220   0.15300   0.01267  Uiso   1.00
H82    H     0.67060   0.96340   0.48670   0.01267  Uiso   1.00
H83    H     0.06980   0.54550   0.59550   0.01267  Uiso   1.00
H84    H     0.03350   0.41000   0.78480   0.01267  Uiso   1.00
H85    H     0.93650   0.07080   0.01740   0.01267  Uiso   1.00
H86    H     0.38470   0.64280   0.13770   0.01267  Uiso   1.00
H87    H     0.86030   0.16370   0.91610   0.01267  Uiso   1.00
H88    H     0.93020   0.59550   0.54550   0.01267  Uiso   1.00
H89    H     0.49620   0.05180   0.80570   0.01267  Uiso   1.00
H90    H     0.81750   0.96730   0.79150   0.01267  Uiso   1.00
H91    H     0.50380   0.80570   0.05180   0.01267  Uiso   1.00
H92    H     0.88590   0.61620   0.84870   0.01267  Uiso   1.00
H93    H     0.38590   0.38380   0.15130   0.01267  Uiso   1.00
H94    H     0.43250   0.53270   0.29150   0.01267  Uiso   1.00
H95    H     0.56980   0.45450   0.40450   0.01267  Uiso   1.00
H96    H     0.44740   0.07550   0.95520   0.01267  Uiso   1.00
H97    H     0.68860   0.47130   0.09930   0.01267  Uiso   1.00
H98    H     0.42060   0.98670   0.53660   0.01267  Uiso   1.00
H99    H     0.36030   0.83630   0.08390   0.01267  Uiso   1.00
H100   H     0.58920   0.96780   0.84700   0.01267  Uiso   1.00
H101   H     0.60580   0.89810   0.39920   0.01267  Uiso   1.00
H102   H     0.63470   0.36230   0.14280   0.01267  Uiso   1.00
H103   H     0.90070   0.01410   0.88850   0.01267  Uiso   1.00
H104   H     0.63970   0.08390   0.83630   0.01267  Uiso   1.00
H105   H     0.28350   0.71520   0.91000   0.01267  Uiso   1.00
H106   H     0.46280   0.28530   0.88890   0.01267  Uiso   1.00
H107   H     0.36090   0.13580   0.58380   0.01267  Uiso   1.00
H108   H     0.07870   0.59070   0.01960   0.01267  Uiso   1.00
H109   H     0.31350   0.42920   0.51740   0.01267  Uiso   1.00
H110   H     0.93250   0.46730   0.70850   0.01267  Uiso   1.00
H111   H     0.31750   0.03270   0.20850   0.01267  Uiso   1.00
H112   H     0.88910   0.36420   0.08380   0.01267  Uiso   1.00
H113   H     0.34930   0.48590   0.38850   0.01267  Uiso   1.00
H114   H     0.43650   0.92920   0.98260   0.01267  Uiso   1.00
H115   H     0.78350   0.28480   0.09000   0.01267  Uiso   1.00
H116   H     0.14420   0.39810   0.10080   0.01267  Uiso   1.00
H117   H     0.81350   0.57080   0.48260   0.01267  Uiso   1.00
H118   H     0.43020   0.40450   0.45450   0.01267  Uiso   1.00
H119   H     0.66080   0.53220   0.34700   0.01267  Uiso   1.00
H120   H     0.59930   0.11150   0.98590   0.01267  Uiso   1.00
H121   H     0.22260   0.67860   0.63690   0.01267  Uiso   1.00
H122   H     0.53350   0.59000   0.21520   0.01267  Uiso   1.00
H123   H     0.54810   0.85490   0.99280   0.01267  Uiso   1.00
H124   H     0.96650   0.78480   0.41000   0.01267  Uiso   1.00
H125   H     0.18860   0.52870   0.90070   0.01267  Uiso   1.00
H126   H     0.61090   0.91620   0.63580   0.01267  Uiso   1.00
H127   H     0.30260   0.57550   0.54480   0.01267  Uiso   1.00
H128   H     0.89420   0.60080   0.10190   0.01267  Uiso   1.00
H129   H     0.94740   0.92450   0.04480   0.01267  Uiso   1.00
H130   H     0.42130   0.98040   0.40930   0.01267  Uiso   1.00
H131   H     0.34160   0.61500   0.61350   0.01267  Uiso   1.00
H132   H     0.86410   0.11620   0.65130   0.01267  Uiso   1.00
H133   H     0.56750   0.29150   0.53270   0.01267  Uiso   1.00
H134   H     0.57870   0.40930   0.98040   0.01267  Uiso   1.00
H135   H     0.32870   0.48040   0.09070   0.01267  Uiso   1.00
H136   H     0.35580   0.89920   0.60190   0.01267  Uiso   1.00
H137   H     0.69740   0.54480   0.57550   0.01267  Uiso   1.00
H138   H     0.78720   0.21470   0.38890   0.01267  Uiso   1.00
H139   H     0.06350   0.01740   0.07080   0.01267  Uiso   1.00
H140   H     0.91080   0.15300   0.03220   0.01267  Uiso   1.00
H141   H     0.46650   0.21520   0.59000   0.01267  Uiso   1.00
H142   H     0.92130   0.01960   0.59070   0.01267  Uiso   1.00
H143   H     0.90840   0.88500   0.11350   0.01267  Uiso   1.00
H144   H     0.40070   0.98590   0.11150   0.01267  Uiso   1.00
H145   H     0.31140   0.09930   0.47130   0.01267  Uiso   1.00
H146   H     0.74620   0.69430   0.55180   0.01267  Uiso   1.00
H147   H     0.86530   0.85720   0.63770   0.01267  Uiso   1.00
H148   H     0.09930   0.88850   0.01410   0.01267  Uiso   1.00
H149   H     0.18650   0.48260   0.57080   0.01267  Uiso   1.00
H150   H     0.17130   0.90930   0.51960   0.01267  Uiso   1.00
H151   H     0.80260   0.42450   0.45520   0.01267  Uiso   1.00
H152   H     0.15840   0.38650   0.38500   0.01267  Uiso   1.00
H153   H     0.20190   0.35490   0.50720   0.01267  Uiso   1.00
H154   H     0.99620   0.94820   0.19430   0.01267  Uiso   1.00
H155   H     0.70190   0.64510   0.49280   0.01267  Uiso   1.00
H156   H     0.36410   0.88380   0.34870   0.01267  Uiso   1.00
H157   H     0.03720   0.11110   0.71470   0.01267  Uiso   1.00
H158   H     0.13590   0.65130   0.11620   0.01267  Uiso   1.00
H159   H     0.93860   0.40070   0.97130   0.01267  Uiso   1.00
H160   H     0.18020   0.95450   0.09550   0.01267  Uiso   1.00
C1     C     0.35240   0.43480   0.37100   0.01267  Uiso   1.00
C2     C     0.85350   0.55700   0.93640   0.01267  Uiso   1.00
C3     C     0.49080   0.03300   0.85570   0.01267  Uiso   1.00
C4     C     0.87060   0.11440   0.93480   0.01267  Uiso   1.00
C5     C     0.10350   0.56360   0.05700   0.01267  Uiso   1.00
C6     C     0.14760   0.62900   0.56520   0.01267  Uiso   1.00
C7     C     0.77160   0.58770   0.65660   0.01267  Uiso   1.00
C8     C     0.53810   0.93950   0.27670   0.01267  Uiso   1.00
C9     C     0.42680   0.32680   0.06380   0.01267  Uiso   1.00
C10    C     0.92680   0.67320   0.93620   0.01267  Uiso   1.00
C11    C     0.04950   0.72050   0.51450   0.01267  Uiso   1.00
C12    C     0.99080   0.96700   0.14430   0.01267  Uiso   1.00
C13    C     0.89510   0.36790   0.97300   0.01267  Uiso   1.00
C14    C     0.35490   0.13210   0.47300   0.01267  Uiso   1.00
C15    C     0.20870   0.40650   0.40470   0.01267  Uiso   1.00
C16    C     0.63820   0.40000   0.88470   0.01267  Uiso   1.00
C17    C     0.51410   0.47920   0.22750   0.01267  Uiso   1.00
C18    C     0.71190   0.56050   0.77670   0.01267  Uiso   1.00
C19    C     0.85440   0.55260   0.01260   0.01267  Uiso   1.00
C20    C     0.07320   0.93620   0.67320   0.01267  Uiso   1.00
C21    C     0.63760   0.09280   0.65760   0.01267  Uiso   1.00
C22    C     0.10870   0.05080   0.60490   0.01267  Uiso   1.00
C23    C     0.73590   0.02080   0.72750   0.01267  Uiso   1.00
C24    C     0.85870   0.10490   0.44920   0.01267  Uiso   1.00
C25    C     0.96190   0.72330   0.06050   0.01267  Uiso   1.00
C26    C     0.63450   0.95930   0.65360   0.01267  Uiso   1.00
C27    C     0.64510   0.47300   0.13210   0.01267  Uiso   1.00
C28    C     0.94740   0.79980   0.45600   0.01267  Uiso   1.00
C29    C     0.27160   0.41230   0.34340   0.01267  Uiso   1.00
C30    C     0.86550   0.34640   0.04070   0.01267  Uiso   1.00
C31    C     0.54950   0.27950   0.48550   0.01267  Uiso   1.00
C32    C     0.46190   0.27670   0.93950   0.01267  Uiso   1.00
C33    C     0.38450   0.15360   0.54070   0.01267  Uiso   1.00
C34    C     0.22840   0.65660   0.58770   0.01267  Uiso   1.00
C35    C     0.11240   0.59280   0.84240   0.01267  Uiso   1.00
C36    C     0.56970   0.00530   0.88100   0.01267  Uiso   1.00
C37    C     0.70050   0.22050   0.98550   0.01267  Uiso   1.00
C38    C     0.79130   0.40470   0.40650   0.01267  Uiso   1.00
C39    C     0.88820   0.61530   0.90000   0.01267  Uiso   1.00
C40    C     0.85490   0.86790   0.52700   0.01267  Uiso   1.00
C41    C     0.45870   0.09530   0.90650   0.01267  Uiso   1.00
C42    C     0.24080   0.35570   0.46700   0.01267  Uiso   1.00
C43    C     0.26410   0.72750   0.02080   0.01267  Uiso   1.00
C44    C     0.06970   0.99470   0.11900   0.01267  Uiso   1.00
C45    C     0.60440   0.51260   0.94740   0.01267  Uiso   1.00
C46    C     0.05260   0.45600   0.79980   0.01267  Uiso   1.00
C47    C     0.89130   0.60490   0.05080   0.01267  Uiso   1.00
C48    C     0.82320   0.17320   0.56380   0.01267  Uiso   1.00
C49    C     0.60490   0.02700   0.63210   0.01267  Uiso   1.00
C50    C     0.04130   0.09350   0.90470   0.01267  Uiso   1.00
C51    C     0.70460   0.09160   0.70610   0.01267  Uiso   1.00
C52    C     0.35440   0.44740   0.98740   0.01267  Uiso   1.00
C53    C     0.82350   0.16690   0.48410   0.01267  Uiso   1.00
C54    C     0.64130   0.55080   0.89510   0.01267  Uiso   1.00
C55    C     0.36550   0.65360   0.95930   0.01267  Uiso   1.00
C56    C     0.20050   0.77950   0.01450   0.01267  Uiso   1.00
C57    C     0.14560   0.01260   0.55260   0.01267  Uiso   1.00
C58    C     0.87940   0.61440   0.56520   0.01267  Uiso   1.00
C59    C     0.60350   0.43640   0.94300   0.01267  Uiso   1.00
C60    C     0.54540   0.40840   0.20610   0.01267  Uiso   1.00
C61    C     0.10440   0.48740   0.05260   0.01267  Uiso   1.00
C62    C     0.98590   0.77250   0.52080   0.01267  Uiso   1.00
C63    C     0.00920   0.14430   0.96700   0.01267  Uiso   1.00
C64    C     0.39130   0.39510   0.94920   0.01267  Uiso   1.00
C65    C     0.75920   0.46700   0.35570   0.01267  Uiso   1.00
C66    C     0.64760   0.37100   0.43480   0.01267  Uiso   1.00
C67    C     0.12060   0.56520   0.61440   0.01267  Uiso   1.00
C68    C     0.76410   0.27250   0.97920   0.01267  Uiso   1.00
C69    C     0.13450   0.04070   0.34640   0.01267  Uiso   1.00
C70    C     0.18030   0.50530   0.61900   0.01267  Uiso   1.00
C71    C     0.95460   0.79390   0.59160   0.01267  Uiso   1.00
C72    C     0.45460   0.20610   0.40840   0.01267  Uiso   1.00
C73    C     0.38820   0.38470   0.10000   0.01267  Uiso   1.00
C74    C     0.80260   0.29980   0.04400   0.01267  Uiso   1.00
C75    C     0.17680   0.56380   0.17320   0.01267  Uiso   1.00
C76    C     0.85240   0.56520   0.62900   0.01267  Uiso   1.00
C77    C     0.62060   0.43480   0.38560   0.01267  Uiso   1.00
C78    C     0.78810   0.22330   0.43950   0.01267  Uiso   1.00
C79    C     0.89760   0.06520   0.87100   0.01267  Uiso   1.00
C80    C     0.42650   0.33310   0.98410   0.01267  Uiso   1.00
C81    C     0.93030   0.11900   0.99470   0.01267  Uiso   1.00
C82    C     0.95870   0.90470   0.09350   0.01267  Uiso   1.00
C83    C     0.32350   0.83310   0.51590   0.01267  Uiso   1.00
C84    C     0.64650   0.06360   0.44300   0.01267  Uiso   1.00
C85    C     0.02160   0.84340   0.08770   0.01267  Uiso   1.00
C86    C     0.70870   0.59350   0.59530   0.01267  Uiso   1.00
C87    C     0.88760   0.84240   0.59280   0.01267  Uiso   1.00
C88    C     0.57320   0.06380   0.32680   0.01267  Uiso   1.00
C89    C     0.61240   0.40720   0.15760   0.01267  Uiso   1.00
C90    C     0.86240   0.34240   0.90720   0.01267  Uiso   1.00
C91    C     0.11550   0.45930   0.84640   0.01267  Uiso   1.00
C92    C     0.01410   0.52080   0.77250   0.01267  Uiso   1.00
C93    C     0.35870   0.89510   0.55080   0.01267  Uiso   1.00
C94    C     0.23590   0.97920   0.27250   0.01267  Uiso   1.00
C95    C     0.04540   0.59160   0.79390   0.01267  Uiso   1.00
C96    C     0.43030   0.88100   0.00530   0.01267  Uiso   1.00
C97    C     0.30260   0.70020   0.95600   0.01267  Uiso   1.00
C98    C     0.79540   0.29390   0.90840   0.01267  Uiso   1.00
C99    C     0.20460   0.90840   0.29390   0.01267  Uiso   1.00
C100   C     0.88450   0.84640   0.45930   0.01267  Uiso   1.00
C101   C     0.74080   0.64430   0.53300   0.01267  Uiso   1.00
C102   C     0.61550   0.54070   0.15360   0.01267  Uiso   1.00
C103   C     0.32320   0.82680   0.43620   0.01267  Uiso   1.00
C104   C     0.29540   0.70610   0.09160   0.01267  Uiso   1.00
C105   C     0.50920   0.85570   0.03300   0.01267  Uiso   1.00
C106   C     0.14130   0.44920   0.10490   0.01267  Uiso   1.00
C107   C     0.89560   0.05260   0.48740   0.01267  Uiso   1.00
C108   C     0.36180   0.88470   0.40000   0.01267  Uiso   1.00
C109   C     0.52160   0.15660   0.91230   0.01267  Uiso   1.00
C110   C     0.14510   0.52700   0.86790   0.01267  Uiso   1.00
C111   C     0.55260   0.54400   0.20020   0.01267  Uiso   1.00
C112   C     0.60870   0.94920   0.39510   0.01267  Uiso   1.00
C113   C     0.39650   0.94300   0.43640   0.01267  Uiso   1.00
C114   C     0.29130   0.59530   0.59350   0.01267  Uiso   1.00
C115   C     0.36240   0.65760   0.09280   0.01267  Uiso   1.00
C116   C     0.79950   0.01450   0.77950   0.01267  Uiso   1.00
C117   C     0.45050   0.48550   0.27950   0.01267  Uiso   1.00
C118   C     0.31970   0.38100   0.49470   0.01267  Uiso   1.00
C119   C     0.64560   0.98740   0.44740   0.01267  Uiso   1.00
C120   C     0.11180   0.90000   0.61530   0.01267  Uiso   1.00
C121   C     0.97840   0.08770   0.84340   0.01267  Uiso   1.00
C122   C     0.67650   0.51590   0.83310   0.01267  Uiso   1.00
C123   C     0.86180   0.11530   0.60000   0.01267  Uiso   1.00
C124   C     0.17650   0.48410   0.16690   0.01267  Uiso   1.00
C125   C     0.44740   0.20020   0.54400   0.01267  Uiso   1.00
C126   C     0.25920   0.53300   0.64430   0.01267  Uiso   1.00
C127   C     0.89650   0.05700   0.56360   0.01267  Uiso   1.00
C128   C     0.67680   0.43620   0.82680   0.01267  Uiso   1.00
C129   C     0.39760   0.93480   0.12900   0.01267  Uiso   1.00
C130   C     0.62940   0.06520   0.88560   0.01267  Uiso   1.00
C131   C     0.37940   0.38560   0.43480   0.01267  Uiso   1.00
C132   C     0.03810   0.06050   0.72330   0.01267  Uiso   1.00
C133   C     0.72840   0.34340   0.41230   0.01267  Uiso   1.00
C134   C     0.13760   0.90720   0.34240   0.01267  Uiso   1.00
C135   C     0.54130   0.90650   0.09530   0.01267  Uiso   1.00
C136   C     0.10490   0.97300   0.36790   0.01267  Uiso   1.00
C137   C     0.60240   0.12900   0.93480   0.01267  Uiso   1.00
C138   C     0.37060   0.88560   0.06520   0.01267  Uiso   1.00
C139   C     0.21190   0.43950   0.22330   0.01267  Uiso   1.00
C140   C     0.61180   0.10000   0.38470   0.01267  Uiso   1.00
C141   C     0.57350   0.98410   0.33310   0.01267  Uiso   1.00
C142   C     0.28810   0.77670   0.56050   0.01267  Uiso   1.00
C143   C     0.14650   0.93640   0.55700   0.01267  Uiso   1.00
C144   C     0.38760   0.15760   0.40720   0.01267  Uiso   1.00
C145   C     0.19740   0.04400   0.29980   0.01267  Uiso   1.00
C146   C     0.47840   0.91230   0.15660   0.01267  Uiso   1.00
C147   C     0.12940   0.93480   0.11440   0.01267  Uiso   1.00
C148   C     0.48590   0.22750   0.47920   0.01267  Uiso   1.00
C149   C     0.10240   0.87100   0.06520   0.01267  Uiso   1.00
C150   C     0.81970   0.61900   0.50530   0.01267  Uiso   1.00
C151   C     0.07350   0.01590   0.66690   0.01267  Uiso   1.00
C152   C     0.68030   0.49470   0.38100   0.01267  Uiso   1.00
C153   C     0.95050   0.51450   0.72050   0.01267  Uiso   1.00
C154   C     0.69740   0.95600   0.70020   0.01267  Uiso   1.00
C155   C     0.35350   0.44300   0.06360   0.01267  Uiso   1.00
C156   C     0.29950   0.98550   0.22050   0.01267  Uiso   1.00
C157   C     0.39510   0.63210   0.02700   0.01267  Uiso   1.00
C158   C     0.39560   0.94740   0.51260   0.01267  Uiso   1.00
C159   C     0.13820   0.60000   0.11530   0.01267  Uiso   1.00
C160   C     0.92650   0.66690   0.01590   0.01267  Uiso   1.00
N1     N     0.75710   0.28550   0.46190   0.01267  Uiso   1.00
N2     N     0.74290   0.53810   0.71450   0.01267  Uiso   1.00
N3     N     0.83460   0.07010   0.81180   0.01267  Uiso   1.00
N4     N     0.68230   0.23530   0.22220   0.01267  Uiso   1.00
N5     N     0.00710   0.03810   0.78550   0.01267  Uiso   1.00
N6     N     0.56770   0.26470   0.72220   0.01267  Uiso   1.00
N7     N     0.16540   0.81180   0.07010   0.01267  Uiso   1.00
N8     N     0.81770   0.77780   0.76470   0.01267  Uiso   1.00
N9     N     0.08460   0.68820   0.57010   0.01267  Uiso   1.00
N10    N     0.33460   0.92990   0.18820   0.01267  Uiso   1.00
N11    N     0.41540   0.42990   0.31180   0.01267  Uiso   1.00
N12    N     0.06770   0.73530   0.27780   0.01267  Uiso   1.00
N13    N     0.31770   0.22220   0.23530   0.01267  Uiso   1.00
N14    N     0.50710   0.96190   0.21450   0.01267  Uiso   1.00
N15    N     0.99290   0.78550   0.03810   0.01267  Uiso   1.00
N16    N     0.91540   0.57010   0.68820   0.01267  Uiso   1.00
N17    N     0.93230   0.27780   0.73530   0.01267  Uiso   1.00
N18    N     0.49290   0.21450   0.96190   0.01267  Uiso   1.00
N19    N     0.25710   0.71450   0.53810   0.01267  Uiso   1.00
N20    N     0.58460   0.31180   0.42990   0.01267  Uiso   1.00
N21    N     0.66540   0.18820   0.92990   0.01267  Uiso   1.00
N22    N     0.43230   0.72220   0.26470   0.01267  Uiso   1.00
N23    N     0.18230   0.76470   0.77780   0.01267  Uiso   1.00
N24    N     0.24290   0.46190   0.28550   0.01267  Uiso   1.00
Cl1    Cl    0.50000   0.10581   0.10581   0.01267  Uiso   1.00
Cl2    Cl    0.00000   0.89419   0.89419   0.01267  Uiso   1.00
Cl3    Cl    0.25000   0.60581   0.39419   0.01267  Uiso   1.00
Cl4    Cl    0.75000   0.39419   0.60581   0.01267  Uiso   1.00
O1     O     0.64100   0.24100   0.27890   0.01267  Uiso   1.00
O2     O     0.76370   0.26770   0.84849   0.01267  Uiso   1.00
O3     O     0.74300   0.77480   0.73520   0.01267  Uiso   1.00
O4     O     0.48630   0.23230   0.34849   0.01267  Uiso   1.00
O5     O     0.45910   0.27120   0.09690   0.01267  Uiso   1.00
O6     O     0.20910   0.59690   0.22880   0.01267  Uiso   1.00
O7     O     0.24300   0.22520   0.26480   0.01267  Uiso   1.00
O8     O     0.73630   0.15151   0.73230   0.01267  Uiso   1.00
O9     O     0.35900   0.27890   0.24100   0.01267  Uiso   1.00
O10    O     0.35520   0.16270   0.22140   0.01267  Uiso   1.00
O11    O     0.25700   0.73520   0.77480   0.01267  Uiso   1.00
O12    O     0.95910   0.72880   0.90310   0.01267  Uiso   1.00
O13    O     0.85900   0.72110   0.75900   0.01267  Uiso   1.00
O14    O     0.39480   0.66270   0.27860   0.01267  Uiso   1.00
O15    O     0.89480   0.33730   0.72140   0.01267  Uiso   1.00
O16    O     0.26370   0.73230   0.15151   0.01267  Uiso   1.00
O17    O     0.04090   0.90310   0.72880   0.01267  Uiso   1.00
O18    O     0.39100   0.77890   0.25900   0.01267  Uiso   1.00
O19    O     0.14100   0.75900   0.72110   0.01267  Uiso   1.00
O20    O     0.01370   0.65151   0.76770   0.01267  Uiso   1.00
O21    O     0.85520   0.83730   0.77860   0.01267  Uiso   1.00
O22    O     0.10520   0.72140   0.33730   0.01267  Uiso   1.00
O23    O     0.51370   0.34849   0.23230   0.01267  Uiso   1.00
O24    O     0.54090   0.09690   0.27120   0.01267  Uiso   1.00
O25    O     0.98630   0.76770   0.65151   0.01267  Uiso   1.00
O26    O     0.10900   0.74100   0.22110   0.01267  Uiso   1.00
O27    O     0.49300   0.23520   0.72520   0.01267  Uiso   1.00
O28    O     0.50700   0.72520   0.23520   0.01267  Uiso   1.00
O29    O     0.00700   0.27480   0.76480   0.01267  Uiso   1.00
O30    O     0.75700   0.26480   0.22520   0.01267  Uiso   1.00
O31    O     0.14480   0.77860   0.83730   0.01267  Uiso   1.00
O32    O     0.89100   0.22110   0.74100   0.01267  Uiso   1.00
O33    O     0.60900   0.25900   0.77890   0.01267  Uiso   1.00
O34    O     0.60520   0.27860   0.66270   0.01267  Uiso   1.00
O35    O     0.23630   0.84849   0.26770   0.01267  Uiso   1.00
O36    O     0.64480   0.22140   0.16270   0.01267  Uiso   1.00
O37    O     0.29090   0.77120   0.40310   0.01267  Uiso   1.00
O38    O     0.99300   0.76480   0.27480   0.01267  Uiso   1.00
O39    O     0.79090   0.22880   0.59690   0.01267  Uiso   1.00
O40    O     0.70910   0.40310   0.77120   0.01267  Uiso   1.00
