data_FOXHUX_clean
_audit_creation_date              2015-10-16
_audit_creation_method            'Materials Studio'
_symmetry_space_group_name_H-M    'P1'
_symmetry_Int_Tables_number       1
_symmetry_cell_setting            triclinic
loop_
_symmetry_equiv_pos_as_xyz
  x,y,z
_cell_length_a                    16.4174
_cell_length_b                    18.1798
_cell_length_c                    18.1798
_cell_angle_alpha                 90.0000
_cell_angle_beta                  90.0000
_cell_angle_gamma                 90.0000
loop_
_atom_site_label
_atom_site_type_symbol
_atom_site_fract_x
_atom_site_fract_y
_atom_site_fract_z
_atom_site_U_iso_or_equiv
_atom_site_adp_type
_atom_site_occupancy
La1    La    0.25000   0.71520   0.28480   0.01267  Uiso   1.00
La2    La    0.75000   0.28480   0.71520   0.01267  Uiso   1.00
La3    La    0.50000   0.21520   0.21520   0.01267  Uiso   1.00
La4    La    0.00000   0.78480   0.78480   0.01267  Uiso   1.00
H1     H     0.09900   0.88700   0.01600   0.01267  Uiso   1.00
H2     H     0.28370   0.71740   0.91040   0.01267  Uiso   1.00
H3     H     0.81130   0.89750   0.52920   0.01267  Uiso   1.00
H4     H     0.49960   0.05130   0.80560   0.01267  Uiso   1.00
H5     H     0.43650   0.92870   0.98110   0.01267  Uiso   1.00
H6     H     0.38860   0.63540   0.91730   0.01267  Uiso   1.00
H7     H     0.36710   0.14070   0.36550   0.01267  Uiso   1.00
H8     H     0.18140   0.95300   0.09410   0.01267  Uiso   1.00
H9     H     0.56810   0.29210   0.53160   0.01267  Uiso   1.00
H10    H     0.85790   0.16330   0.91610   0.01267  Uiso   1.00
H11    H     0.79660   0.50690   0.35370   0.01267  Uiso   1.00
H12    H     0.27770   0.36110   0.32050   0.01267  Uiso   1.00
H13    H     0.63290   0.36550   0.14070   0.01267  Uiso   1.00
H14    H     0.06350   0.01890   0.07130   0.01267  Uiso   1.00
H15    H     0.68140   0.04700   0.90590   0.01267  Uiso   1.00
H16    H     0.14520   0.39620   0.10260   0.01267  Uiso   1.00
H17    H     0.93870   0.39750   0.97080   0.01267  Uiso   1.00
H18    H     0.65860   0.61500   0.61520   0.01267  Uiso   1.00
H19    H     0.31350   0.42870   0.51890   0.01267  Uiso   1.00
H20    H     0.29660   0.49310   0.64630   0.01267  Uiso   1.00
H21    H     0.68190   0.20790   0.03160   0.01267  Uiso   1.00
H22    H     0.13860   0.41730   0.86460   0.01267  Uiso   1.00
H23    H     0.53370   0.58960   0.21740   0.01267  Uiso   1.00
H24    H     0.60790   0.41610   0.33670   0.01267  Uiso   1.00
H25    H     0.99960   0.94870   0.19440   0.01267  Uiso   1.00
H26    H     0.89520   0.60260   0.10380   0.01267  Uiso   1.00
H27    H     0.03500   0.11270   0.71500   0.01267  Uiso   1.00
H28    H     0.46500   0.28500   0.88730   0.01267  Uiso   1.00
H29    H     0.61140   0.91730   0.63540   0.01267  Uiso   1.00
H30    H     0.70340   0.64630   0.49310   0.01267  Uiso   1.00
H31    H     0.81350   0.57130   0.48110   0.01267  Uiso   1.00
H32    H     0.36140   0.13540   0.58270   0.01267  Uiso   1.00
H33    H     0.77770   0.63890   0.67950   0.01267  Uiso   1.00
H34    H     0.21630   0.08960   0.28260   0.01267  Uiso   1.00
H35    H     0.11530   0.85160   0.61800   0.01267  Uiso   1.00
H36    H     0.75040   0.44870   0.30560   0.01267  Uiso   1.00
H37    H     0.59900   0.11300   0.98400   0.01267  Uiso   1.00
H38    H     0.31130   0.10250   0.47080   0.01267  Uiso   1.00
H39    H     0.39520   0.39740   0.89620   0.01267  Uiso   1.00
H40    H     0.45340   0.99310   0.85370   0.01267  Uiso   1.00
H41    H     0.06860   0.54700   0.59410   0.01267  Uiso   1.00
H42    H     0.18870   0.52920   0.89750   0.01267  Uiso   1.00
H43    H     0.66000   0.53330   0.34690   0.01267  Uiso   1.00
H44    H     0.41790   0.98630   0.54060   0.01267  Uiso   1.00
H45    H     0.59000   0.96670   0.84690   0.01267  Uiso   1.00
H46    H     0.86710   0.85930   0.63450   0.01267  Uiso   1.00
H47    H     0.71500   0.61270   0.78500   0.01267  Uiso   1.00
H48    H     0.09140   0.11500   0.88480   0.01267  Uiso   1.00
H49    H     0.59140   0.88500   0.11520   0.01267  Uiso   1.00
H50    H     0.16890   0.91330   0.51690   0.01267  Uiso   1.00
H51    H     0.64520   0.60380   0.89740   0.01267  Uiso   1.00
H52    H     0.61710   0.13450   0.64070   0.01267  Uiso   1.00
H53    H     0.10790   0.58390   0.66330   0.01267  Uiso   1.00
H54    H     0.06130   0.97080   0.39750   0.01267  Uiso   1.00
H55    H     0.46630   0.21740   0.58960   0.01267  Uiso   1.00
H56    H     0.40100   0.98400   0.11300   0.01267  Uiso   1.00
H57    H     0.97230   0.13890   0.82050   0.01267  Uiso   1.00
H58    H     0.86140   0.86460   0.41730   0.01267  Uiso   1.00
H59    H     0.78500   0.21500   0.38730   0.01267  Uiso   1.00
H60    H     0.53500   0.88730   0.28500   0.01267  Uiso   1.00
H61    H     0.08110   0.58670   0.01690   0.01267  Uiso   1.00
H62    H     0.54660   0.85370   0.99310   0.01267  Uiso   1.00
H63    H     0.19760   0.45440   0.42260   0.01267  Uiso   1.00
H64    H     0.44760   0.07740   0.95440   0.01267  Uiso   1.00
H65    H     0.31810   0.03160   0.20790   0.01267  Uiso   1.00
H66    H     0.58210   0.54060   0.98630   0.01267  Uiso   1.00
H67    H     0.88470   0.61800   0.85160   0.01267  Uiso   1.00
H68    H     0.10480   0.10380   0.60260   0.01267  Uiso   1.00
H69    H     0.81810   0.96840   0.79210   0.01267  Uiso   1.00
H70    H     0.96630   0.78260   0.41040   0.01267  Uiso   1.00
H71    H     0.13470   0.64840   0.11800   0.01267  Uiso   1.00
H72    H     0.91890   0.01690   0.58670   0.01267  Uiso   1.00
H73    H     0.94760   0.92260   0.04560   0.01267  Uiso   1.00
H74    H     0.63860   0.58270   0.13540   0.01267  Uiso   1.00
H75    H     0.35790   0.83670   0.08390   0.01267  Uiso   1.00
H76    H     0.38470   0.38200   0.14840   0.01267  Uiso   1.00
H77    H     0.16790   0.04060   0.51370   0.01267  Uiso   1.00
H78    H     0.02770   0.82050   0.13890   0.01267  Uiso   1.00
H79    H     0.89210   0.66330   0.58390   0.01267  Uiso   1.00
H80    H     0.72230   0.32050   0.36110   0.01267  Uiso   1.00
H81    H     0.68870   0.47080   0.10250   0.01267  Uiso   1.00
H82    H     0.69760   0.54560   0.57740   0.01267  Uiso   1.00
H83    H     0.33210   0.48630   0.95940   0.01267  Uiso   1.00
H84    H     0.65100   0.38700   0.48400   0.01267  Uiso   1.00
H85    H     0.21500   0.38730   0.21500   0.01267  Uiso   1.00
H86    H     0.61530   0.14840   0.38200   0.01267  Uiso   1.00
H87    H     0.03370   0.41040   0.78260   0.01267  Uiso   1.00
H88    H     0.86530   0.11800   0.64840   0.01267  Uiso   1.00
H89    H     0.43870   0.60250   0.02920   0.01267  Uiso   1.00
H90    H     0.39210   0.33670   0.41610   0.01267  Uiso   1.00
H91    H     0.83210   0.51370   0.04060   0.01267  Uiso   1.00
H92    H     0.84140   0.38480   0.38500   0.01267  Uiso   1.00
H93    H     0.90860   0.88480   0.11500   0.01267  Uiso   1.00
H94    H     0.74960   0.69440   0.55130   0.01267  Uiso   1.00
H95    H     0.24960   0.30560   0.44870   0.01267  Uiso   1.00
H96    H     0.38290   0.64070   0.13450   0.01267  Uiso   1.00
H97    H     0.34900   0.48400   0.38700   0.01267  Uiso   1.00
H98    H     0.56130   0.02920   0.60250   0.01267  Uiso   1.00
H99    H     0.56350   0.98110   0.92870   0.01267  Uiso   1.00
H100   H     0.41890   0.98310   0.41330   0.01267  Uiso   1.00
H101   H     0.15100   0.61300   0.51600   0.01267  Uiso   1.00
H102   H     0.30240   0.57740   0.54560   0.01267  Uiso   1.00
H103   H     0.63470   0.35160   0.88200   0.01267  Uiso   1.00
H104   H     0.34000   0.34690   0.53330   0.01267  Uiso   1.00
H105   H     0.85480   0.10260   0.39620   0.01267  Uiso   1.00
H106   H     0.22230   0.67950   0.63890   0.01267  Uiso   1.00
H107   H     0.64210   0.08390   0.83670   0.01267  Uiso   1.00
H108   H     0.04660   0.14630   0.00690   0.01267  Uiso   1.00
H109   H     0.50040   0.80560   0.05130   0.01267  Uiso   1.00
H110   H     0.14210   0.91610   0.16330   0.01267  Uiso   1.00
H111   H     0.60480   0.89620   0.39740   0.01267  Uiso   1.00
H112   H     0.08210   0.45940   0.01370   0.01267  Uiso   1.00
H113   H     0.47230   0.86110   0.17950   0.01267  Uiso   1.00
H114   H     0.95340   0.00690   0.14630   0.01267  Uiso   1.00
H115   H     0.31860   0.90590   0.04700   0.01267  Uiso   1.00
H116   H     0.93190   0.46840   0.70790   0.01267  Uiso   1.00
H117   H     0.05240   0.04560   0.92260   0.01267  Uiso   1.00
H118   H     0.90100   0.01600   0.88700   0.01267  Uiso   1.00
H119   H     0.66890   0.08670   0.48310   0.01267  Uiso   1.00
H120   H     0.88860   0.36460   0.08270   0.01267  Uiso   1.00
H121   H     0.15860   0.38500   0.38480   0.01267  Uiso   1.00
H122   H     0.66790   0.95940   0.48630   0.01267  Uiso   1.00
H123   H     0.16000   0.46670   0.65310   0.01267  Uiso   1.00
H124   H     0.43140   0.40590   0.45300   0.01267  Uiso   1.00
H125   H     0.55240   0.95440   0.07740   0.01267  Uiso   1.00
H126   H     0.84900   0.51600   0.61300   0.01267  Uiso   1.00
H127   H     0.25040   0.55130   0.69440   0.01267  Uiso   1.00
H128   H     0.80240   0.42260   0.45440   0.01267  Uiso   1.00
H129   H     0.18650   0.48110   0.57130   0.01267  Uiso   1.00
H130   H     0.84000   0.65310   0.46670   0.01267  Uiso   1.00
H131   H     0.68650   0.51890   0.42870   0.01267  Uiso   1.00
H132   H     0.91790   0.01370   0.45940   0.01267  Uiso   1.00
H133   H     0.18190   0.79210   0.96840   0.01267  Uiso   1.00
H134   H     0.13290   0.63450   0.85930   0.01267  Uiso   1.00
H135   H     0.43190   0.53160   0.29210   0.01267  Uiso   1.00
H136   H     0.91000   0.15310   0.03330   0.01267  Uiso   1.00
H137   H     0.83110   0.51690   0.91330   0.01267  Uiso   1.00
H138   H     0.93650   0.07130   0.01890   0.01267  Uiso   1.00
H139   H     0.41000   0.84690   0.96670   0.01267  Uiso   1.00
H140   H     0.33110   0.48310   0.08670   0.01267  Uiso   1.00
H141   H     0.71630   0.91040   0.71740   0.01267  Uiso   1.00
H142   H     0.35480   0.89740   0.60380   0.01267  Uiso   1.00
H143   H     0.34140   0.61520   0.61500   0.01267  Uiso   1.00
H144   H     0.58110   0.41330   0.98310   0.01267  Uiso   1.00
H145   H     0.56860   0.45300   0.40590   0.01267  Uiso   1.00
H146   H     0.81860   0.09410   0.95300   0.01267  Uiso   1.00
H147   H     0.06810   0.70790   0.46840   0.01267  Uiso   1.00
H148   H     0.00040   0.19440   0.94870   0.01267  Uiso   1.00
H149   H     0.78370   0.28260   0.08960   0.01267  Uiso   1.00
H150   H     0.28500   0.78500   0.61270   0.01267  Uiso   1.00
H151   H     0.11710   0.86550   0.35930   0.01267  Uiso   1.00
H152   H     0.11140   0.08270   0.36460   0.01267  Uiso   1.00
H153   H     0.96500   0.71500   0.11270   0.01267  Uiso   1.00
H154   H     0.20340   0.35370   0.50690   0.01267  Uiso   1.00
H155   H     0.09000   0.03330   0.15310   0.01267  Uiso   1.00
H156   H     0.93140   0.59410   0.54700   0.01267  Uiso   1.00
H157   H     0.36530   0.88200   0.35160   0.01267  Uiso   1.00
H158   H     0.52770   0.17950   0.86110   0.01267  Uiso   1.00
H159   H     0.88290   0.35930   0.86550   0.01267  Uiso   1.00
H160   H     0.40860   0.11520   0.88500   0.01267  Uiso   1.00
C1     C     0.03730   0.06240   0.72360   0.01267  Uiso   1.00
C2     C     0.47790   0.91010   0.15760   0.01267  Uiso   1.00
C3     C     0.42670   0.33260   0.98100   0.01267  Uiso   1.00
C4     C     0.57420   0.06030   0.32720   0.01267  Uiso   1.00
C5     C     0.63090   0.06590   0.88590   0.01267  Uiso   1.00
C6     C     0.61130   0.40980   0.15730   0.01267  Uiso   1.00
C7     C     0.52210   0.15760   0.91010   0.01267  Uiso   1.00
C8     C     0.98590   0.77200   0.52060   0.01267  Uiso   1.00
C9     C     0.35450   0.44480   0.06020   0.01267  Uiso   1.00
C10    C     0.02210   0.84240   0.08990   0.01267  Uiso   1.00
C11    C     0.94780   0.79830   0.45610   0.01267  Uiso   1.00
C12    C     0.50710   0.85530   0.03270   0.01267  Uiso   1.00
C13    C     0.89380   0.05270   0.48430   0.01267  Uiso   1.00
C14    C     0.13090   0.93410   0.11410   0.01267  Uiso   1.00
C15    C     0.45000   0.48470   0.27970   0.01267  Uiso   1.00
C16    C     0.85450   0.55520   0.93980   0.01267  Uiso   1.00
C17    C     0.64720   0.37020   0.43290   0.01267  Uiso   1.00
C18    C     0.29520   0.70590   0.09150   0.01267  Uiso   1.00
C19    C     0.46270   0.27640   0.93760   0.01267  Uiso   1.00
C20    C     0.92670   0.66740   0.01900   0.01267  Uiso   1.00
C21    C     0.71270   0.56240   0.77640   0.01267  Uiso   1.00
C22    C     0.78730   0.22360   0.43760   0.01267  Uiso   1.00
C23    C     0.39720   0.93290   0.12980   0.01267  Uiso   1.00
C24    C     0.21270   0.43760   0.22360   0.01267  Uiso   1.00
C25    C     0.85590   0.86610   0.52710   0.01267  Uiso   1.00
C26    C     0.51410   0.47940   0.22800   0.01267  Uiso   1.00
C27    C     0.70480   0.09150   0.70590   0.01267  Uiso   1.00
C28    C     0.10590   0.97290   0.36610   0.01267  Uiso   1.00
C29    C     0.49290   0.03270   0.85530   0.01267  Uiso   1.00
C30    C     0.26410   0.72800   0.02060   0.01267  Uiso   1.00
C31    C     0.39550   0.94480   0.43980   0.01267  Uiso   1.00
C32    C     0.17580   0.56030   0.17280   0.01267  Uiso   1.00
C33    C     0.20480   0.90850   0.29410   0.01267  Uiso   1.00
C34    C     0.86910   0.11410   0.93410   0.01267  Uiso   1.00
C35    C     0.95890   0.90370   0.09440   0.01267  Uiso   1.00
C36    C     0.11530   0.46000   0.84590   0.01267  Uiso   1.00
C37    C     0.75710   0.46730   0.35530   0.01267  Uiso   1.00
C38    C     0.88800   0.61600   0.90260   0.01267  Uiso   1.00
C39    C     0.39410   0.63390   0.02710   0.01267  Uiso   1.00
C40    C     0.99290   0.96730   0.14470   0.01267  Uiso   1.00
C41    C     0.82030   0.61920   0.50380   0.01267  Uiso   1.00
C42    C     0.61910   0.43410   0.38590   0.01267  Uiso   1.00
C43    C     0.72790   0.34240   0.41010   0.01267  Uiso   1.00
C44    C     0.64250   0.55280   0.89380   0.01267  Uiso   1.00
C45    C     0.30000   0.98470   0.22030   0.01267  Uiso   1.00
C46    C     0.82420   0.17280   0.56030   0.01267  Uiso   1.00
C47    C     0.38090   0.38590   0.43410   0.01267  Uiso   1.00
C48    C     0.20890   0.40560   0.40370   0.01267  Uiso   1.00
C49    C     0.35750   0.89380   0.55280   0.01267  Uiso   1.00
C50    C     0.54520   0.40850   0.20590   0.01267  Uiso   1.00
C51    C     0.35620   0.44730   0.98430   0.01267  Uiso   1.00
C52    C     0.97790   0.08990   0.84240   0.01267  Uiso   1.00
C53    C     0.14250   0.44720   0.10620   0.01267  Uiso   1.00
C54    C     0.54110   0.90560   0.09630   0.01267  Uiso   1.00
C55    C     0.13470   0.04000   0.34590   0.01267  Uiso   1.00
C56    C     0.10750   0.05280   0.60620   0.01267  Uiso   1.00
C57    C     0.60590   0.02710   0.63390   0.01267  Uiso   1.00
C58    C     0.89410   0.36610   0.97290   0.01267  Uiso   1.00
C59    C     0.79520   0.29410   0.90850   0.01267  Uiso   1.00
C60    C     0.45890   0.09630   0.90560   0.01267  Uiso   1.00
C61    C     0.28730   0.77640   0.56240   0.01267  Uiso   1.00
C62    C     0.10620   0.48430   0.05270   0.01267  Uiso   1.00
C63    C     0.67580   0.43970   0.82720   0.01267  Uiso   1.00
C64    C     0.70000   0.22030   0.98470   0.01267  Uiso   1.00
C65    C     0.01410   0.52060   0.77200   0.01267  Uiso   1.00
C66    C     0.45480   0.20590   0.40850   0.01267  Uiso   1.00
C67    C     0.29110   0.59630   0.59440   0.01267  Uiso   1.00
C68    C     0.38870   0.15730   0.40980   0.01267  Uiso   1.00
C69    C     0.92970   0.11920   0.99620   0.01267  Uiso   1.00
C70    C     0.42970   0.88080   0.00380   0.01267  Uiso   1.00
C71    C     0.89550   0.05520   0.56020   0.01267  Uiso   1.00
C72    C     0.11200   0.90260   0.61600   0.01267  Uiso   1.00
C73    C     0.20000   0.77970   0.01530   0.01267  Uiso   1.00
C74    C     0.17670   0.48100   0.16740   0.01267  Uiso   1.00
C75    C     0.80000   0.01530   0.77970   0.01267  Uiso   1.00
C76    C     0.55000   0.27970   0.48470   0.01267  Uiso   1.00
C77    C     0.88090   0.61410   0.56590   0.01267  Uiso   1.00
C78    C     0.63470   0.96000   0.65410   0.01267  Uiso   1.00
C79    C     0.57030   0.00380   0.88080   0.01267  Uiso   1.00
C80    C     0.79110   0.40370   0.40560   0.01267  Uiso   1.00
C81    C     0.86200   0.11600   0.59740   0.01267  Uiso   1.00
C82    C     0.07420   0.93970   0.67280   0.01267  Uiso   1.00
C83    C     0.73590   0.02060   0.72800   0.01267  Uiso   1.00
C84    C     0.14720   0.62980   0.56710   0.01267  Uiso   1.00
C85    C     0.22790   0.65760   0.58990   0.01267  Uiso   1.00
C86    C     0.07330   0.01900   0.66740   0.01267  Uiso   1.00
C87    C     0.30220   0.70170   0.95610   0.01267  Uiso   1.00
C88    C     0.39380   0.94730   0.51570   0.01267  Uiso   1.00
C89    C     0.86130   0.34270   0.90980   0.01267  Uiso   1.00
C90    C     0.86530   0.34590   0.04000   0.01267  Uiso   1.00
C91    C     0.38800   0.38400   0.09740   0.01267  Uiso   1.00
C92    C     0.69780   0.95610   0.70170   0.01267  Uiso   1.00
C93    C     0.64410   0.47290   0.13390   0.01267  Uiso   1.00
C94    C     0.44780   0.20170   0.54390   0.01267  Uiso   1.00
C95    C     0.13800   0.59740   0.11600   0.01267  Uiso   1.00
C96    C     0.74290   0.64470   0.53270   0.01267  Uiso   1.00
C97    C     0.32420   0.82720   0.43970   0.01267  Uiso   1.00
C98    C     0.55220   0.54390   0.20170   0.01267  Uiso   1.00
C99    C     0.36910   0.88590   0.06590   0.01267  Uiso   1.00
C100   C     0.10450   0.56020   0.05520   0.01267  Uiso   1.00
C101   C     0.19780   0.04390   0.29830   0.01267  Uiso   1.00
C102   C     0.82330   0.16740   0.48100   0.01267  Uiso   1.00
C103   C     0.85280   0.56710   0.62980   0.01267  Uiso   1.00
C104   C     0.32030   0.38080   0.49620   0.01267  Uiso   1.00
C105   C     0.39250   0.39380   0.94720   0.01267  Uiso   1.00
C106   C     0.11130   0.59020   0.84270   0.01267  Uiso   1.00
C107   C     0.14410   0.52710   0.86610   0.01267  Uiso   1.00
C108   C     0.61200   0.09740   0.38400   0.01267  Uiso   1.00
C109   C     0.95000   0.51530   0.72030   0.01267  Uiso   1.00
C110   C     0.42580   0.32720   0.06030   0.01267  Uiso   1.00
C111   C     0.63800   0.40260   0.88400   0.01267  Uiso   1.00
C112   C     0.53730   0.93760   0.27640   0.01267  Uiso   1.00
C113   C     0.67970   0.49620   0.38080   0.01267  Uiso   1.00
C114   C     0.64380   0.98430   0.44730   0.01267  Uiso   1.00
C115   C     0.61530   0.54000   0.15410   0.01267  Uiso   1.00
C116   C     0.11910   0.56590   0.61410   0.01267  Uiso   1.00
C117   C     0.04520   0.59150   0.79410   0.01267  Uiso   1.00
C118   C     0.17970   0.50380   0.61920   0.01267  Uiso   1.00
C119   C     0.85620   0.55270   0.01570   0.01267  Uiso   1.00
C120   C     0.67670   0.51900   0.83260   0.01267  Uiso   1.00
C121   C     0.63870   0.09020   0.65730   0.01267  Uiso   1.00
C122   C     0.04110   0.09440   0.90370   0.01267  Uiso   1.00
C123   C     0.95480   0.79410   0.59150   0.01267  Uiso   1.00
C124   C     0.24290   0.35530   0.46730   0.01267  Uiso   1.00
C125   C     0.36200   0.88400   0.40260   0.01267  Uiso   1.00
C126   C     0.60620   0.51570   0.94730   0.01267  Uiso   1.00
C127   C     0.60450   0.43980   0.94480   0.01267  Uiso   1.00
C128   C     0.27210   0.41010   0.34240   0.01267  Uiso   1.00
C129   C     0.96270   0.72360   0.06240   0.01267  Uiso   1.00
C130   C     0.25710   0.53270   0.64470   0.01267  Uiso   1.00
C131   C     0.00710   0.14470   0.96730   0.01267  Uiso   1.00
C132   C     0.77210   0.58990   0.65760   0.01267  Uiso   1.00
C133   C     0.85750   0.10620   0.44720   0.01267  Uiso   1.00
C134   C     0.89720   0.06710   0.87020   0.01267  Uiso   1.00
C135   C     0.32330   0.83260   0.51900   0.01267  Uiso   1.00
C136   C     0.36530   0.65410   0.96000   0.01267  Uiso   1.00
C137   C     0.23590   0.97940   0.27200   0.01267  Uiso   1.00
C138   C     0.35280   0.43290   0.37020   0.01267  Uiso   1.00
C139   C     0.10280   0.87020   0.06710   0.01267  Uiso   1.00
C140   C     0.57330   0.98100   0.33260   0.01267  Uiso   1.00
C141   C     0.38470   0.15410   0.54000   0.01267  Uiso   1.00
C142   C     0.07030   0.99620   0.11920   0.01267  Uiso   1.00
C143   C     0.60280   0.12980   0.93290   0.01267  Uiso   1.00
C144   C     0.13870   0.90980   0.34270   0.01267  Uiso   1.00
C145   C     0.64550   0.06020   0.44480   0.01267  Uiso   1.00
C146   C     0.88870   0.84270   0.59020   0.01267  Uiso   1.00
C147   C     0.70890   0.59440   0.59630   0.01267  Uiso   1.00
C148   C     0.35590   0.13390   0.47290   0.01267  Uiso   1.00
C149   C     0.88470   0.84590   0.46000   0.01267  Uiso   1.00
C150   C     0.60750   0.94720   0.39380   0.01267  Uiso   1.00
C151   C     0.76410   0.27200   0.97940   0.01267  Uiso   1.00
C152   C     0.05220   0.45610   0.79830   0.01267  Uiso   1.00
C153   C     0.89250   0.60620   0.05280   0.01267  Uiso   1.00
C154   C     0.92580   0.67280   0.93970   0.01267  Uiso   1.00
C155   C     0.14550   0.93980   0.55520   0.01267  Uiso   1.00
C156   C     0.14380   0.01570   0.55270   0.01267  Uiso   1.00
C157   C     0.80220   0.29830   0.04390   0.01267  Uiso   1.00
C158   C     0.48590   0.22800   0.47940   0.01267  Uiso   1.00
C159   C     0.36130   0.65730   0.09020   0.01267  Uiso   1.00
C160   C     0.05000   0.72030   0.51530   0.01267  Uiso   1.00
N1     N     0.66450   0.18880   0.92920   0.01267  Uiso   1.00
N2     N     0.91450   0.57080   0.68880   0.01267  Uiso   1.00
N3     N     0.41450   0.42920   0.31120   0.01267  Uiso   1.00
N4     N     0.56480   0.26580   0.72240   0.01267  Uiso   1.00
N5     N     0.68520   0.23420   0.22240   0.01267  Uiso   1.00
N6     N     0.16450   0.81120   0.07080   0.01267  Uiso   1.00
N7     N     0.06480   0.73420   0.27760   0.01267  Uiso   1.00
N8     N     0.74260   0.53980   0.71440   0.01267  Uiso   1.00
N9     N     0.81480   0.77760   0.76580   0.01267  Uiso   1.00
N10    N     0.43520   0.72240   0.26580   0.01267  Uiso   1.00
N11    N     0.24260   0.46020   0.28560   0.01267  Uiso   1.00
N12    N     0.08550   0.68880   0.57080   0.01267  Uiso   1.00
N13    N     0.49260   0.21440   0.96020   0.01267  Uiso   1.00
N14    N     0.58550   0.31120   0.42920   0.01267  Uiso   1.00
N15    N     0.99260   0.78560   0.03980   0.01267  Uiso   1.00
N16    N     0.18520   0.76580   0.77760   0.01267  Uiso   1.00
N17    N     0.75740   0.28560   0.46020   0.01267  Uiso   1.00
N18    N     0.00740   0.03980   0.78560   0.01267  Uiso   1.00
N19    N     0.33550   0.92920   0.18880   0.01267  Uiso   1.00
N20    N     0.93520   0.27760   0.73420   0.01267  Uiso   1.00
N21    N     0.25740   0.71440   0.53980   0.01267  Uiso   1.00
N22    N     0.31480   0.22240   0.23420   0.01267  Uiso   1.00
N23    N     0.50740   0.96020   0.21440   0.01267  Uiso   1.00
N24    N     0.83550   0.07080   0.81120   0.01267  Uiso   1.00
Cl1    Cl    0.50000   0.10338   0.10338   0.01267  Uiso   1.00
Cl2    Cl    0.25000   0.60338   0.39662   0.01267  Uiso   1.00
Cl3    Cl    0.00000   0.89662   0.89662   0.01267  Uiso   1.00
Cl4    Cl    0.75000   0.39662   0.60338   0.01267  Uiso   1.00
O1     O     0.64400   0.23970   0.27900   0.01267  Uiso   1.00
O2     O     0.26470   0.73210   0.15094   0.01267  Uiso   1.00
O3     O     0.29060   0.77110   0.40610   0.01267  Uiso   1.00
O4     O     0.99130   0.76260   0.27570   0.01267  Uiso   1.00
O5     O     0.60130   0.27930   0.66250   0.01267  Uiso   1.00
O6     O     0.75870   0.26260   0.22430   0.01267  Uiso   1.00
O7     O     0.70940   0.40610   0.77110   0.01267  Uiso   1.00
O8     O     0.04060   0.90610   0.72890   0.01267  Uiso   1.00
O9     O     0.39870   0.66250   0.27930   0.01267  Uiso   1.00
O10    O     0.98530   0.76790   0.65094   0.01267  Uiso   1.00
O11    O     0.60600   0.26030   0.77900   0.01267  Uiso   1.00
O12    O     0.24130   0.22430   0.26260   0.01267  Uiso   1.00
O13    O     0.95940   0.72890   0.90610   0.01267  Uiso   1.00
O14    O     0.45940   0.27110   0.09390   0.01267  Uiso   1.00
O15    O     0.14870   0.77930   0.83750   0.01267  Uiso   1.00
O16    O     0.10130   0.72070   0.33750   0.01267  Uiso   1.00
O17    O     0.51470   0.34906   0.23210   0.01267  Uiso   1.00
O18    O     0.73530   0.15094   0.73210   0.01267  Uiso   1.00
O19    O     0.85130   0.83750   0.77930   0.01267  Uiso   1.00
O20    O     0.89400   0.22100   0.73970   0.01267  Uiso   1.00
O21    O     0.00870   0.27570   0.76260   0.01267  Uiso   1.00
O22    O     0.50870   0.72430   0.23740   0.01267  Uiso   1.00
O23    O     0.74130   0.77570   0.73740   0.01267  Uiso   1.00
O24    O     0.89870   0.33750   0.72070   0.01267  Uiso   1.00
O25    O     0.64870   0.22070   0.16250   0.01267  Uiso   1.00
O26    O     0.01470   0.65094   0.76790   0.01267  Uiso   1.00
O27    O     0.25870   0.73740   0.77570   0.01267  Uiso   1.00
O28    O     0.49130   0.23740   0.72430   0.01267  Uiso   1.00
O29    O     0.39400   0.77900   0.26030   0.01267  Uiso   1.00
O30    O     0.35130   0.16250   0.22070   0.01267  Uiso   1.00
O31    O     0.10600   0.73970   0.22100   0.01267  Uiso   1.00
O32    O     0.54060   0.09390   0.27110   0.01267  Uiso   1.00
O33    O     0.35600   0.27900   0.23970   0.01267  Uiso   1.00
O34    O     0.23530   0.84906   0.26790   0.01267  Uiso   1.00
O35    O     0.76470   0.26790   0.84906   0.01267  Uiso   1.00
O36    O     0.85600   0.72100   0.76030   0.01267  Uiso   1.00
O37    O     0.20940   0.59390   0.22890   0.01267  Uiso   1.00
O38    O     0.48530   0.23210   0.34906   0.01267  Uiso   1.00
O39    O     0.14400   0.76030   0.72100   0.01267  Uiso   1.00
O40    O     0.79060   0.22890   0.59390   0.01267  Uiso   1.00
