data_FOXNIQ_clean
_audit_creation_date              2014-07-02
_audit_creation_method            'Materials Studio'
_symmetry_space_group_name_H-M    'P1'
_symmetry_Int_Tables_number       1
_symmetry_cell_setting            triclinic
loop_
_symmetry_equiv_pos_as_xyz
  x,y,z
_cell_length_a                    11.9248
_cell_length_b                    16.1606
_cell_length_c                    17.5254
_cell_angle_alpha                 90.0880
_cell_angle_beta                  98.5630
_cell_angle_gamma                 109.9390
loop_
_atom_site_label
_atom_site_type_symbol
_atom_site_fract_x
_atom_site_fract_y
_atom_site_fract_z
_atom_site_U_iso_or_equiv
_atom_site_adp_type
_atom_site_occupancy
Gd1    Gd    0.43717   0.58396   0.66373   0.01267  Uiso   1.00
Gd2    Gd    0.46962   0.19726   0.21115   0.01267  Uiso   1.00
Gd3    Gd    0.22387   0.27682   0.26313   0.01267  Uiso   1.00
Gd4    Gd    0.42989   0.20626   0.42457   0.01267  Uiso   1.00
Gd5    Gd    0.56283   0.41604   0.33627   0.01267  Uiso   1.00
Gd6    Gd    0.53038   0.80274   0.78885   0.01267  Uiso   1.00
Gd7    Gd    0.77613   0.72318   0.73687   0.01267  Uiso   1.00
Gd8    Gd    0.57011   0.79374   0.57543   0.01267  Uiso   1.00
Co1    Co    0.14390   0.32033   0.60064   0.01267  Uiso   1.00
Co2    Co    0.94295   0.31342   0.86908   0.01267  Uiso   1.00
Co3    Co    0.85610   0.67967   0.39936   0.01267  Uiso   1.00
Co4    Co    0.05705   0.68658   0.13092   0.01267  Uiso   1.00
H1     H     0.51360   0.05530   0.54660   0.01267  Uiso   1.00
H2     H     0.29550   0.13870   0.70400   0.01267  Uiso   1.00
H3     H     0.35650   0.01870   0.73460   0.01267  Uiso   1.00
H4     H     0.33330   0.62170   0.97800   0.01267  Uiso   1.00
H5     H     0.20890   0.53180   0.05720   0.01267  Uiso   1.00
H6     H     0.12180   0.46930   0.79440   0.01267  Uiso   1.00
H7     H     0.28660   0.24560   0.82130   0.01267  Uiso   1.00
H8     H     0.35690   0.22420   0.94720   0.01267  Uiso   1.00
H9     H     0.07070   0.25490   0.01540   0.01267  Uiso   1.00
H10    H     0.84900   0.46660   0.80420   0.01267  Uiso   1.00
H11    H     0.51750   0.21120   0.78400   0.01267  Uiso   1.00
H12    H     0.49070   0.34190   0.74250   0.01267  Uiso   1.00
H13    H     0.98990   0.56910   0.61260   0.01267  Uiso   1.00
H14    H     0.78650   0.49810   0.56180   0.01267  Uiso   1.00
H15    H     0.85580   0.27490   0.54350   0.01267  Uiso   1.00
H16    H     0.94440   0.10440   0.38110   0.01267  Uiso   1.00
H17    H     0.83280   0.99080   0.44570   0.01267  Uiso   1.00
H18    H     0.98260   0.13370   0.64370   0.01267  Uiso   1.00
H19    H     0.64670   0.64690   0.59170   0.01267  Uiso   1.00
H20    H     0.27610   0.12250   0.29710   0.01267  Uiso   1.00
H21    H     0.58950   0.64940   0.81110   0.01267  Uiso   1.00
H22    H     0.37990   0.74050   0.64260   0.01267  Uiso   1.00
H23    H     0.03870   0.16060   0.26050   0.01267  Uiso   1.00
H24    H     0.06540   0.08960   0.26500   0.01267  Uiso   1.00
H25    H     0.48640   0.94470   0.45340   0.01267  Uiso   1.00
H26    H     0.70450   0.86130   0.29600   0.01267  Uiso   1.00
H27    H     0.64350   0.98130   0.26540   0.01267  Uiso   1.00
H28    H     0.66670   0.37830   0.02200   0.01267  Uiso   1.00
H29    H     0.79110   0.46820   0.94280   0.01267  Uiso   1.00
H30    H     0.87820   0.53070   0.20560   0.01267  Uiso   1.00
H31    H     0.71340   0.75440   0.17870   0.01267  Uiso   1.00
H32    H     0.64310   0.77580   0.05280   0.01267  Uiso   1.00
H33    H     0.92930   0.74510   0.98460   0.01267  Uiso   1.00
H34    H     0.15100   0.53340   0.19580   0.01267  Uiso   1.00
H35    H     0.48250   0.78880   0.21600   0.01267  Uiso   1.00
H36    H     0.50930   0.65810   0.25750   0.01267  Uiso   1.00
H37    H     0.01010   0.43090   0.38740   0.01267  Uiso   1.00
H38    H     0.21350   0.50190   0.43820   0.01267  Uiso   1.00
H39    H     0.14420   0.72510   0.45650   0.01267  Uiso   1.00
H40    H     0.05560   0.89560   0.61890   0.01267  Uiso   1.00
H41    H     0.16720   0.00920   0.55430   0.01267  Uiso   1.00
H42    H     0.01740   0.86630   0.35630   0.01267  Uiso   1.00
H43    H     0.35330   0.35310   0.40830   0.01267  Uiso   1.00
H44    H     0.72390   0.87750   0.70290   0.01267  Uiso   1.00
H45    H     0.41050   0.35060   0.18890   0.01267  Uiso   1.00
H46    H     0.62010   0.25950   0.35740   0.01267  Uiso   1.00
H47    H     0.96130   0.83940   0.73950   0.01267  Uiso   1.00
H48    H     0.93460   0.91040   0.73500   0.01267  Uiso   1.00
C1     C     0.47980   0.94320   0.65700   0.01267  Uiso   1.00
C2     C     0.44260   0.02440   0.64170   0.01267  Uiso   1.00
C3     C     0.46900   0.07190   0.57900   0.01267  Uiso   1.00
C4     C     0.37210   0.16560   0.60890   0.01267  Uiso   1.00
C5     C     0.34070   0.12110   0.67270   0.01267  Uiso   1.00
C6     C     0.37620   0.04940   0.69090   0.01267  Uiso   1.00
C7     C     0.34220   0.24450   0.58480   0.01267  Uiso   1.00
C8     C     0.32430   0.60510   0.82390   0.01267  Uiso   1.00
C9     C     0.23900   0.55380   0.87850   0.01267  Uiso   1.00
C10    C     0.26610   0.57370   0.95710   0.01267  Uiso   1.00
C11    C     0.19150   0.52100   0.00390   0.01267  Uiso   1.00
C12    C     0.09190   0.45290   0.97110   0.01267  Uiso   1.00
C13    C     0.13830   0.48260   0.84750   0.01267  Uiso   1.00
C14    C     0.00380   0.38960   0.01540   0.01267  Uiso   1.00
C15    C     0.08490   0.28740   0.76950   0.01267  Uiso   1.00
C16    C     0.13840   0.26820   0.84740   0.01267  Uiso   1.00
C17    C     0.24460   0.24900   0.86110   0.01267  Uiso   1.00
C18    C     0.28490   0.23540   0.93580   0.01267  Uiso   1.00
C19    C     0.21960   0.23800   0.99520   0.01267  Uiso   1.00
C20    C     0.11590   0.25430   0.97660   0.01267  Uiso   1.00
C21    C     0.26280   0.22640   0.07970   0.01267  Uiso   1.00
C22    C     0.65370   0.50420   0.74320   0.01267  Uiso   1.00
C23    C     0.67260   0.41880   0.76770   0.01267  Uiso   1.00
C24    C     0.78200   0.41500   0.79850   0.01267  Uiso   1.00
C25    C     0.69790   0.26400   0.81340   0.01267  Uiso   1.00
C26    C     0.58340   0.26320   0.78620   0.01267  Uiso   1.00
C27    C     0.56700   0.34070   0.76180   0.01267  Uiso   1.00
C28    C     0.72420   0.18250   0.83440   0.01267  Uiso   1.00
C29    C     0.17140   0.50230   0.62810   0.01267  Uiso   1.00
C30    C     0.03620   0.46070   0.60390   0.01267  Uiso   1.00
C31    C     0.96070   0.50950   0.59710   0.01267  Uiso   1.00
C32    C     0.84040   0.46750   0.56680   0.01267  Uiso   1.00
C33    C     0.80100   0.37760   0.54380   0.01267  Uiso   1.00
C34    C     0.88330   0.33510   0.55630   0.01267  Uiso   1.00
C35    C     0.67520   0.33130   0.50090   0.01267  Uiso   1.00
C36    C     0.10860   0.26550   0.43890   0.01267  Uiso   1.00
C37    C     0.02710   0.18620   0.47480   0.01267  Uiso   1.00
C38    C     0.95090   0.10980   0.43460   0.01267  Uiso   1.00
C39    C     0.88510   0.04200   0.47330   0.01267  Uiso   1.00
C40    C     0.89450   0.04790   0.55270   0.01267  Uiso   1.00
C41    C     0.97310   0.12770   0.59010   0.01267  Uiso   1.00
C42    C     0.82880   0.97390   0.59910   0.01267  Uiso   1.00
C43    C     0.52020   0.05680   0.34300   0.01267  Uiso   1.00
C44    C     0.55740   0.97560   0.35830   0.01267  Uiso   1.00
C45    C     0.53100   0.92810   0.42100   0.01267  Uiso   1.00
C46    C     0.62790   0.83440   0.39110   0.01267  Uiso   1.00
C47    C     0.65930   0.87890   0.32730   0.01267  Uiso   1.00
C48    C     0.62380   0.95060   0.30910   0.01267  Uiso   1.00
C49    C     0.65780   0.75550   0.41520   0.01267  Uiso   1.00
C50    C     0.67570   0.39490   0.17610   0.01267  Uiso   1.00
C51    C     0.76100   0.44620   0.12150   0.01267  Uiso   1.00
C52    C     0.73390   0.42630   0.04290   0.01267  Uiso   1.00
C53    C     0.80850   0.47900   0.99610   0.01267  Uiso   1.00
C54    C     0.90810   0.54710   0.02890   0.01267  Uiso   1.00
C55    C     0.86170   0.51740   0.15250   0.01267  Uiso   1.00
C56    C     0.99620   0.61040   0.98460   0.01267  Uiso   1.00
C57    C     0.91510   0.71260   0.23050   0.01267  Uiso   1.00
C58    C     0.86160   0.73180   0.15260   0.01267  Uiso   1.00
C59    C     0.75540   0.75100   0.13890   0.01267  Uiso   1.00
C60    C     0.71510   0.76460   0.06420   0.01267  Uiso   1.00
C61    C     0.78040   0.76200   0.00480   0.01267  Uiso   1.00
C62    C     0.88410   0.74570   0.02340   0.01267  Uiso   1.00
C63    C     0.73720   0.77360   0.92030   0.01267  Uiso   1.00
C64    C     0.34630   0.49580   0.25680   0.01267  Uiso   1.00
C65    C     0.32740   0.58120   0.23230   0.01267  Uiso   1.00
C66    C     0.21800   0.58500   0.20150   0.01267  Uiso   1.00
C67    C     0.30210   0.73600   0.18660   0.01267  Uiso   1.00
C68    C     0.41660   0.73680   0.21380   0.01267  Uiso   1.00
C69    C     0.43300   0.65930   0.23820   0.01267  Uiso   1.00
C70    C     0.27580   0.81750   0.16560   0.01267  Uiso   1.00
C71    C     0.82860   0.49770   0.37190   0.01267  Uiso   1.00
C72    C     0.96380   0.53930   0.39610   0.01267  Uiso   1.00
C73    C     0.03930   0.49050   0.40290   0.01267  Uiso   1.00
C74    C     0.15960   0.53250   0.43320   0.01267  Uiso   1.00
C75    C     0.19900   0.62240   0.45620   0.01267  Uiso   1.00
C76    C     0.11670   0.66490   0.44370   0.01267  Uiso   1.00
C77    C     0.32480   0.66870   0.49910   0.01267  Uiso   1.00
C78    C     0.89140   0.73450   0.56110   0.01267  Uiso   1.00
C79    C     0.97290   0.81380   0.52520   0.01267  Uiso   1.00
C80    C     0.04910   0.89020   0.56540   0.01267  Uiso   1.00
C81    C     0.11490   0.95800   0.52670   0.01267  Uiso   1.00
C82    C     0.10550   0.95210   0.44730   0.01267  Uiso   1.00
C83    C     0.02690   0.87230   0.40990   0.01267  Uiso   1.00
C84    C     0.17120   0.02610   0.40090   0.01267  Uiso   1.00
N1     N     0.43540   0.14030   0.56090   0.01267  Uiso   1.00
N2     N     0.06430   0.43300   0.89340   0.01267  Uiso   1.00
N3     N     0.07540   0.26960   0.90480   0.01267  Uiso   1.00
N4     N     0.99910   0.37320   0.58530   0.01267  Uiso   1.00
N5     N     0.03510   0.19540   0.55230   0.01267  Uiso   1.00
N6     N     0.79740   0.33860   0.82130   0.01267  Uiso   1.00
N7     N     0.56460   0.85970   0.43910   0.01267  Uiso   1.00
N8     N     0.93570   0.56700   0.10660   0.01267  Uiso   1.00
N9     N     0.92460   0.73040   0.09520   0.01267  Uiso   1.00
N10    N     0.00090   0.62680   0.41470   0.01267  Uiso   1.00
N11    N     0.96490   0.80460   0.44770   0.01267  Uiso   1.00
N12    N     0.20260   0.66140   0.17870   0.01267  Uiso   1.00
O1     O     0.62330   0.67050   0.62450   0.01267  Uiso   1.00
O2     O     0.32150   0.17280   0.29260   0.01267  Uiso   1.00
O3     O     0.58020   0.67310   0.77060   0.01267  Uiso   1.00
O4     O     0.43710   0.72970   0.66660   0.01267  Uiso   1.00
O5     O     0.52380   0.91870   0.60430   0.01267  Uiso   1.00
O6     O     0.46480   0.90850   0.71960   0.01267  Uiso   1.00
O7     O     0.37310   0.27770   0.52330   0.01267  Uiso   1.00
O8     O     0.29130   0.27630   0.62970   0.01267  Uiso   1.00
O9     O     0.74380   0.57050   0.74980   0.01267  Uiso   1.00
O10    O     0.54590   0.49640   0.71930   0.01267  Uiso   1.00
O11    O     0.64270   0.11130   0.82460   0.01267  Uiso   1.00
O12    O     0.83630   0.19370   0.85890   0.01267  Uiso   1.00
O13    O     0.23610   0.45420   0.63030   0.01267  Uiso   1.00
O14    O     0.21710   0.58500   0.63940   0.01267  Uiso   1.00
O15    O     0.63810   0.24920   0.49420   0.01267  Uiso   1.00
O16    O     0.61400   0.37790   0.47260   0.01267  Uiso   1.00
O17    O     0.15980   0.33350   0.48190   0.01267  Uiso   1.00
O18    O     0.11610   0.25730   0.36940   0.01267  Uiso   1.00
O19    O     0.84940   0.98660   0.67030   0.01267  Uiso   1.00
O20    O     0.75850   0.90430   0.56180   0.01267  Uiso   1.00
O21    O     0.37000   0.68670   0.83360   0.01267  Uiso   1.00
O22    O     0.34220   0.55660   0.77500   0.01267  Uiso   1.00
O23    O     0.91860   0.32850   0.97400   0.01267  Uiso   1.00
O24    O     0.01650   0.40230   0.08730   0.01267  Uiso   1.00
O25    O     0.13300   0.28550   0.71380   0.01267  Uiso   1.00
O26    O     0.98810   0.30550   0.76890   0.01267  Uiso   1.00
O27    O     0.35720   0.20720   0.09190   0.01267  Uiso   1.00
O28    O     0.20190   0.23830   0.12770   0.01267  Uiso   1.00
O29    O     0.06270   0.12870   0.23580   0.01267  Uiso   1.00
O30    O     0.37670   0.32950   0.37550   0.01267  Uiso   1.00
O31    O     0.67850   0.82720   0.70740   0.01267  Uiso   1.00
O32    O     0.41980   0.32690   0.22940   0.01267  Uiso   1.00
O33    O     0.56290   0.27030   0.33340   0.01267  Uiso   1.00
O34    O     0.47620   0.08130   0.39570   0.01267  Uiso   1.00
O35    O     0.53520   0.09150   0.28040   0.01267  Uiso   1.00
O36    O     0.62690   0.72230   0.47670   0.01267  Uiso   1.00
O37    O     0.70870   0.72370   0.37030   0.01267  Uiso   1.00
O38    O     0.25620   0.42950   0.25020   0.01267  Uiso   1.00
O39    O     0.45410   0.50360   0.28070   0.01267  Uiso   1.00
O40    O     0.35730   0.88870   0.17540   0.01267  Uiso   1.00
O41    O     0.16370   0.80630   0.14110   0.01267  Uiso   1.00
O42    O     0.76390   0.54580   0.36970   0.01267  Uiso   1.00
O43    O     0.78290   0.41500   0.36060   0.01267  Uiso   1.00
O44    O     0.36190   0.75080   0.50580   0.01267  Uiso   1.00
O45    O     0.38600   0.62210   0.52740   0.01267  Uiso   1.00
O46    O     0.84020   0.66650   0.51810   0.01267  Uiso   1.00
O47    O     0.88390   0.74270   0.63060   0.01267  Uiso   1.00
O48    O     0.15060   0.01340   0.32970   0.01267  Uiso   1.00
O49    O     0.24150   0.09570   0.43820   0.01267  Uiso   1.00
O50    O     0.63000   0.31330   0.16640   0.01267  Uiso   1.00
O51    O     0.65780   0.44340   0.22500   0.01267  Uiso   1.00
O52    O     0.08140   0.67150   0.02600   0.01267  Uiso   1.00
O53    O     0.98350   0.59770   0.91270   0.01267  Uiso   1.00
O54    O     0.86700   0.71450   0.28620   0.01267  Uiso   1.00
O55    O     0.01190   0.69450   0.23110   0.01267  Uiso   1.00
O56    O     0.64280   0.79280   0.90810   0.01267  Uiso   1.00
O57    O     0.79810   0.76170   0.87230   0.01267  Uiso   1.00
O58    O     0.93730   0.87130   0.76420   0.01267  Uiso   1.00
