data_image0
_cell_length_a       9.026
_cell_length_b       12.942
_cell_length_c       18.457
_cell_angle_alpha    81.718
_cell_angle_beta     84.77
_cell_angle_gamma    72.443

_symmetry_space_group_name_H-M    "P 1"
_symmetry_int_tables_number       1

loop_
  _symmetry_equiv_pos_as_xyz
  'x, y, z'

loop_
  _atom_site_label
  _atom_site_occupancy
  _atom_site_fract_x
  _atom_site_fract_y
  _atom_site_fract_z
  _atom_site_thermal_displace_type
  _atom_site_B_iso_or_equiv
  _atom_site_type_symbol
  Cu1      1.0000 0.42033  0.30359  0.34712  Biso   1.000  Cu
  N1       1.0000 0.27150  0.74249  0.89628  Biso   1.000  N
  N2       1.0000 0.16710  0.87937  0.95911  Biso   1.000  N
  N3       1.0000 0.22870  0.20651  0.88234  Biso   1.000  N
  N4       1.0000 0.07840  0.11082  0.93589  Biso   1.000  N
  N5       1.0000 0.22520  0.44730  0.14954  Biso   1.000  N
  N6       1.0000 0.33490  0.39482  0.25503  Biso   1.000  N
  N7       1.0000 0.12990  0.56899  0.44245  Biso   1.000  N
  N8       1.0000 0.30220  0.42376  0.40654  Biso   1.000  N
  N9       1.0000 0.72970  0.04472  0.25364  Biso   1.000  N
  N10      1.0000 0.53490  0.17838  0.29008  Biso   1.000  N
  N11      1.0000 0.36060  0.90710  0.47766  Biso   1.000  N
  N12      1.0000 0.51200  0.79725  0.56052  Biso   1.000  N
  C1       1.0000 0.27860  0.54860  0.90291  Biso   1.000  C
  C2       1.0000 0.32710  0.45210  0.87129  Biso   1.000  C
  C3       1.0000 0.31620  0.35490  0.91022  Biso   1.000  C
  C4       1.0000 0.25540  0.35440  0.98248  Biso   1.000  C
  C5       1.0000 0.20450  0.44990  0.01502  Biso   1.000  C
  C6       1.0000 0.21710  0.54740  0.97487  Biso   1.000  C
  C7       1.0000 0.28290  0.65260  0.85473  Biso   1.000  C
  C8       1.0000 0.13960  0.81620  0.91507  Biso   1.000  C
  C9       1.0000 0.32290  0.84440  0.96870  Biso   1.000  C
  C10      1.0000 0.38870  0.75930  0.92970  Biso   1.000  C
  C11      1.0000 0.35980  0.25240  0.87320  Biso   1.000  C
  C12      1.0000 0.22000  0.11940  0.92959  Biso   1.000  C
  C13      1.0000 0.98990  0.19860  0.89095  Biso   1.000  C
  C14      1.0000 0.08300  0.25750  0.85784  Biso   1.000  C
  C15      1.0000 0.12540  0.44910  0.09079  Biso   1.000  C
  C16      1.0000 0.26190  0.36690  0.20574  Biso   1.000  C
  C17      1.0000 0.34390  0.49850  0.22965  Biso   1.000  C
  C18      1.0000 0.27640  0.53140  0.16429  Biso   1.000  C
  C19      1.0000 0.01820  0.77000  0.40735  Biso   1.000  C
  C20      1.0000 0.94640  0.82210  0.34250  Biso   1.000  C
  C21      1.0000 0.96790  0.92090  0.30995  Biso   1.000  C
  C22      1.0000 0.06040  0.96740  0.34190  Biso   1.000  C
  C23      1.0000 0.13120  0.91730  0.40719  Biso   1.000  C
  C24      1.0000 0.10930  0.81860  0.43891  Biso   1.000  C
  C25      1.0000 0.99060  0.66430  0.44377  Biso   1.000  C
  C26      1.0000 0.16910  0.49980  0.39197  Biso   1.000  C
  C27      1.0000 0.34890  0.44660  0.46977  Biso   1.000  C
  C28      1.0000 0.24320  0.53610  0.49268  Biso   1.000  C
  C29      1.0000 0.88970  0.97780  0.23952  Biso   1.000  C
  C30      1.0000 0.68680  0.14240  0.27857  Biso   1.000  C
  C31      1.0000 0.47750  0.09940  0.27127  Biso   1.000  C
  C32      1.0000 0.59660  0.01630  0.24869  Biso   1.000  C
  C33      1.0000 0.21880  0.97700  0.44365  Biso   1.000  C
  C34      1.0000 0.36800  0.85130  0.54497  Biso   1.000  C
  C35      1.0000 0.60260  0.82080  0.50011  Biso   1.000  C
  C36      1.0000 0.50950  0.88800  0.44870  Biso   1.000  C
  H1       1.0000 0.36850  0.45290  0.82210  Biso   1.000  H
  H2       1.0000 0.24880  0.28770  0.00980  Biso   1.000  H
  H3       1.0000 0.18340  0.61320  0.99680  Biso   1.000  H
  H4       1.0000 0.38120  0.63830  0.82420  Biso   1.000  H
  H5       1.0000 0.19590  0.67440  0.82140  Biso   1.000  H
  H6       1.0000 0.03990  0.82230  0.89900  Biso   1.000  H
  H7       1.0000 0.37660  0.87460  0.99800  Biso   1.000  H
  H8       1.0000 0.49580  0.71940  0.92630  Biso   1.000  H
  H9       1.0000 0.38530  0.26970  0.82040  Biso   1.000  H
  H10      1.0000 0.45250  0.19860  0.89530  Biso   1.000  H
  H11      1.0000 0.30530  0.07030  0.95510  Biso   1.000  H
  H12      1.0000 0.88170  0.21460  0.88450  Biso   1.000  H
  H13      1.0000 0.05320  0.32200  0.82410  Biso   1.000  H
  H14      1.0000 0.03410  0.51480  0.09130  Biso   1.000  H
  H15      1.0000 0.08680  0.38430  0.10110  Biso   1.000  H
  H16      1.0000 0.23840  0.29950  0.20940  Biso   1.000  H
  H17      1.0000 0.38990  0.54000  0.25400  Biso   1.000  H
  H18      1.0000 0.26660  0.59920  0.13460  Biso   1.000  H
  H19      1.0000 0.88270  0.79000  0.32050  Biso   1.000  H
  H20      1.0000 0.07610  0.03420  0.31920  Biso   1.000  H
  H21      1.0000 0.15790  0.78380  0.48320  Biso   1.000  H
  H22      1.0000 0.95370  0.67270  0.49540  Biso   1.000  H
  H23      1.0000 0.90720  0.65050  0.41880  Biso   1.000  H
  H24      1.0000 0.10950  0.50440  0.35110  Biso   1.000  H
  H25      1.0000 0.44120  0.40580  0.49370  Biso   1.000  H
  H26      1.0000 0.24670  0.56940  0.53490  Biso   1.000  H
  H27      1.0000 0.95050  0.02470  0.21270  Biso   1.000  H
  H28      1.0000 0.88900  0.92220  0.20800  Biso   1.000  H
  H29      1.0000 0.75710  0.18080  0.28690  Biso   1.000  H
  H30      1.0000 0.37070  0.10250  0.27370  Biso   1.000  H
  H31      1.0000 0.58950  0.95150  0.23270  Biso   1.000  H
  H32      1.0000 0.24650  0.03230  0.40650  Biso   1.000  H
  H33      1.0000 0.14860  0.01630  0.48170  Biso   1.000  H
  H34      1.0000 0.28000  0.85100  0.57740  Biso   1.000  H
  H35      1.0000 0.71280  0.79420  0.49530  Biso   1.000  H
  H36      1.0000 0.54160  0.91640  0.40160  Biso   1.000  H
  Cu2      1.0000 0.57967  0.69641  0.65288  Biso   1.000  Cu
  N13      1.0000 0.72850  0.25751  0.10372  Biso   1.000  N
  N14      1.0000 0.83290  0.12063  0.04089  Biso   1.000  N
  N15      1.0000 0.77130  0.79349  0.11766  Biso   1.000  N
  N16      1.0000 0.92160  0.88918  0.06411  Biso   1.000  N
  N17      1.0000 0.77480  0.55270  0.85046  Biso   1.000  N
  N18      1.0000 0.66510  0.60518  0.74497  Biso   1.000  N
  N19      1.0000 0.87010  0.43101  0.55755  Biso   1.000  N
  N20      1.0000 0.69780  0.57624  0.59346  Biso   1.000  N
  N21      1.0000 0.27030  0.95528  0.74636  Biso   1.000  N
  N22      1.0000 0.46510  0.82162  0.70992  Biso   1.000  N
  N23      1.0000 0.63940  0.09290  0.52234  Biso   1.000  N
  N24      1.0000 0.48800  0.20275  0.43948  Biso   1.000  N
  C37      1.0000 0.72140  0.45140  0.09709  Biso   1.000  C
  C38      1.0000 0.67290  0.54790  0.12871  Biso   1.000  C
  C39      1.0000 0.68380  0.64510  0.08978  Biso   1.000  C
  C40      1.0000 0.74460  0.64560  0.01752  Biso   1.000  C
  C41      1.0000 0.79550  0.55010  0.98498  Biso   1.000  C
  C42      1.0000 0.78290  0.45260  0.02513  Biso   1.000  C
  C43      1.0000 0.71710  0.34740  0.14527  Biso   1.000  C
  C44      1.0000 0.86040  0.18380  0.08493  Biso   1.000  C
  C45      1.0000 0.67710  0.15560  0.03130  Biso   1.000  C
  C46      1.0000 0.61130  0.24070  0.07030  Biso   1.000  C
  C47      1.0000 0.64020  0.74760  0.12680  Biso   1.000  C
  C48      1.0000 0.78000  0.88060  0.07041  Biso   1.000  C
  C49      1.0000 0.01010  0.80140  0.10905  Biso   1.000  C
  C50      1.0000 0.91700  0.74250  0.14216  Biso   1.000  C
  C51      1.0000 0.87460  0.55090  0.90921  Biso   1.000  C
  C52      1.0000 0.73810  0.63310  0.79426  Biso   1.000  C
  C53      1.0000 0.65610  0.50150  0.77035  Biso   1.000  C
  C54      1.0000 0.72360  0.46860  0.83571  Biso   1.000  C
  C55      1.0000 0.98180  0.23000  0.59265  Biso   1.000  C
  C56      1.0000 0.05360  0.17790  0.65750  Biso   1.000  C
  C57      1.0000 0.03210  0.07910  0.69005  Biso   1.000  C
  C58      1.0000 0.93960  0.03260  0.65810  Biso   1.000  C
  C59      1.0000 0.86880  0.08270  0.59281  Biso   1.000  C
  C60      1.0000 0.89070  0.18140  0.56109  Biso   1.000  C
  C61      1.0000 0.00940  0.33570  0.55623  Biso   1.000  C
  C62      1.0000 0.83090  0.50020  0.60803  Biso   1.000  C
  C63      1.0000 0.65110  0.55340  0.53023  Biso   1.000  C
  C64      1.0000 0.75680  0.46390  0.50732  Biso   1.000  C
  C65      1.0000 0.11030  0.02220  0.76048  Biso   1.000  C
  C66      1.0000 0.31320  0.85760  0.72143  Biso   1.000  C
  C67      1.0000 0.52250  0.90060  0.72873  Biso   1.000  C
  C68      1.0000 0.40340  0.98370  0.75131  Biso   1.000  C
  C69      1.0000 0.78120  0.02300  0.55635  Biso   1.000  C
  C70      1.0000 0.63200  0.14870  0.45503  Biso   1.000  C
  C71      1.0000 0.39740  0.17920  0.49989  Biso   1.000  C
  C72      1.0000 0.49050  0.11200  0.55130  Biso   1.000  C
  H37      1.0000 0.63150  0.54710  0.17790  Biso   1.000  H
  H38      1.0000 0.75120  0.71230  0.99020  Biso   1.000  H
  H39      1.0000 0.81660  0.38680  0.00320  Biso   1.000  H
  H40      1.0000 0.61880  0.36170  0.17580  Biso   1.000  H
  H41      1.0000 0.80410  0.32560  0.17860  Biso   1.000  H
  H42      1.0000 0.96010  0.17770  0.10100  Biso   1.000  H
  H43      1.0000 0.62340  0.12540  0.00200  Biso   1.000  H
  H44      1.0000 0.50420  0.28060  0.07370  Biso   1.000  H
  H45      1.0000 0.61470  0.73030  0.17960  Biso   1.000  H
  H46      1.0000 0.54750  0.80140  0.10470  Biso   1.000  H
  H47      1.0000 0.69470  0.92970  0.04490  Biso   1.000  H
  H48      1.0000 0.11830  0.78540  0.11550  Biso   1.000  H
  H49      1.0000 0.94680  0.67800  0.17590  Biso   1.000  H
  H50      1.0000 0.96590  0.48520  0.90870  Biso   1.000  H
  H51      1.0000 0.91320  0.61570  0.89890  Biso   1.000  H
  H52      1.0000 0.76160  0.70050  0.79060  Biso   1.000  H
  H53      1.0000 0.61010  0.46000  0.74600  Biso   1.000  H
  H54      1.0000 0.73340  0.40080  0.86540  Biso   1.000  H
  H55      1.0000 0.11730  0.21000  0.67950  Biso   1.000  H
  H56      1.0000 0.92390  0.96580  0.68080  Biso   1.000  H
  H57      1.0000 0.84210  0.21620  0.51680  Biso   1.000  H
  H58      1.0000 0.04630  0.32730  0.50460  Biso   1.000  H
  H59      1.0000 0.09280  0.34950  0.58120  Biso   1.000  H
  H60      1.0000 0.89050  0.49560  0.64890  Biso   1.000  H
  H61      1.0000 0.55880  0.59420  0.50630  Biso   1.000  H
  H62      1.0000 0.75330  0.43060  0.46510  Biso   1.000  H
  H63      1.0000 0.04950  0.97530  0.78730  Biso   1.000  H
  H64      1.0000 0.11100  0.07780  0.79200  Biso   1.000  H
  H65      1.0000 0.24290  0.81920  0.71310  Biso   1.000  H
  H66      1.0000 0.62930  0.89750  0.72630  Biso   1.000  H
  H67      1.0000 0.41050  0.04850  0.76730  Biso   1.000  H
  H68      1.0000 0.75350  0.96770  0.59350  Biso   1.000  H
  H69      1.0000 0.85140  0.98370  0.51830  Biso   1.000  H
  H70      1.0000 0.72000  0.14900  0.42260  Biso   1.000  H
  H71      1.0000 0.28720  0.20580  0.50470  Biso   1.000  H
  H72      1.0000 0.45840  0.08360  0.59840  Biso   1.000  H
  Cu3      1.0000 0.00000  0.00000  0.00000  Biso   1.000  Cu
