data_FOXQIT_charged
_audit_creation_date              2014-07-02
_audit_creation_method            'Materials Studio'
_symmetry_space_group_name_H-M    'P1'
_symmetry_Int_Tables_number       1
_symmetry_cell_setting            triclinic
loop_
_symmetry_equiv_pos_as_xyz
  x,y,z
_cell_length_a                    9.3330
_cell_length_b                    12.2631
_cell_length_c                    20.4796
_cell_angle_alpha                 75.9866
_cell_angle_beta                  76.8288
_cell_angle_gamma                 67.6334
loop_
_atom_site_label
_atom_site_type_symbol
_atom_site_fract_x
_atom_site_fract_y
_atom_site_fract_z
_atom_site_U_iso_or_equiv
_atom_site_adp_type
_atom_site_occupancy
Cd1    Cd    0.00000   0.00000   0.00000   0.01267  Uiso   1.00
Cd2    Cd    0.00000   0.50000   0.50000   0.01267  Uiso   1.00
H1     H     0.56580   0.82050   0.83610   0.01267  Uiso   1.00
H2     H     0.88150   0.50290   0.79990   0.01267  Uiso   1.00
H3     H     0.91870   0.65480   0.94420   0.01267  Uiso   1.00
H4     H     0.66460   0.93040   0.90440   0.01267  Uiso   1.00
H5     H     0.75010   0.84480   0.96480   0.01267  Uiso   1.00
H6     H     0.56820   0.74690   0.06850   0.01267  Uiso   1.00
H7     H     0.28550   0.80950   0.10190   0.01267  Uiso   1.00
H8     H     0.36730   0.98900   0.92120   0.01267  Uiso   1.00
H9     H     0.53460   0.73820   0.75000   0.01267  Uiso   1.00
H10    H     0.59190   0.59800   0.76300   0.01267  Uiso   1.00
H11    H     0.78580   0.81860   0.67020   0.01267  Uiso   1.00
H12    H     0.94990   0.74960   0.56620   0.01267  Uiso   1.00
H13    H     0.75020   0.51330   0.65830   0.01267  Uiso   1.00
H14    H     0.09380   0.46510   0.93350   0.01267  Uiso   1.00
H15    H     0.15930   0.47880   0.85560   0.01267  Uiso   1.00
H16    H     0.22120   0.29500   0.79940   0.01267  Uiso   1.00
H17    H     0.17150   0.10780   0.83660   0.01267  Uiso   1.00
H18    H     0.94360   0.30290   0.97630   0.01267  Uiso   1.00
H19    H     0.22240   0.67950   0.66390   0.01267  Uiso   1.00
H20    H     0.18430   0.99710   0.70010   0.01267  Uiso   1.00
H21    H     0.51770   0.84520   0.55580   0.01267  Uiso   1.00
H22    H     0.49940   0.56960   0.59560   0.01267  Uiso   1.00
H23    H     0.55970   0.65520   0.53520   0.01267  Uiso   1.00
H24    H     0.38360   0.75310   0.43150   0.01267  Uiso   1.00
H25    H     0.19690   0.69050   0.39810   0.01267  Uiso   1.00
H26    H     0.27750   0.51100   0.57880   0.01267  Uiso   1.00
H27    H     0.02280   0.76180   0.75000   0.01267  Uiso   1.00
H28    H     0.95290   0.90200   0.73700   0.01267  Uiso   1.00
H29    H     0.27460   0.68140   0.82980   0.01267  Uiso   1.00
H30    H     0.26570   0.75040   0.93380   0.01267  Uiso   1.00
H31    H     0.92180   0.98670   0.84170   0.01267  Uiso   1.00
H32    H     0.49240   0.03490   0.56650   0.01267  Uiso   1.00
H33    H     0.49370   0.02120   0.64440   0.01267  Uiso   1.00
H34    H     0.31560   0.20500   0.70060   0.01267  Uiso   1.00
H35    H     0.11590   0.39220   0.66340   0.01267  Uiso   1.00
H36    H     0.22280   0.19710   0.52370   0.01267  Uiso   1.00
H37    H     0.43420   0.17950   0.16390   0.01267  Uiso   1.00
H38    H     0.11850   0.49710   0.20010   0.01267  Uiso   1.00
H39    H     0.08130   0.34520   0.05580   0.01267  Uiso   1.00
H40    H     0.33540   0.06960   0.09560   0.01267  Uiso   1.00
H41    H     0.24990   0.15520   0.03520   0.01267  Uiso   1.00
H42    H     0.43180   0.25310   0.93150   0.01267  Uiso   1.00
H43    H     0.71450   0.19050   0.89810   0.01267  Uiso   1.00
H44    H     0.63270   0.01100   0.07880   0.01267  Uiso   1.00
H45    H     0.46540   0.26180   0.25000   0.01267  Uiso   1.00
H46    H     0.40810   0.40200   0.23700   0.01267  Uiso   1.00
H47    H     0.21420   0.18140   0.32980   0.01267  Uiso   1.00
H48    H     0.05010   0.25040   0.43380   0.01267  Uiso   1.00
H49    H     0.24980   0.48670   0.34170   0.01267  Uiso   1.00
H50    H     0.90620   0.53490   0.06650   0.01267  Uiso   1.00
H51    H     0.84070   0.52120   0.14440   0.01267  Uiso   1.00
H52    H     0.77880   0.70500   0.20060   0.01267  Uiso   1.00
H53    H     0.82850   0.89220   0.16340   0.01267  Uiso   1.00
H54    H     0.05640   0.69710   0.02370   0.01267  Uiso   1.00
H55    H     0.77760   0.32050   0.33610   0.01267  Uiso   1.00
H56    H     0.81570   0.00290   0.29990   0.01267  Uiso   1.00
H57    H     0.48230   0.15480   0.44420   0.01267  Uiso   1.00
H58    H     0.50060   0.43040   0.40440   0.01267  Uiso   1.00
H59    H     0.44030   0.34480   0.46480   0.01267  Uiso   1.00
H60    H     0.61640   0.24690   0.56850   0.01267  Uiso   1.00
H61    H     0.80310   0.30950   0.60190   0.01267  Uiso   1.00
H62    H     0.72250   0.48900   0.42120   0.01267  Uiso   1.00
H63    H     0.97720   0.23820   0.25000   0.01267  Uiso   1.00
H64    H     0.04710   0.09800   0.26300   0.01267  Uiso   1.00
H65    H     0.72540   0.31860   0.17020   0.01267  Uiso   1.00
H66    H     0.73430   0.24960   0.06620   0.01267  Uiso   1.00
H67    H     0.07820   0.01330   0.15830   0.01267  Uiso   1.00
H68    H     0.50760   0.96510   0.43350   0.01267  Uiso   1.00
H69    H     0.50630   0.97880   0.35560   0.01267  Uiso   1.00
H70    H     0.68440   0.79500   0.29940   0.01267  Uiso   1.00
H71    H     0.88410   0.60780   0.33660   0.01267  Uiso   1.00
H72    H     0.77720   0.80290   0.47630   0.01267  Uiso   1.00
C1     C     0.73300   0.75380   0.89700   0.01267  Uiso   1.00
C2     C     0.65530   0.75570   0.84590   0.01267  Uiso   1.00
C3     C     0.71010   0.66180   0.80940   0.01267  Uiso   1.00
C4     C     0.84410   0.56580   0.82420   0.01267  Uiso   1.00
C5     C     0.92285   0.56230   0.87460   0.01267  Uiso   1.00
C6     C     0.86580   0.65690   0.91030   0.01267  Uiso   1.00
C7     C     0.67400   0.85610   0.93630   0.01267  Uiso   1.00
C8     C     0.49350   0.80320   0.04280   0.01267  Uiso   1.00
C9     C     0.33760   0.83810   0.06090   0.01267  Uiso   1.00
C10    C     0.38175   0.93630   0.96220   0.01267  Uiso   1.00
C11    C     0.62650   0.66620   0.75280   0.01267  Uiso   1.00
C12    C     0.79870   0.74910   0.65530   0.01267  Uiso   1.00
C13    C     0.88880   0.71030   0.59770   0.01267  Uiso   1.00
C14    C     0.78021   0.58058   0.64780   0.01267  Uiso   1.00
C15    C     0.07450   0.46340   0.88920   0.01267  Uiso   1.00
C16    C     0.15910   0.27410   0.83930   0.01267  Uiso   1.00
C17    C     0.13140   0.17110   0.86050   0.01267  Uiso   1.00
C18    C     0.00650   0.27670   0.93690   0.01267  Uiso   1.00
C19    C     0.38380   0.74620   0.60300   0.01267  Uiso   1.00
C20    C     0.25690   0.74430   0.65410   0.01267  Uiso   1.00
C21    C     0.18130   0.83820   0.69060   0.01267  Uiso   1.00
C22    C     0.23410   0.93420   0.67580   0.01267  Uiso   1.00
C23    C     0.35975   0.93770   0.62540   0.01267  Uiso   1.00
C24    C     0.43300   0.84310   0.58970   0.01267  Uiso   1.00
C25    C     0.46640   0.64390   0.56370   0.01267  Uiso   1.00
C26    C     0.33950   0.69680   0.45720   0.01267  Uiso   1.00
C27    C     0.23660   0.66190   0.43910   0.01267  Uiso   1.00
C28    C     0.28025   0.56370   0.53780   0.01267  Uiso   1.00
C29    C     0.04550   0.83380   0.74720   0.01267  Uiso   1.00
C30    C     0.20310   0.75090   0.84470   0.01267  Uiso   1.00
C31    C     0.19680   0.78970   0.90230   0.01267  Uiso   1.00
C32    C     0.00859   0.91942   0.85220   0.01267  Uiso   1.00
C33    C     0.42710   0.03660   0.61080   0.01267  Uiso   1.00
C34    C     0.27250   0.22590   0.66070   0.01267  Uiso   1.00
C35    C     0.16300   0.32890   0.63950   0.01267  Uiso   1.00
C36    C     0.22010   0.22330   0.56310   0.01267  Uiso   1.00
C37    C     0.26700   0.24620   0.10300   0.01267  Uiso   1.00
C38    C     0.34470   0.24430   0.15410   0.01267  Uiso   1.00
C39    C     0.28990   0.33820   0.19060   0.01267  Uiso   1.00
C40    C     0.15590   0.43420   0.17580   0.01267  Uiso   1.00
C41    C     0.07715   0.43770   0.12540   0.01267  Uiso   1.00
C42    C     0.13420   0.34310   0.08970   0.01267  Uiso   1.00
C43    C     0.32600   0.14390   0.06370   0.01267  Uiso   1.00
C44    C     0.50650   0.19680   0.95720   0.01267  Uiso   1.00
C45    C     0.66240   0.16190   0.93910   0.01267  Uiso   1.00
C46    C     0.61825   0.06370   0.03780   0.01267  Uiso   1.00
C47    C     0.37350   0.33380   0.24720   0.01267  Uiso   1.00
C48    C     0.20130   0.25090   0.34470   0.01267  Uiso   1.00
C49    C     0.11120   0.28970   0.40230   0.01267  Uiso   1.00
C50    C     0.21979   0.41942   0.35220   0.01267  Uiso   1.00
C51    C     0.92550   0.53660   0.11080   0.01267  Uiso   1.00
C52    C     0.84090   0.72590   0.16070   0.01267  Uiso   1.00
C53    C     0.86860   0.82890   0.13950   0.01267  Uiso   1.00
C54    C     0.99350   0.72330   0.06310   0.01267  Uiso   1.00
C55    C     0.61620   0.25380   0.39700   0.01267  Uiso   1.00
C56    C     0.74310   0.25570   0.34590   0.01267  Uiso   1.00
C57    C     0.81870   0.16180   0.30940   0.01267  Uiso   1.00
C58    C     0.76590   0.06580   0.32420   0.01267  Uiso   1.00
C59    C     0.64025   0.06230   0.37460   0.01267  Uiso   1.00
C60    C     0.56700   0.15690   0.41030   0.01267  Uiso   1.00
C61    C     0.53360   0.35610   0.43630   0.01267  Uiso   1.00
C62    C     0.66050   0.30320   0.54280   0.01267  Uiso   1.00
C63    C     0.76340   0.33810   0.56090   0.01267  Uiso   1.00
C64    C     0.71975   0.43630   0.46220   0.01267  Uiso   1.00
C65    C     0.95450   0.16620   0.25280   0.01267  Uiso   1.00
C66    C     0.79690   0.24910   0.15530   0.01267  Uiso   1.00
C67    C     0.80320   0.21030   0.09770   0.01267  Uiso   1.00
C68    C     0.99141   0.08058   0.14780   0.01267  Uiso   1.00
C69    C     0.57290   0.96340   0.38920   0.01267  Uiso   1.00
C70    C     0.72750   0.77410   0.33930   0.01267  Uiso   1.00
C71    C     0.83700   0.67110   0.36050   0.01267  Uiso   1.00
C72    C     0.77990   0.77670   0.43690   0.01267  Uiso   1.00
N1     N     0.52173   0.86644   0.97910   0.01267  Uiso   1.00
N2     N     0.26684   0.92242   0.00990   0.01267  Uiso   1.00
N3     N     0.73087   0.66506   0.68700   0.01267  Uiso   1.00
N4     N     0.87631   0.60398   0.59280   0.01267  Uiso   1.00
N5     N     0.07697   0.34254   0.88872   0.01267  Uiso   1.00
N6     N     0.03575   0.17127   0.92243   0.01267  Uiso   1.00
N7     N     0.36727   0.63356   0.52090   0.01267  Uiso   1.00
N8     N     0.19916   0.57758   0.49010   0.01267  Uiso   1.00
N9     N     0.08293   0.83494   0.81300   0.01267  Uiso   1.00
N10    N     0.07309   0.89602   0.90720   0.01267  Uiso   1.00
N11    N     0.30823   0.15746   0.61128   0.01267  Uiso   1.00
N12    N     0.12945   0.32873   0.57757   0.01267  Uiso   1.00
N13    N     0.47827   0.13356   0.02090   0.01267  Uiso   1.00
N14    N     0.73316   0.07758   0.99010   0.01267  Uiso   1.00
N15    N     0.26913   0.33494   0.31300   0.01267  Uiso   1.00
N16    N     0.12369   0.39602   0.40720   0.01267  Uiso   1.00
N17    N     0.92303   0.65746   0.11128   0.01267  Uiso   1.00
N18    N     0.96425   0.82873   0.07757   0.01267  Uiso   1.00
N19    N     0.63273   0.36644   0.47910   0.01267  Uiso   1.00
N20    N     0.80084   0.42242   0.50990   0.01267  Uiso   1.00
N21    N     0.91707   0.16506   0.18700   0.01267  Uiso   1.00
N22    N     0.92691   0.10398   0.09280   0.01267  Uiso   1.00
N23    N     0.69177   0.84254   0.38872   0.01267  Uiso   1.00
N24    N     0.87055   0.67127   0.42243   0.01267  Uiso   1.00
N25    N     0.60650   0.04370   0.75690   0.01267  Uiso   1.00
O1     O     0.47800   0.02590   0.77030   0.01267  Uiso   1.00
O2     O     0.68000   0.03280   0.70220   0.01267  Uiso   1.00
O3     O     0.65460   0.06670   0.79890   0.01267  Uiso   1.00
N26    N     0.40710   0.45630   0.74310   0.01267  Uiso   1.00
O4     O     0.27420   0.47410   0.72970   0.01267  Uiso   1.00
O5     O     0.41500   0.46720   0.79780   0.01267  Uiso   1.00
O6     O     0.52020   0.43330   0.70110   0.01267  Uiso   1.00
N27    N     0.39350   0.95630   0.24310   0.01267  Uiso   1.00
O7     O     0.52200   0.97410   0.22970   0.01267  Uiso   1.00
O8     O     0.32000   0.96720   0.29780   0.01267  Uiso   1.00
O9     O     0.34540   0.93330   0.20110   0.01267  Uiso   1.00
N28    N     0.59290   0.54370   0.25690   0.01267  Uiso   1.00
O10    O     0.72580   0.52590   0.27030   0.01267  Uiso   1.00
O11    O     0.58500   0.53280   0.20220   0.01267  Uiso   1.00
O12    O     0.47980   0.56670   0.29890   0.01267  Uiso   1.00
