data_image0
_cell_length_a       16.8446
_cell_length_b       15.1638
_cell_length_c       8.3702
_cell_angle_alpha    90
_cell_angle_beta     116.29
_cell_angle_gamma    90

_symmetry_space_group_name_H-M    "P 1"
_symmetry_int_tables_number       1

loop_
  _symmetry_equiv_pos_as_xyz
  'x, y, z'

loop_
  _atom_site_label
  _atom_site_occupancy
  _atom_site_fract_x
  _atom_site_fract_y
  _atom_site_fract_z
  _atom_site_thermal_displace_type
  _atom_site_B_iso_or_equiv
  _atom_site_type_symbol
  C1       1.0000 0.12487  0.94120  0.58960  Biso   1.000  C
  C2       1.0000 0.20569  0.89270  0.72340  Biso   1.000  C
  C3       1.0000 0.23000  0.81110  0.68500  Biso   1.000  C
  H1       1.0000 0.19770  0.78610  0.57320  Biso   1.000  H
  C4       1.0000 0.30200  0.76650  0.81160  Biso   1.000  C
  H2       1.0000 0.31740  0.71170  0.78430  Biso   1.000  H
  C5       1.0000 0.35163  0.80289  0.97960  Biso   1.000  C
  C6       1.0000 0.32640  0.88470  0.01630  Biso   1.000  C
  H3       1.0000 0.35870  0.91000  0.12790  Biso   1.000  H
  C7       1.0000 0.25430  0.92910  0.89000  Biso   1.000  C
  H4       1.0000 0.23840  0.98380  0.91730  Biso   1.000  H
  C8       1.0000 0.43352  0.66472  0.12230  Biso   1.000  C
  H5       1.0000 0.38810  0.63350  0.03240  Biso   1.000  H
  C9       1.0000 0.42978  0.75636  0.11890  Biso   1.000  C
  O1       1.0000 0.08836  0.90945  0.43350  Biso   1.000  O
  O2       1.0000 0.10011  0.00924  0.63740  Biso   1.000  O
  C10      1.0000 0.62487  0.44120  0.58960  Biso   1.000  C
  C11      1.0000 0.70569  0.39270  0.72340  Biso   1.000  C
  C12      1.0000 0.73000  0.31110  0.68500  Biso   1.000  C
  H6       1.0000 0.69770  0.28610  0.57320  Biso   1.000  H
  C13      1.0000 0.80200  0.26650  0.81160  Biso   1.000  C
  H7       1.0000 0.81740  0.21170  0.78430  Biso   1.000  H
  C14      1.0000 0.85163  0.30289  0.97960  Biso   1.000  C
  C15      1.0000 0.82640  0.38470  0.01630  Biso   1.000  C
  H8       1.0000 0.85870  0.41000  0.12790  Biso   1.000  H
  C16      1.0000 0.75430  0.42910  0.89000  Biso   1.000  C
  H9       1.0000 0.73840  0.48380  0.91730  Biso   1.000  H
  C17      1.0000 0.93352  0.16472  0.12230  Biso   1.000  C
  H10      1.0000 0.88810  0.13350  0.03240  Biso   1.000  H
  C18      1.0000 0.92978  0.25636  0.11890  Biso   1.000  C
  O3       1.0000 0.58836  0.40945  0.43350  Biso   1.000  O
  O4       1.0000 0.60011  0.50924  0.63740  Biso   1.000  O
  C19      1.0000 0.87513  0.94120  0.91040  Biso   1.000  C
  C20      1.0000 0.79431  0.89270  0.77660  Biso   1.000  C
  C21      1.0000 0.77000  0.81110  0.81500  Biso   1.000  C
  H11      1.0000 0.80230  0.78610  0.92680  Biso   1.000  H
  C22      1.0000 0.69800  0.76650  0.68840  Biso   1.000  C
  H12      1.0000 0.68260  0.71170  0.71570  Biso   1.000  H
  C23      1.0000 0.64837  0.80289  0.52040  Biso   1.000  C
  C24      1.0000 0.67360  0.88470  0.48370  Biso   1.000  C
  H13      1.0000 0.64130  0.91000  0.37210  Biso   1.000  H
  C25      1.0000 0.74570  0.92910  0.61000  Biso   1.000  C
  H14      1.0000 0.76160  0.98380  0.58270  Biso   1.000  H
  C26      1.0000 0.56648  0.66472  0.37770  Biso   1.000  C
  H15      1.0000 0.61190  0.63350  0.46760  Biso   1.000  H
  C27      1.0000 0.57022  0.75636  0.38110  Biso   1.000  C
  O5       1.0000 0.91164  0.90945  0.06650  Biso   1.000  O
  O6       1.0000 0.89989  0.00924  0.86260  Biso   1.000  O
  C28      1.0000 0.37513  0.44120  0.91040  Biso   1.000  C
  C29      1.0000 0.29431  0.39270  0.77660  Biso   1.000  C
  C30      1.0000 0.27000  0.31110  0.81500  Biso   1.000  C
  H16      1.0000 0.30230  0.28610  0.92680  Biso   1.000  H
  C31      1.0000 0.19800  0.26650  0.68840  Biso   1.000  C
  H17      1.0000 0.18260  0.21170  0.71570  Biso   1.000  H
  C32      1.0000 0.14837  0.30289  0.52040  Biso   1.000  C
  C33      1.0000 0.17360  0.38470  0.48370  Biso   1.000  C
  H18      1.0000 0.14130  0.41000  0.37210  Biso   1.000  H
  C34      1.0000 0.24570  0.42910  0.61000  Biso   1.000  C
  H19      1.0000 0.26160  0.48380  0.58270  Biso   1.000  H
  C35      1.0000 0.06648  0.16472  0.37770  Biso   1.000  C
  H20      1.0000 0.11190  0.13350  0.46760  Biso   1.000  H
  C36      1.0000 0.07022  0.25636  0.38110  Biso   1.000  C
  O7       1.0000 0.41164  0.40945  0.06650  Biso   1.000  O
  O8       1.0000 0.39989  0.50924  0.86260  Biso   1.000  O
  Zn1      1.0000 0.00000  0.98363  0.25000  Biso   1.000  Zn
  Zn2      1.0000 0.50000  0.48363  0.25000  Biso   1.000  Zn
  C37      1.0000 0.50000  0.80130  0.25000  Biso   1.000  C
  H21      1.0000 0.50000  0.86270  0.25000  Biso   1.000  H
  N1       1.0000 0.50000  0.61930  0.25000  Biso   1.000  N
  C38      1.0000 0.00000  0.30130  0.25000  Biso   1.000  C
  H22      1.0000 0.00000  0.36270  0.25000  Biso   1.000  H
  N2       1.0000 0.00000  0.11930  0.25000  Biso   1.000  N
  C39      1.0000 0.87513  0.05880  0.41040  Biso   1.000  C
  C40      1.0000 0.79431  0.10730  0.27660  Biso   1.000  C
  C41      1.0000 0.77000  0.18890  0.31500  Biso   1.000  C
  H23      1.0000 0.80230  0.21390  0.42680  Biso   1.000  H
  C42      1.0000 0.69800  0.23350  0.18840  Biso   1.000  C
  H24      1.0000 0.68260  0.28830  0.21570  Biso   1.000  H
  C43      1.0000 0.64837  0.19711  0.02040  Biso   1.000  C
  C44      1.0000 0.67360  0.11530  0.98370  Biso   1.000  C
  H25      1.0000 0.64130  0.09000  0.87210  Biso   1.000  H
  C45      1.0000 0.74570  0.07090  0.11000  Biso   1.000  C
  H26      1.0000 0.76160  0.01620  0.08270  Biso   1.000  H
  C46      1.0000 0.56648  0.33528  0.87770  Biso   1.000  C
  H27      1.0000 0.61190  0.36650  0.96760  Biso   1.000  H
  C47      1.0000 0.57022  0.24364  0.88110  Biso   1.000  C
  O9       1.0000 0.91164  0.09055  0.56650  Biso   1.000  O
  O10      1.0000 0.89989  0.99076  0.36260  Biso   1.000  O
  C48      1.0000 0.37513  0.55880  0.41040  Biso   1.000  C
  C49      1.0000 0.29431  0.60730  0.27660  Biso   1.000  C
  C50      1.0000 0.27000  0.68890  0.31500  Biso   1.000  C
  H28      1.0000 0.30230  0.71390  0.42680  Biso   1.000  H
  C51      1.0000 0.19800  0.73350  0.18840  Biso   1.000  C
  H29      1.0000 0.18260  0.78830  0.21570  Biso   1.000  H
  C52      1.0000 0.14837  0.69711  0.02040  Biso   1.000  C
  C53      1.0000 0.17360  0.61530  0.98370  Biso   1.000  C
  H30      1.0000 0.14130  0.59000  0.87210  Biso   1.000  H
  C54      1.0000 0.24570  0.57090  0.11000  Biso   1.000  C
  H31      1.0000 0.26160  0.51620  0.08270  Biso   1.000  H
  C55      1.0000 0.06648  0.83528  0.87770  Biso   1.000  C
  H32      1.0000 0.11190  0.86650  0.96760  Biso   1.000  H
  C56      1.0000 0.07022  0.74364  0.88110  Biso   1.000  C
  O11      1.0000 0.41164  0.59055  0.56650  Biso   1.000  O
  O12      1.0000 0.39989  0.49076  0.36260  Biso   1.000  O
  C57      1.0000 0.12487  0.05880  0.08960  Biso   1.000  C
  C58      1.0000 0.20569  0.10730  0.22340  Biso   1.000  C
  C59      1.0000 0.23000  0.18890  0.18500  Biso   1.000  C
  H33      1.0000 0.19770  0.21390  0.07320  Biso   1.000  H
  C60      1.0000 0.30200  0.23350  0.31160  Biso   1.000  C
  H34      1.0000 0.31740  0.28830  0.28430  Biso   1.000  H
  C61      1.0000 0.35163  0.19711  0.47960  Biso   1.000  C
  C62      1.0000 0.32640  0.11530  0.51630  Biso   1.000  C
  H35      1.0000 0.35870  0.09000  0.62790  Biso   1.000  H
  C63      1.0000 0.25430  0.07090  0.39000  Biso   1.000  C
  H36      1.0000 0.23840  0.01620  0.41730  Biso   1.000  H
  C64      1.0000 0.43352  0.33528  0.62230  Biso   1.000  C
  H37      1.0000 0.38810  0.36650  0.53240  Biso   1.000  H
  C65      1.0000 0.42978  0.24364  0.61890  Biso   1.000  C
  O13      1.0000 0.08836  0.09055  0.93350  Biso   1.000  O
  O14      1.0000 0.10011  0.99076  0.13740  Biso   1.000  O
  C66      1.0000 0.62487  0.55880  0.08960  Biso   1.000  C
  C67      1.0000 0.70569  0.60730  0.22340  Biso   1.000  C
  C68      1.0000 0.73000  0.68890  0.18500  Biso   1.000  C
  H38      1.0000 0.69770  0.71390  0.07320  Biso   1.000  H
  C69      1.0000 0.80200  0.73350  0.31160  Biso   1.000  C
  H39      1.0000 0.81740  0.78830  0.28430  Biso   1.000  H
  C70      1.0000 0.85163  0.69711  0.47960  Biso   1.000  C
  C71      1.0000 0.82640  0.61530  0.51630  Biso   1.000  C
  H40      1.0000 0.85870  0.59000  0.62790  Biso   1.000  H
  C72      1.0000 0.75430  0.57090  0.39000  Biso   1.000  C
  H41      1.0000 0.73840  0.51620  0.41730  Biso   1.000  H
  C73      1.0000 0.93352  0.83528  0.62230  Biso   1.000  C
  H42      1.0000 0.88810  0.86650  0.53240  Biso   1.000  H
  C74      1.0000 0.92978  0.74364  0.61890  Biso   1.000  C
  O15      1.0000 0.58836  0.59055  0.93350  Biso   1.000  O
  O16      1.0000 0.60011  0.49076  0.13740  Biso   1.000  O
  Zn3      1.0000 0.00000  0.01637  0.75000  Biso   1.000  Zn
  Zn4      1.0000 0.50000  0.51637  0.75000  Biso   1.000  Zn
  C75      1.0000 0.50000  0.19870  0.75000  Biso   1.000  C
  H43      1.0000 0.50000  0.13730  0.75000  Biso   1.000  H
  N3       1.0000 0.50000  0.38070  0.75000  Biso   1.000  N
  C76      1.0000 0.00000  0.69870  0.75000  Biso   1.000  C
  H44      1.0000 0.00000  0.63730  0.75000  Biso   1.000  H
  N4       1.0000 0.00000  0.88070  0.75000  Biso   1.000  N
