data_image0
_cell_length_a       10.289
_cell_length_b       15.763
_cell_length_c       24.796
_cell_angle_alpha    90
_cell_angle_beta     112.65
_cell_angle_gamma    90

_symmetry_space_group_name_H-M    "P 1"
_symmetry_int_tables_number       1

loop_
  _symmetry_equiv_pos_as_xyz
  'x, y, z'

loop_
  _atom_site_label
  _atom_site_occupancy
  _atom_site_fract_x
  _atom_site_fract_y
  _atom_site_fract_z
  _atom_site_thermal_displace_type
  _atom_site_B_iso_or_equiv
  _atom_site_type_symbol
  Zn1      1.0000 0.74215  0.85377  0.73507  Biso   1.000  Zn
  Zn2      1.0000 0.70840  0.98206  0.85549  Biso   1.000  Zn
  O1       1.0000 0.61840  0.82370  0.78411  Biso   1.000  O
  O2       1.0000 0.59730  0.88460  0.86039  Biso   1.000  O
  O3       1.0000 0.38000  0.55040  0.71395  Biso   1.000  O
  O4       1.0000 0.27960  0.48320  0.76621  Biso   1.000  O
  O5       1.0000 0.92060  0.84500  0.80929  Biso   1.000  O
  O6       1.0000 0.89770  0.94100  0.87092  Biso   1.000  O
  O7       1.0000 0.23250  0.95270  0.07295  Biso   1.000  O
  O8       1.0000 0.43000  0.87880  0.09971  Biso   1.000  O
  O9       1.0000 0.34240  0.67293  0.93451  Biso   1.000  O
  C1       1.0000 0.38290  0.67800  0.88714  Biso   1.000  C
  C2       1.0000 0.45780  0.74680  0.88043  Biso   1.000  C
  H1       1.0000 0.48060  0.79130  0.90710  Biso   1.000  H
  C3       1.0000 0.49870  0.74880  0.83327  Biso   1.000  C
  C4       1.0000 0.46610  0.68180  0.79408  Biso   1.000  C
  H2       1.0000 0.49470  0.68320  0.76280  Biso   1.000  H
  C5       1.0000 0.39110  0.61280  0.80121  Biso   1.000  C
  C6       1.0000 0.34950  0.61070  0.84863  Biso   1.000  C
  H3       1.0000 0.29990  0.56440  0.85420  Biso   1.000  H
  C7       1.0000 0.57900  0.82440  0.82495  Biso   1.000  C
  C8       1.0000 0.34760  0.54230  0.75803  Biso   1.000  C
  C9       1.0000 0.27240  0.74470  0.94218  Biso   1.000  C
  C10      1.0000 0.15770  0.77590  0.89677  Biso   1.000  C
  H4       1.0000 0.12800  0.75060  0.86010  Biso   1.000  H
  C11      1.0000 0.08600  0.84590  0.90600  Biso   1.000  C
  C12      1.0000 0.13400  0.88340  0.96135  Biso   1.000  C
  H5       1.0000 0.08610  0.92970  0.96800  Biso   1.000  H
  C13      1.0000 0.25290  0.85230  0.00669  Biso   1.000  C
  C14      1.0000 0.32250  0.78160  0.99760  Biso   1.000  C
  H6       1.0000 0.40070  0.75930  0.02770  Biso   1.000  H
  C15      1.0000 0.95770  0.87910  0.85759  Biso   1.000  C
  C16      1.0000 0.31240  0.89680  0.06531  Biso   1.000  C
  Zn3      1.0000 0.25785  0.35377  0.76493  Biso   1.000  Zn
  Zn4      1.0000 0.29160  0.48206  0.64451  Biso   1.000  Zn
  O10      1.0000 0.38160  0.32370  0.71589  Biso   1.000  O
  O11      1.0000 0.40270  0.38460  0.63961  Biso   1.000  O
  O12      1.0000 0.62000  0.05040  0.78605  Biso   1.000  O
  O13      1.0000 0.72040  0.98320  0.73379  Biso   1.000  O
  O14      1.0000 0.07940  0.34500  0.69071  Biso   1.000  O
  O15      1.0000 0.10230  0.44100  0.62908  Biso   1.000  O
  O16      1.0000 0.76750  0.45270  0.42705  Biso   1.000  O
  O17      1.0000 0.57000  0.37880  0.40029  Biso   1.000  O
  O18      1.0000 0.65760  0.17293  0.56549  Biso   1.000  O
  C17      1.0000 0.61710  0.17800  0.61286  Biso   1.000  C
  C18      1.0000 0.54220  0.24680  0.61957  Biso   1.000  C
  H7       1.0000 0.51940  0.29130  0.59290  Biso   1.000  H
  C19      1.0000 0.50130  0.24880  0.66673  Biso   1.000  C
  C20      1.0000 0.53390  0.18180  0.70592  Biso   1.000  C
  H8       1.0000 0.50530  0.18320  0.73720  Biso   1.000  H
  C21      1.0000 0.60890  0.11280  0.69879  Biso   1.000  C
  C22      1.0000 0.65050  0.11070  0.65137  Biso   1.000  C
  H9       1.0000 0.70010  0.06440  0.64580  Biso   1.000  H
  C23      1.0000 0.42100  0.32440  0.67505  Biso   1.000  C
  C24      1.0000 0.65240  0.04230  0.74197  Biso   1.000  C
  C25      1.0000 0.72760  0.24470  0.55782  Biso   1.000  C
  C26      1.0000 0.84230  0.27590  0.60323  Biso   1.000  C
  H10      1.0000 0.87200  0.25060  0.63990  Biso   1.000  H
  C27      1.0000 0.91400  0.34590  0.59400  Biso   1.000  C
  C28      1.0000 0.86600  0.38340  0.53865  Biso   1.000  C
  H11      1.0000 0.91390  0.42970  0.53200  Biso   1.000  H
  C29      1.0000 0.74710  0.35230  0.49331  Biso   1.000  C
  C30      1.0000 0.67750  0.28160  0.50240  Biso   1.000  C
  H12      1.0000 0.59930  0.25930  0.47230  Biso   1.000  H
  C31      1.0000 0.04230  0.37910  0.64241  Biso   1.000  C
  C32      1.0000 0.68760  0.39680  0.43469  Biso   1.000  C
  Zn5      1.0000 0.25785  0.14623  0.26493  Biso   1.000  Zn
  Zn6      1.0000 0.29160  0.01794  0.14451  Biso   1.000  Zn
  O19      1.0000 0.38160  0.17630  0.21589  Biso   1.000  O
  O20      1.0000 0.40270  0.11540  0.13961  Biso   1.000  O
  O21      1.0000 0.62000  0.44960  0.28605  Biso   1.000  O
  O22      1.0000 0.72040  0.51680  0.23379  Biso   1.000  O
  O23      1.0000 0.07940  0.15500  0.19071  Biso   1.000  O
  O24      1.0000 0.10230  0.05900  0.12908  Biso   1.000  O
  O25      1.0000 0.76750  0.04730  0.92705  Biso   1.000  O
  O26      1.0000 0.57000  0.12120  0.90029  Biso   1.000  O
  O27      1.0000 0.65760  0.32707  0.06549  Biso   1.000  O
  C33      1.0000 0.61710  0.32200  0.11286  Biso   1.000  C
  C34      1.0000 0.54220  0.25320  0.11957  Biso   1.000  C
  H13      1.0000 0.51940  0.20870  0.09290  Biso   1.000  H
  C35      1.0000 0.50130  0.25120  0.16673  Biso   1.000  C
  C36      1.0000 0.53390  0.31820  0.20592  Biso   1.000  C
  H14      1.0000 0.50530  0.31680  0.23720  Biso   1.000  H
  C37      1.0000 0.60890  0.38720  0.19879  Biso   1.000  C
  C38      1.0000 0.65050  0.38930  0.15137  Biso   1.000  C
  H15      1.0000 0.70010  0.43560  0.14580  Biso   1.000  H
  C39      1.0000 0.42100  0.17560  0.17505  Biso   1.000  C
  C40      1.0000 0.65240  0.45770  0.24197  Biso   1.000  C
  C41      1.0000 0.72760  0.25530  0.05782  Biso   1.000  C
  C42      1.0000 0.84230  0.22410  0.10323  Biso   1.000  C
  H16      1.0000 0.87200  0.24940  0.13990  Biso   1.000  H
  C43      1.0000 0.91400  0.15410  0.09400  Biso   1.000  C
  C44      1.0000 0.86600  0.11660  0.03865  Biso   1.000  C
  H17      1.0000 0.91390  0.07030  0.03200  Biso   1.000  H
  C45      1.0000 0.74710  0.14770  0.99331  Biso   1.000  C
  C46      1.0000 0.67750  0.21840  0.00240  Biso   1.000  C
  H18      1.0000 0.59930  0.24070  0.97230  Biso   1.000  H
  C47      1.0000 0.04230  0.12090  0.14241  Biso   1.000  C
  C48      1.0000 0.68760  0.10320  0.93469  Biso   1.000  C
  Zn7      1.0000 0.74215  0.64623  0.23507  Biso   1.000  Zn
  Zn8      1.0000 0.70840  0.51794  0.35549  Biso   1.000  Zn
  O28      1.0000 0.61840  0.67630  0.28411  Biso   1.000  O
  O29      1.0000 0.59730  0.61540  0.36039  Biso   1.000  O
  O30      1.0000 0.38000  0.94960  0.21395  Biso   1.000  O
  O31      1.0000 0.27960  0.01680  0.26621  Biso   1.000  O
  O32      1.0000 0.92060  0.65500  0.30929  Biso   1.000  O
  O33      1.0000 0.89770  0.55900  0.37092  Biso   1.000  O
  O34      1.0000 0.23250  0.54730  0.57295  Biso   1.000  O
  O35      1.0000 0.43000  0.62120  0.59971  Biso   1.000  O
  O36      1.0000 0.34240  0.82707  0.43451  Biso   1.000  O
  C49      1.0000 0.38290  0.82200  0.38714  Biso   1.000  C
  C50      1.0000 0.45780  0.75320  0.38043  Biso   1.000  C
  H19      1.0000 0.48060  0.70870  0.40710  Biso   1.000  H
  C51      1.0000 0.49870  0.75120  0.33327  Biso   1.000  C
  C52      1.0000 0.46610  0.81820  0.29408  Biso   1.000  C
  H20      1.0000 0.49470  0.81680  0.26280  Biso   1.000  H
  C53      1.0000 0.39110  0.88720  0.30121  Biso   1.000  C
  C54      1.0000 0.34950  0.88930  0.34863  Biso   1.000  C
  H21      1.0000 0.29990  0.93560  0.35420  Biso   1.000  H
  C55      1.0000 0.57900  0.67560  0.32495  Biso   1.000  C
  C56      1.0000 0.34760  0.95770  0.25803  Biso   1.000  C
  C57      1.0000 0.27240  0.75530  0.44218  Biso   1.000  C
  C58      1.0000 0.15770  0.72410  0.39677  Biso   1.000  C
  H22      1.0000 0.12800  0.74940  0.36010  Biso   1.000  H
  C59      1.0000 0.08600  0.65410  0.40600  Biso   1.000  C
  C60      1.0000 0.13400  0.61660  0.46135  Biso   1.000  C
  H23      1.0000 0.08610  0.57030  0.46800  Biso   1.000  H
  C61      1.0000 0.25290  0.64770  0.50669  Biso   1.000  C
  C62      1.0000 0.32250  0.71840  0.49760  Biso   1.000  C
  H24      1.0000 0.40070  0.74070  0.52770  Biso   1.000  H
  C63      1.0000 0.95770  0.62090  0.35759  Biso   1.000  C
  C64      1.0000 0.31240  0.60320  0.56531  Biso   1.000  C
