data_image0
_cell_length_a       10.117
_cell_length_b       16.767
_cell_length_c       22.415
_cell_angle_alpha    90
_cell_angle_beta     90
_cell_angle_gamma    90

_symmetry_space_group_name_H-M    "P 1"
_symmetry_int_tables_number       1

loop_
  _symmetry_equiv_pos_as_xyz
  'x, y, z'

loop_
  _atom_site_label
  _atom_site_occupancy
  _atom_site_fract_x
  _atom_site_fract_y
  _atom_site_fract_z
  _atom_site_thermal_displace_type
  _atom_site_B_iso_or_equiv
  _atom_site_type_symbol
  Co1      1.0000 0.98150  0.88472  0.63937  Biso   1.000  Co
  Co2      1.0000 0.76740  0.83612  0.75616  Biso   1.000  Co
  O1       1.0000 0.00130  0.97760  0.95080  Biso   1.000  O
  O2       1.0000 0.95030  0.89250  0.73680  Biso   1.000  O
  O3       1.0000 0.01550  0.99440  0.68730  Biso   1.000  O
  O4       1.0000 0.15650  0.23870  0.78630  Biso   1.000  O
  O5       1.0000 0.05000  0.26990  0.87110  Biso   1.000  O
  O6       1.0000 0.38980  0.07900  0.06920  Biso   1.000  O
  O7       1.0000 0.30470  0.13350  0.14910  Biso   1.000  O
  O8       1.0000 0.69100  0.07740  0.10400  Biso   1.000  O
  O9       1.0000 0.81800  0.11800  0.18110  Biso   1.000  O
  C1       1.0000 0.01500  0.01880  0.89820  Biso   1.000  C
  C2       1.0000 0.99700  0.97610  0.84710  Biso   1.000  C
  H1       1.0000 0.97200  0.92290  0.85020  Biso   1.000  H
  C3       1.0000 0.01350  0.00740  0.79320  Biso   1.000  C
  C4       1.0000 0.05170  0.08650  0.78880  Biso   1.000  C
  H2       1.0000 0.06780  0.10860  0.75150  Biso   1.000  H
  C5       1.0000 0.06630  0.13320  0.84000  Biso   1.000  C
  C6       1.0000 0.04300  0.09860  0.89460  Biso   1.000  C
  H3       1.0000 0.04620  0.12940  0.92900  Biso   1.000  H
  C7       1.0000 0.01700  0.01920  0.00280  Biso   1.000  C
  C8       1.0000 0.90770  0.03880  0.03790  Biso   1.000  C
  H4       1.0000 0.82370  0.02760  0.02330  Biso   1.000  H
  C9       1.0000 0.91820  0.07280  0.09130  Biso   1.000  C
  C10      1.0000 0.04500  0.09410  0.11300  Biso   1.000  C
  H5       1.0000 0.05440  0.11920  0.14980  Biso   1.000  H
  C11      1.0000 0.15660  0.07610  0.07770  Biso   1.000  C
  C12      1.0000 0.14360  0.03830  0.02570  Biso   1.000  C
  H6       1.0000 0.21870  0.02430  0.00410  Biso   1.000  H
  C13      1.0000 0.99020  0.96380  0.73590  Biso   1.000  C
  C14      1.0000 0.09260  0.22070  0.83230  Biso   1.000  C
  C15      1.0000 0.80150  0.09160  0.13150  Biso   1.000  C
  C16      1.0000 0.29290  0.09780  0.10170  Biso   1.000  C
  Co3      1.0000 0.51850  0.11528  0.13937  Biso   1.000  Co
  Co4      1.0000 0.73260  0.16388  0.25616  Biso   1.000  Co
  O10      1.0000 0.49870  0.02240  0.45080  Biso   1.000  O
  O11      1.0000 0.54970  0.10750  0.23680  Biso   1.000  O
  O12      1.0000 0.48450  0.00560  0.18730  Biso   1.000  O
  O13      1.0000 0.34350  0.76130  0.28630  Biso   1.000  O
  O14      1.0000 0.45000  0.73010  0.37110  Biso   1.000  O
  O15      1.0000 0.11020  0.92100  0.56920  Biso   1.000  O
  O16      1.0000 0.19530  0.86650  0.64910  Biso   1.000  O
  O17      1.0000 0.80900  0.92260  0.60400  Biso   1.000  O
  O18      1.0000 0.68200  0.88200  0.68110  Biso   1.000  O
  C17      1.0000 0.48500  0.98120  0.39820  Biso   1.000  C
  C18      1.0000 0.50300  0.02390  0.34710  Biso   1.000  C
  H7       1.0000 0.52800  0.07710  0.35020  Biso   1.000  H
  C19      1.0000 0.48650  0.99260  0.29320  Biso   1.000  C
  C20      1.0000 0.44830  0.91350  0.28880  Biso   1.000  C
  H8       1.0000 0.43220  0.89140  0.25150  Biso   1.000  H
  C21      1.0000 0.43370  0.86680  0.34000  Biso   1.000  C
  C22      1.0000 0.45700  0.90140  0.39460  Biso   1.000  C
  H9       1.0000 0.45380  0.87060  0.42900  Biso   1.000  H
  C23      1.0000 0.48300  0.98080  0.50280  Biso   1.000  C
  C24      1.0000 0.59230  0.96120  0.53790  Biso   1.000  C
  H10      1.0000 0.67630  0.97240  0.52330  Biso   1.000  H
  C25      1.0000 0.58180  0.92720  0.59130  Biso   1.000  C
  C26      1.0000 0.45500  0.90590  0.61300  Biso   1.000  C
  H11      1.0000 0.44560  0.88080  0.64980  Biso   1.000  H
  C27      1.0000 0.34340  0.92390  0.57770  Biso   1.000  C
  C28      1.0000 0.35640  0.96170  0.52570  Biso   1.000  C
  H12      1.0000 0.28130  0.97570  0.50410  Biso   1.000  H
  C29      1.0000 0.50980  0.03620  0.23590  Biso   1.000  C
  C30      1.0000 0.40740  0.77930  0.33230  Biso   1.000  C
  C31      1.0000 0.69850  0.90840  0.63150  Biso   1.000  C
  C32      1.0000 0.20710  0.90220  0.60170  Biso   1.000  C
  Co5      1.0000 0.01850  0.38472  0.86063  Biso   1.000  Co
  Co6      1.0000 0.23260  0.33612  0.74384  Biso   1.000  Co
  O19      1.0000 0.99870  0.47760  0.54920  Biso   1.000  O
  O20      1.0000 0.04970  0.39250  0.76320  Biso   1.000  O
  O21      1.0000 0.98450  0.49440  0.81270  Biso   1.000  O
  O22      1.0000 0.84350  0.73870  0.71370  Biso   1.000  O
  O23      1.0000 0.95000  0.76990  0.62890  Biso   1.000  O
  O24      1.0000 0.61020  0.57900  0.43080  Biso   1.000  O
  O25      1.0000 0.69530  0.63350  0.35090  Biso   1.000  O
  O26      1.0000 0.30900  0.57740  0.39600  Biso   1.000  O
  O27      1.0000 0.18200  0.61800  0.31890  Biso   1.000  O
  C33      1.0000 0.98500  0.51880  0.60180  Biso   1.000  C
  C34      1.0000 0.00300  0.47610  0.65290  Biso   1.000  C
  H13      1.0000 0.02800  0.42290  0.64980  Biso   1.000  H
  C35      1.0000 0.98650  0.50740  0.70680  Biso   1.000  C
  C36      1.0000 0.94830  0.58650  0.71120  Biso   1.000  C
  H14      1.0000 0.93220  0.60860  0.74850  Biso   1.000  H
  C37      1.0000 0.93370  0.63320  0.66000  Biso   1.000  C
  C38      1.0000 0.95700  0.59860  0.60540  Biso   1.000  C
  H15      1.0000 0.95380  0.62940  0.57100  Biso   1.000  H
  C39      1.0000 0.98300  0.51920  0.49720  Biso   1.000  C
  C40      1.0000 0.09230  0.53880  0.46210  Biso   1.000  C
  H16      1.0000 0.17630  0.52760  0.47670  Biso   1.000  H
  C41      1.0000 0.08180  0.57280  0.40870  Biso   1.000  C
  C42      1.0000 0.95500  0.59410  0.38700  Biso   1.000  C
  H17      1.0000 0.94560  0.61920  0.35020  Biso   1.000  H
  C43      1.0000 0.84340  0.57610  0.42230  Biso   1.000  C
  C44      1.0000 0.85640  0.53830  0.47430  Biso   1.000  C
  H18      1.0000 0.78130  0.52430  0.49590  Biso   1.000  H
  C45      1.0000 0.00980  0.46380  0.76410  Biso   1.000  C
  C46      1.0000 0.90740  0.72070  0.66770  Biso   1.000  C
  C47      1.0000 0.19850  0.59160  0.36850  Biso   1.000  C
  C48      1.0000 0.70710  0.59780  0.39830  Biso   1.000  C
  Co7      1.0000 0.48150  0.61528  0.36063  Biso   1.000  Co
  Co8      1.0000 0.26740  0.66388  0.24384  Biso   1.000  Co
  O28      1.0000 0.50130  0.52240  0.04920  Biso   1.000  O
  O29      1.0000 0.45030  0.60750  0.26320  Biso   1.000  O
  O30      1.0000 0.51550  0.50560  0.31270  Biso   1.000  O
  O31      1.0000 0.65650  0.26130  0.21370  Biso   1.000  O
  O32      1.0000 0.55000  0.23010  0.12890  Biso   1.000  O
  O33      1.0000 0.88980  0.42100  0.93080  Biso   1.000  O
  O34      1.0000 0.80470  0.36650  0.85090  Biso   1.000  O
  O35      1.0000 0.19100  0.42260  0.89600  Biso   1.000  O
  O36      1.0000 0.31800  0.38200  0.81890  Biso   1.000  O
  C49      1.0000 0.51500  0.48120  0.10180  Biso   1.000  C
  C50      1.0000 0.49700  0.52390  0.15290  Biso   1.000  C
  H19      1.0000 0.47200  0.57710  0.14980  Biso   1.000  H
  C51      1.0000 0.51350  0.49260  0.20680  Biso   1.000  C
  C52      1.0000 0.55170  0.41350  0.21120  Biso   1.000  C
  H20      1.0000 0.56780  0.39140  0.24850  Biso   1.000  H
  C53      1.0000 0.56630  0.36680  0.16000  Biso   1.000  C
  C54      1.0000 0.54300  0.40140  0.10540  Biso   1.000  C
  H21      1.0000 0.54620  0.37060  0.07100  Biso   1.000  H
  C55      1.0000 0.51700  0.48080  0.99720  Biso   1.000  C
  C56      1.0000 0.40770  0.46120  0.96210  Biso   1.000  C
  H22      1.0000 0.32370  0.47240  0.97670  Biso   1.000  H
  C57      1.0000 0.41820  0.42720  0.90870  Biso   1.000  C
  C58      1.0000 0.54500  0.40590  0.88700  Biso   1.000  C
  H23      1.0000 0.55440  0.38080  0.85020  Biso   1.000  H
  C59      1.0000 0.65660  0.42390  0.92230  Biso   1.000  C
  C60      1.0000 0.64360  0.46170  0.97430  Biso   1.000  C
  H24      1.0000 0.71870  0.47570  0.99590  Biso   1.000  H
  C61      1.0000 0.49020  0.53620  0.26410  Biso   1.000  C
  C62      1.0000 0.59260  0.27930  0.16770  Biso   1.000  C
  C63      1.0000 0.30150  0.40840  0.86850  Biso   1.000  C
  C64      1.0000 0.79290  0.40220  0.89830  Biso   1.000  C
