data_image0
_cell_length_a       21.818
_cell_length_b       14.704
_cell_length_c       26.282
_cell_angle_alpha    90
_cell_angle_beta     126.84
_cell_angle_gamma    90

_symmetry_space_group_name_H-M    "P 1"
_symmetry_int_tables_number       1

loop_
  _symmetry_equiv_pos_as_xyz
  'x, y, z'

loop_
  _atom_site_label
  _atom_site_occupancy
  _atom_site_fract_x
  _atom_site_fract_y
  _atom_site_fract_z
  _atom_site_thermal_displace_type
  _atom_site_B_iso_or_equiv
  _atom_site_type_symbol
  Co1      1.0000 0.35252  0.35684  0.85780  Biso   1.000  Co
  Co2      1.0000 0.44070  0.34273  0.78265  Biso   1.000  Co
  Co3      1.0000 0.92629  0.31097  0.65916  Biso   1.000  Co
  Co4      1.0000 0.82037  0.32545  0.49178  Biso   1.000  Co
  O1       1.0000 0.38700  0.48770  0.85530  Biso   1.000  O
  O2       1.0000 0.41910  0.47330  0.78870  Biso   1.000  O
  O3       1.0000 0.52170  0.72530  0.74200  Biso   1.000  O
  O4       1.0000 0.52690  0.86080  0.77760  Biso   1.000  O
  O5       1.0000 0.55020  0.70130  0.13320  Biso   1.000  O
  O6       1.0000 0.44860  0.66590  0.12740  Biso   1.000  O
  O7       1.0000 0.18500  0.77390  0.93540  Biso   1.000  O
  O8       1.0000 0.17720  0.81140  0.85100  Biso   1.000  O
  O9       1.0000 0.44230  0.82720  0.91470  Biso   1.000  O
  O10      1.0000 0.33300  0.30150  0.71560  Biso   1.000  O
  O11      1.0000 0.27580  0.33660  0.76030  Biso   1.000  O
  O12      1.0000 0.00060  0.27580  0.64020  Biso   1.000  O
  O13      1.0000 0.92910  0.27320  0.53470  Biso   1.000  O
  O14      1.0000 0.99820  0.16840  0.25930  Biso   1.000  O
  O15      1.0000 0.95990  0.30490  0.22220  Biso   1.000  O
  O16      1.0000 0.08210  0.55830  0.36520  Biso   1.000  O
  O17      1.0000 0.13570  0.54760  0.46860  Biso   1.000  O
  O18      1.0000 0.12420  0.20290  0.49490  Biso   1.000  O
  C1       1.0000 0.44610  0.76630  0.87770  Biso   1.000  C
  C2       1.0000 0.42640  0.67350  0.87250  Biso   1.000  C
  H1       1.0000 0.40830  0.65050  0.89420  Biso   1.000  H
  C3       1.0000 0.43440  0.61760  0.83470  Biso   1.000  C
  C4       1.0000 0.46340  0.65040  0.80350  Biso   1.000  C
  H2       1.0000 0.46960  0.61130  0.77910  Biso   1.000  H
  C5       1.0000 0.48270  0.73920  0.80860  Biso   1.000  C
  C6       1.0000 0.47520  0.79790  0.84700  Biso   1.000  C
  H3       1.0000 0.49010  0.85840  0.85160  Biso   1.000  H
  C7       1.0000 0.41260  0.51710  0.82600  Biso   1.000  C
  C8       1.0000 0.51290  0.77650  0.77430  Biso   1.000  C
  C9       1.0000 0.41140  0.79610  0.94570  Biso   1.000  C
  C10      1.0000 0.45980  0.76610  0.00740  Biso   1.000  C
  H4       1.0000 0.51250  0.76570  0.02860  Biso   1.000  H
  C11      1.0000 0.42900  0.73670  0.03780  Biso   1.000  C
  C12      1.0000 0.34770  0.74420  0.00530  Biso   1.000  C
  H5       1.0000 0.32610  0.72520  0.02510  Biso   1.000  H
  C13      1.0000 0.30220  0.77930  0.94520  Biso   1.000  C
  C14      1.0000 0.33370  0.80540  0.91440  Biso   1.000  C
  H6       1.0000 0.30280  0.82870  0.87330  Biso   1.000  H
  C15      1.0000 0.47680  0.69960  0.10110  Biso   1.000  C
  C16      1.0000 0.21610  0.78850  0.90790  Biso   1.000  C
  C17      1.0000 0.12630  0.23570  0.54550  Biso   1.000  C
  C18      1.0000 0.19800  0.25760  0.60250  Biso   1.000  C
  H7       1.0000 0.24270  0.25460  0.60560  Biso   1.000  H
  C19      1.0000 0.19920  0.28430  0.65450  Biso   1.000  C
  C20      1.0000 0.13430  0.28830  0.65010  Biso   1.000  C
  H8       1.0000 0.13680  0.30670  0.68520  Biso   1.000  H
  C21      1.0000 0.06400  0.26520  0.59410  Biso   1.000  C
  C22      1.0000 0.05940  0.24240  0.54080  Biso   1.000  C
  H9       1.0000 0.01200  0.23160  0.50220  Biso   1.000  H
  C23      1.0000 0.27540  0.31110  0.71530  Biso   1.000  C
  C24      1.0000 0.99150  0.27390  0.59000  Biso   1.000  C
  C25      1.0000 0.10010  0.26390  0.44650  Biso   1.000  C
  C26      1.0000 0.06240  0.22980  0.38520  Biso   1.000  C
  H10      1.0000 0.05390  0.16750  0.37810  Biso   1.000  H
  C27      1.0000 0.03750  0.28760  0.33440  Biso   1.000  C
  C28      1.0000 0.04930  0.37970  0.34430  Biso   1.000  C
  H11      1.0000 0.03190  0.41830  0.31010  Biso   1.000  H
  C29      1.0000 0.08720  0.41580  0.40520  Biso   1.000  C
  C30      1.0000 0.11220  0.35750  0.45750  Biso   1.000  C
  H12      1.0000 0.13610  0.38110  0.49810  Biso   1.000  H
  C31      1.0000 0.99550  0.25300  0.26750  Biso   1.000  C
  C32      1.0000 0.10280  0.51770  0.41380  Biso   1.000  C
  Co5      1.0000 0.64748  0.85684  0.64220  Biso   1.000  Co
  Co6      1.0000 0.55930  0.84273  0.71735  Biso   1.000  Co
  Co7      1.0000 0.07371  0.81097  0.84084  Biso   1.000  Co
  Co8      1.0000 0.17963  0.82545  0.00822  Biso   1.000  Co
  O19      1.0000 0.61300  0.98770  0.64470  Biso   1.000  O
  O20      1.0000 0.58090  0.97330  0.71130  Biso   1.000  O
  O21      1.0000 0.47830  0.22530  0.75800  Biso   1.000  O
  O22      1.0000 0.47310  0.36080  0.72240  Biso   1.000  O
  O23      1.0000 0.44980  0.20130  0.36680  Biso   1.000  O
  O24      1.0000 0.55140  0.16590  0.37260  Biso   1.000  O
  O25      1.0000 0.81500  0.27390  0.56460  Biso   1.000  O
  O26      1.0000 0.82280  0.31140  0.64900  Biso   1.000  O
  O27      1.0000 0.55770  0.32720  0.58530  Biso   1.000  O
  O28      1.0000 0.66700  0.80150  0.78440  Biso   1.000  O
  O29      1.0000 0.72420  0.83660  0.73970  Biso   1.000  O
  O30      1.0000 0.99940  0.77580  0.85980  Biso   1.000  O
  O31      1.0000 0.07090  0.77320  0.96530  Biso   1.000  O
  O32      1.0000 0.00180  0.66840  0.24070  Biso   1.000  O
  O33      1.0000 0.04010  0.80490  0.27780  Biso   1.000  O
  O34      1.0000 0.91790  0.05830  0.13480  Biso   1.000  O
  O35      1.0000 0.86430  0.04760  0.03140  Biso   1.000  O
  O36      1.0000 0.87580  0.70290  0.00510  Biso   1.000  O
  C33      1.0000 0.55390  0.26630  0.62230  Biso   1.000  C
  C34      1.0000 0.57360  0.17350  0.62750  Biso   1.000  C
  H13      1.0000 0.59170  0.15050  0.60580  Biso   1.000  H
  C35      1.0000 0.56560  0.11760  0.66530  Biso   1.000  C
  C36      1.0000 0.53660  0.15040  0.69650  Biso   1.000  C
  H14      1.0000 0.53040  0.11130  0.72090  Biso   1.000  H
  C37      1.0000 0.51730  0.23920  0.69140  Biso   1.000  C
  C38      1.0000 0.52480  0.29790  0.65300  Biso   1.000  C
  H15      1.0000 0.50990  0.35840  0.64840  Biso   1.000  H
  C39      1.0000 0.58740  0.01710  0.67400  Biso   1.000  C
  C40      1.0000 0.48710  0.27650  0.72570  Biso   1.000  C
  C41      1.0000 0.58860  0.29610  0.55430  Biso   1.000  C
  C42      1.0000 0.54020  0.26610  0.49260  Biso   1.000  C
  H16      1.0000 0.48750  0.26570  0.47140  Biso   1.000  H
  C43      1.0000 0.57100  0.23670  0.46220  Biso   1.000  C
  C44      1.0000 0.65230  0.24420  0.49470  Biso   1.000  C
  H17      1.0000 0.67390  0.22520  0.47490  Biso   1.000  H
  C45      1.0000 0.69780  0.27930  0.55480  Biso   1.000  C
  C46      1.0000 0.66630  0.30540  0.58560  Biso   1.000  C
  H18      1.0000 0.69720  0.32870  0.62670  Biso   1.000  H
  C47      1.0000 0.52320  0.19960  0.39890  Biso   1.000  C
  C48      1.0000 0.78390  0.28850  0.59210  Biso   1.000  C
  C49      1.0000 0.87370  0.73570  0.95450  Biso   1.000  C
  C50      1.0000 0.80200  0.75760  0.89750  Biso   1.000  C
  H19      1.0000 0.75730  0.75460  0.89440  Biso   1.000  H
  C51      1.0000 0.80080  0.78430  0.84550  Biso   1.000  C
  C52      1.0000 0.86570  0.78830  0.84990  Biso   1.000  C
  H20      1.0000 0.86320  0.80670  0.81480  Biso   1.000  H
  C53      1.0000 0.93600  0.76520  0.90590  Biso   1.000  C
  C54      1.0000 0.94060  0.74240  0.95920  Biso   1.000  C
  H21      1.0000 0.98800  0.73160  0.99780  Biso   1.000  H
  C55      1.0000 0.72460  0.81110  0.78470  Biso   1.000  C
  C56      1.0000 0.00850  0.77390  0.91000  Biso   1.000  C
  C57      1.0000 0.89990  0.76390  0.05350  Biso   1.000  C
  C58      1.0000 0.93760  0.72980  0.11480  Biso   1.000  C
  H22      1.0000 0.94610  0.66750  0.12190  Biso   1.000  H
  C59      1.0000 0.96250  0.78760  0.16560  Biso   1.000  C
  C60      1.0000 0.95070  0.87970  0.15570  Biso   1.000  C
  H23      1.0000 0.96810  0.91830  0.18990  Biso   1.000  H
  C61      1.0000 0.91280  0.91580  0.09480  Biso   1.000  C
  C62      1.0000 0.88780  0.85750  0.04250  Biso   1.000  C
  H24      1.0000 0.86390  0.88110  0.00190  Biso   1.000  H
  C63      1.0000 0.00450  0.75300  0.23250  Biso   1.000  C
  C64      1.0000 0.89720  0.01770  0.08620  Biso   1.000  C
  Co9      1.0000 0.64748  0.64316  0.14220  Biso   1.000  Co
  Co10     1.0000 0.55930  0.65727  0.21735  Biso   1.000  Co
  Co11     1.0000 0.07371  0.68903  0.34084  Biso   1.000  Co
  Co12     1.0000 0.17963  0.67455  0.50822  Biso   1.000  Co
  O37      1.0000 0.61300  0.51230  0.14470  Biso   1.000  O
  O38      1.0000 0.58090  0.52670  0.21130  Biso   1.000  O
  O39      1.0000 0.47830  0.27470  0.25800  Biso   1.000  O
  O40      1.0000 0.47310  0.13920  0.22240  Biso   1.000  O
  O41      1.0000 0.44980  0.29870  0.86680  Biso   1.000  O
  O42      1.0000 0.55140  0.33410  0.87260  Biso   1.000  O
  O43      1.0000 0.81500  0.22610  0.06460  Biso   1.000  O
  O44      1.0000 0.82280  0.18860  0.14900  Biso   1.000  O
  O45      1.0000 0.55770  0.17280  0.08530  Biso   1.000  O
  O46      1.0000 0.66700  0.69850  0.28440  Biso   1.000  O
  O47      1.0000 0.72420  0.66340  0.23970  Biso   1.000  O
  O48      1.0000 0.99940  0.72420  0.35980  Biso   1.000  O
  O49      1.0000 0.07090  0.72680  0.46530  Biso   1.000  O
  O50      1.0000 0.00180  0.83160  0.74070  Biso   1.000  O
  O51      1.0000 0.04010  0.69510  0.77780  Biso   1.000  O
  O52      1.0000 0.91790  0.44170  0.63480  Biso   1.000  O
  O53      1.0000 0.86430  0.45240  0.53140  Biso   1.000  O
  O54      1.0000 0.87580  0.79710  0.50510  Biso   1.000  O
  C65      1.0000 0.55390  0.23370  0.12230  Biso   1.000  C
  C66      1.0000 0.57360  0.32650  0.12750  Biso   1.000  C
  H25      1.0000 0.59170  0.34950  0.10580  Biso   1.000  H
  C67      1.0000 0.56560  0.38240  0.16530  Biso   1.000  C
  C68      1.0000 0.53660  0.34960  0.19650  Biso   1.000  C
  H26      1.0000 0.53040  0.38870  0.22090  Biso   1.000  H
  C69      1.0000 0.51730  0.26080  0.19140  Biso   1.000  C
  C70      1.0000 0.52480  0.20210  0.15300  Biso   1.000  C
  H27      1.0000 0.50990  0.14160  0.14840  Biso   1.000  H
  C71      1.0000 0.58740  0.48290  0.17400  Biso   1.000  C
  C72      1.0000 0.48710  0.22350  0.22570  Biso   1.000  C
  C73      1.0000 0.58860  0.20390  0.05430  Biso   1.000  C
  C74      1.0000 0.54020  0.23390  0.99260  Biso   1.000  C
  H28      1.0000 0.48750  0.23430  0.97140  Biso   1.000  H
  C75      1.0000 0.57100  0.26330  0.96220  Biso   1.000  C
  C76      1.0000 0.65230  0.25580  0.99470  Biso   1.000  C
  H29      1.0000 0.67390  0.27480  0.97490  Biso   1.000  H
  C77      1.0000 0.69780  0.22070  0.05480  Biso   1.000  C
  C78      1.0000 0.66630  0.19460  0.08560  Biso   1.000  C
  H30      1.0000 0.69720  0.17130  0.12670  Biso   1.000  H
  C79      1.0000 0.52320  0.30040  0.89890  Biso   1.000  C
  C80      1.0000 0.78390  0.21150  0.09210  Biso   1.000  C
  C81      1.0000 0.87370  0.76430  0.45450  Biso   1.000  C
  C82      1.0000 0.80200  0.74240  0.39750  Biso   1.000  C
  H31      1.0000 0.75730  0.74540  0.39440  Biso   1.000  H
  C83      1.0000 0.80080  0.71570  0.34550  Biso   1.000  C
  C84      1.0000 0.86570  0.71170  0.34990  Biso   1.000  C
  H32      1.0000 0.86320  0.69330  0.31480  Biso   1.000  H
  C85      1.0000 0.93600  0.73480  0.40590  Biso   1.000  C
  C86      1.0000 0.94060  0.75760  0.45920  Biso   1.000  C
  H33      1.0000 0.98800  0.76840  0.49780  Biso   1.000  H
  C87      1.0000 0.72460  0.68890  0.28470  Biso   1.000  C
  C88      1.0000 0.00850  0.72610  0.41000  Biso   1.000  C
  C89      1.0000 0.89990  0.73610  0.55350  Biso   1.000  C
  C90      1.0000 0.93760  0.77020  0.61480  Biso   1.000  C
  H34      1.0000 0.94610  0.83250  0.62190  Biso   1.000  H
  C91      1.0000 0.96250  0.71240  0.66560  Biso   1.000  C
  C92      1.0000 0.95070  0.62030  0.65570  Biso   1.000  C
  H35      1.0000 0.96810  0.58170  0.68990  Biso   1.000  H
  C93      1.0000 0.91280  0.58420  0.59480  Biso   1.000  C
  C94      1.0000 0.88780  0.64250  0.54250  Biso   1.000  C
  H36      1.0000 0.86390  0.61890  0.50190  Biso   1.000  H
  C95      1.0000 0.00450  0.74700  0.73250  Biso   1.000  C
  C96      1.0000 0.89720  0.48230  0.58620  Biso   1.000  C
  Co13     1.0000 0.35252  0.14316  0.35780  Biso   1.000  Co
  Co14     1.0000 0.44070  0.15727  0.28265  Biso   1.000  Co
  Co15     1.0000 0.92629  0.18903  0.15916  Biso   1.000  Co
  Co16     1.0000 0.82037  0.17455  0.99178  Biso   1.000  Co
  O55      1.0000 0.38700  0.01230  0.35530  Biso   1.000  O
  O56      1.0000 0.41910  0.02670  0.28870  Biso   1.000  O
  O57      1.0000 0.52170  0.77470  0.24200  Biso   1.000  O
  O58      1.0000 0.52690  0.63920  0.27760  Biso   1.000  O
  O59      1.0000 0.55020  0.79870  0.63320  Biso   1.000  O
  O60      1.0000 0.44860  0.83410  0.62740  Biso   1.000  O
  O61      1.0000 0.18500  0.72610  0.43540  Biso   1.000  O
  O62      1.0000 0.17720  0.68860  0.35100  Biso   1.000  O
  O63      1.0000 0.44230  0.67280  0.41470  Biso   1.000  O
  O64      1.0000 0.33300  0.19850  0.21560  Biso   1.000  O
  O65      1.0000 0.27580  0.16340  0.26030  Biso   1.000  O
  O66      1.0000 0.00060  0.22420  0.14020  Biso   1.000  O
  O67      1.0000 0.92910  0.22680  0.03470  Biso   1.000  O
  O68      1.0000 0.99820  0.33160  0.75930  Biso   1.000  O
  O69      1.0000 0.95990  0.19510  0.72220  Biso   1.000  O
  O70      1.0000 0.08210  0.94170  0.86520  Biso   1.000  O
  O71      1.0000 0.13570  0.95240  0.96860  Biso   1.000  O
  O72      1.0000 0.12420  0.29710  0.99490  Biso   1.000  O
  C97      1.0000 0.44610  0.73370  0.37770  Biso   1.000  C
  C98      1.0000 0.42640  0.82650  0.37250  Biso   1.000  C
  H37      1.0000 0.40830  0.84950  0.39420  Biso   1.000  H
  C99      1.0000 0.43440  0.88240  0.33470  Biso   1.000  C
  C100     1.0000 0.46340  0.84960  0.30350  Biso   1.000  C
  H38      1.0000 0.46960  0.88870  0.27910  Biso   1.000  H
  C101     1.0000 0.48270  0.76080  0.30860  Biso   1.000  C
  C102     1.0000 0.47520  0.70210  0.34700  Biso   1.000  C
  H39      1.0000 0.49010  0.64160  0.35160  Biso   1.000  H
  C103     1.0000 0.41260  0.98290  0.32600  Biso   1.000  C
  C104     1.0000 0.51290  0.72350  0.27430  Biso   1.000  C
  C105     1.0000 0.41140  0.70390  0.44570  Biso   1.000  C
  C106     1.0000 0.45980  0.73390  0.50740  Biso   1.000  C
  H40      1.0000 0.51250  0.73430  0.52860  Biso   1.000  H
  C107     1.0000 0.42900  0.76330  0.53780  Biso   1.000  C
  C108     1.0000 0.34770  0.75580  0.50530  Biso   1.000  C
  H41      1.0000 0.32610  0.77480  0.52510  Biso   1.000  H
  C109     1.0000 0.30220  0.72070  0.44520  Biso   1.000  C
  C110     1.0000 0.33370  0.69460  0.41440  Biso   1.000  C
  H42      1.0000 0.30280  0.67130  0.37330  Biso   1.000  H
  C111     1.0000 0.47680  0.80040  0.60110  Biso   1.000  C
  C112     1.0000 0.21610  0.71150  0.40790  Biso   1.000  C
  C113     1.0000 0.12630  0.26430  0.04550  Biso   1.000  C
  C114     1.0000 0.19800  0.24240  0.10250  Biso   1.000  C
  H43      1.0000 0.24270  0.24540  0.10560  Biso   1.000  H
  C115     1.0000 0.19920  0.21570  0.15450  Biso   1.000  C
  C116     1.0000 0.13430  0.21170  0.15010  Biso   1.000  C
  H44      1.0000 0.13680  0.19330  0.18520  Biso   1.000  H
  C117     1.0000 0.06400  0.23480  0.09410  Biso   1.000  C
  C118     1.0000 0.05940  0.25760  0.04080  Biso   1.000  C
  H45      1.0000 0.01200  0.26840  0.00220  Biso   1.000  H
  C119     1.0000 0.27540  0.18890  0.21530  Biso   1.000  C
  C120     1.0000 0.99150  0.22610  0.09000  Biso   1.000  C
  C121     1.0000 0.10010  0.23610  0.94650  Biso   1.000  C
  C122     1.0000 0.06240  0.27020  0.88520  Biso   1.000  C
  H46      1.0000 0.05390  0.33250  0.87810  Biso   1.000  H
  C123     1.0000 0.03750  0.21240  0.83440  Biso   1.000  C
  C124     1.0000 0.04930  0.12030  0.84430  Biso   1.000  C
  H47      1.0000 0.03190  0.08170  0.81010  Biso   1.000  H
  C125     1.0000 0.08720  0.08420  0.90520  Biso   1.000  C
  C126     1.0000 0.11220  0.14250  0.95750  Biso   1.000  C
  H48      1.0000 0.13610  0.11890  0.99810  Biso   1.000  H
  C127     1.0000 0.99550  0.24700  0.76750  Biso   1.000  C
  C128     1.0000 0.10280  0.98230  0.91380  Biso   1.000  C
