data_FUFREE_clean
_audit_creation_date              2014-07-02
_audit_creation_method            'Materials Studio'
_symmetry_space_group_name_H-M    'P1'
_symmetry_Int_Tables_number       1
_symmetry_cell_setting            triclinic
loop_
_symmetry_equiv_pos_as_xyz
  x,y,z
_cell_length_a                    7.7850
_cell_length_b                    10.2380
_cell_length_c                    15.8510
_cell_angle_alpha                 90.0000
_cell_angle_beta                  90.0000
_cell_angle_gamma                 90.0000
loop_
_atom_site_label
_atom_site_type_symbol
_atom_site_fract_x
_atom_site_fract_y
_atom_site_fract_z
_atom_site_U_iso_or_equiv
_atom_site_adp_type
_atom_site_occupancy
Fe1    Fe    0.63812   0.52983   0.90166   0.01267  Uiso   1.00
Fe2    Fe    0.36188   0.47017   0.40166   0.01267  Uiso   1.00
Fe3    Fe    0.13812   0.97017   0.90166   0.01267  Uiso   1.00
Fe4    Fe    0.86188   0.02983   0.40166   0.01267  Uiso   1.00
H1     H     0.58600   0.94930   0.71070   0.01267  Uiso   1.00
H2     H     0.45080   0.41120   0.58640   0.01267  Uiso   1.00
H3     H     0.34240   0.75160   0.48540   0.01267  Uiso   1.00
H4     H     0.44430   0.85990   0.60270   0.01267  Uiso   1.00
H5     H     0.56340   0.50910   0.70450   0.01267  Uiso   1.00
H6     H     0.41400   0.05070   0.21070   0.01267  Uiso   1.00
H7     H     0.54920   0.58880   0.08640   0.01267  Uiso   1.00
H8     H     0.65760   0.24840   0.98540   0.01267  Uiso   1.00
H9     H     0.55570   0.14010   0.10270   0.01267  Uiso   1.00
H10    H     0.43660   0.49090   0.20450   0.01267  Uiso   1.00
H11    H     0.08600   0.55070   0.71070   0.01267  Uiso   1.00
H12    H     0.95080   0.08880   0.58640   0.01267  Uiso   1.00
H13    H     0.84240   0.74840   0.48540   0.01267  Uiso   1.00
H14    H     0.94430   0.64010   0.60270   0.01267  Uiso   1.00
H15    H     0.06340   0.99090   0.70450   0.01267  Uiso   1.00
H16    H     0.91400   0.44930   0.21070   0.01267  Uiso   1.00
H17    H     0.04920   0.91120   0.08640   0.01267  Uiso   1.00
H18    H     0.15760   0.25160   0.98540   0.01267  Uiso   1.00
H19    H     0.05570   0.35990   0.10270   0.01267  Uiso   1.00
H20    H     0.93660   0.00910   0.20450   0.01267  Uiso   1.00
C1     C     0.45300   0.50390   0.58913   0.01267  Uiso   1.00
C2     C     0.38890   0.70190   0.53056   0.01267  Uiso   1.00
C3     C     0.45040   0.76740   0.59996   0.01267  Uiso   1.00
C4     C     0.51930   0.56130   0.65991   0.01267  Uiso   1.00
C5     C     0.52150   0.69670   0.66600   0.01267  Uiso   1.00
C6     C     0.60540   0.75910   0.73815   0.01267  Uiso   1.00
C7     C     0.73240   0.91300   0.81253   0.01267  Uiso   1.00
C8     C     0.76500   0.79120   0.84698   0.01267  Uiso   1.00
C9     C     0.78080   0.05020   0.83547   0.01267  Uiso   1.00
C10    C     0.86680   0.75110   0.92164   0.01267  Uiso   1.00
C11    C     0.54700   0.49610   0.08913   0.01267  Uiso   1.00
C12    C     0.61110   0.29810   0.03056   0.01267  Uiso   1.00
C13    C     0.54960   0.23260   0.09996   0.01267  Uiso   1.00
C14    C     0.48070   0.43870   0.15991   0.01267  Uiso   1.00
C15    C     0.47850   0.30330   0.16600   0.01267  Uiso   1.00
C16    C     0.39460   0.24090   0.23815   0.01267  Uiso   1.00
C17    C     0.26760   0.08700   0.31253   0.01267  Uiso   1.00
C18    C     0.23500   0.20880   0.34698   0.01267  Uiso   1.00
C19    C     0.21920   0.94980   0.33547   0.01267  Uiso   1.00
C20    C     0.13320   0.24890   0.42164   0.01267  Uiso   1.00
C21    C     0.95300   0.99610   0.58913   0.01267  Uiso   1.00
C22    C     0.88890   0.79810   0.53056   0.01267  Uiso   1.00
C23    C     0.95040   0.73260   0.59996   0.01267  Uiso   1.00
C24    C     0.01930   0.93870   0.65991   0.01267  Uiso   1.00
C25    C     0.02150   0.80330   0.66600   0.01267  Uiso   1.00
C26    C     0.10540   0.74090   0.73815   0.01267  Uiso   1.00
C27    C     0.23240   0.58700   0.81253   0.01267  Uiso   1.00
C28    C     0.26500   0.70880   0.84698   0.01267  Uiso   1.00
C29    C     0.28080   0.44980   0.83547   0.01267  Uiso   1.00
C30    C     0.36680   0.74890   0.92164   0.01267  Uiso   1.00
C31    C     0.04700   0.00390   0.08913   0.01267  Uiso   1.00
C32    C     0.11110   0.20190   0.03056   0.01267  Uiso   1.00
C33    C     0.04960   0.26740   0.09996   0.01267  Uiso   1.00
C34    C     0.98070   0.06130   0.15991   0.01267  Uiso   1.00
C35    C     0.97850   0.19670   0.16600   0.01267  Uiso   1.00
C36    C     0.89460   0.25910   0.23815   0.01267  Uiso   1.00
C37    C     0.76760   0.41300   0.31253   0.01267  Uiso   1.00
C38    C     0.73500   0.29120   0.34698   0.01267  Uiso   1.00
C39    C     0.71920   0.55020   0.33547   0.01267  Uiso   1.00
C40    C     0.63320   0.25110   0.42164   0.01267  Uiso   1.00
N1     N     0.39100   0.57180   0.52328   0.01267  Uiso   1.00
N2     N     0.62940   0.88968   0.74455   0.01267  Uiso   1.00
N3     N     0.68220   0.69604   0.80050   0.01267  Uiso   1.00
N4     N     0.60900   0.42820   0.02328   0.01267  Uiso   1.00
N5     N     0.37060   0.11032   0.24455   0.01267  Uiso   1.00
N6     N     0.31780   0.30396   0.30050   0.01267  Uiso   1.00
N7     N     0.89100   0.92820   0.52328   0.01267  Uiso   1.00
N8     N     0.12940   0.61032   0.74455   0.01267  Uiso   1.00
N9     N     0.18220   0.80396   0.80050   0.01267  Uiso   1.00
N10    N     0.10900   0.07180   0.02328   0.01267  Uiso   1.00
N11    N     0.87060   0.38968   0.24455   0.01267  Uiso   1.00
N12    N     0.81780   0.19604   0.30050   0.01267  Uiso   1.00
O1     O     0.66520   0.13332   0.82898   0.01267  Uiso   1.00
O2     O     0.93220   0.07457   0.85673   0.01267  Uiso   1.00
O3     O     0.97050   0.82871   0.95412   0.01267  Uiso   1.00
O4     O     0.84480   0.63518   0.94765   0.01267  Uiso   1.00
O5     O     0.33480   0.86668   0.32898   0.01267  Uiso   1.00
O6     O     0.06780   0.92543   0.35673   0.01267  Uiso   1.00
O7     O     0.02950   0.17129   0.45412   0.01267  Uiso   1.00
O8     O     0.15520   0.36482   0.44765   0.01267  Uiso   1.00
O9     O     0.16520   0.36668   0.82898   0.01267  Uiso   1.00
O10    O     0.43220   0.42543   0.85673   0.01267  Uiso   1.00
O11    O     0.47050   0.67129   0.95412   0.01267  Uiso   1.00
O12    O     0.34480   0.86482   0.94765   0.01267  Uiso   1.00
O13    O     0.83480   0.63332   0.32898   0.01267  Uiso   1.00
O14    O     0.56780   0.57457   0.35673   0.01267  Uiso   1.00
O15    O     0.52950   0.32871   0.45412   0.01267  Uiso   1.00
O16    O     0.65520   0.13518   0.44765   0.01267  Uiso   1.00
