data_image0
_cell_length_a       11.1577
_cell_length_b       17.4945
_cell_length_c       13.0419
_cell_angle_alpha    90
_cell_angle_beta     102.316
_cell_angle_gamma    90

_symmetry_space_group_name_H-M    "P 1"
_symmetry_int_tables_number       1

loop_
  _symmetry_equiv_pos_as_xyz
  'x, y, z'

loop_
  _atom_site_label
  _atom_site_occupancy
  _atom_site_fract_x
  _atom_site_fract_y
  _atom_site_fract_z
  _atom_site_thermal_displace_type
  _atom_site_B_iso_or_equiv
  _atom_site_type_symbol
  Zn1      1.0000 0.36802  0.94008  0.64536  Biso   1.000  Zn
  Ca1      1.0000 0.44625  0.13179  0.57441  Biso   1.000  Ca
  C1       1.0000 0.74500  0.90037  0.15230  Biso   1.000  C
  C2       1.0000 0.78410  0.82497  0.15590  Biso   1.000  C
  H1       1.0000 0.78880  0.79660  0.21690  Biso   1.000  H
  C3       1.0000 0.81620  0.79154  0.06910  Biso   1.000  C
  C4       1.0000 0.80860  0.83360  0.97720  Biso   1.000  C
  H2       1.0000 0.83120  0.81190  0.91900  Biso   1.000  H
  C5       1.0000 0.76690  0.90830  0.97410  Biso   1.000  C
  C6       1.0000 0.73630  0.94215  0.06070  Biso   1.000  C
  H3       1.0000 0.71010  0.99270  0.05760  Biso   1.000  H
  C7       1.0000 0.70500  0.93558  0.24520  Biso   1.000  C
  C8       1.0000 0.85420  0.70850  0.07310  Biso   1.000  C
  C9       1.0000 0.81490  0.95295  0.81110  Biso   1.000  C
  C10      1.0000 0.75440  0.97197  0.71000  Biso   1.000  C
  C11      1.0000 0.82370  0.98370  0.63380  Biso   1.000  C
  C12      1.0000 0.95080  0.97610  0.66000  Biso   1.000  C
  H4       1.0000 0.99700  0.98460  0.60960  Biso   1.000  H
  C13      1.0000 0.00800  0.95600  0.76080  Biso   1.000  C
  H5       1.0000 0.09270  0.95000  0.77750  Biso   1.000  H
  C14      1.0000 0.94090  0.94470  0.83740  Biso   1.000  C
  H6       1.0000 0.98010  0.93170  0.90540  Biso   1.000  H
  C15      1.0000 0.61800  0.98601  0.68750  Biso   1.000  C
  C16      1.0000 0.76210  0.00890  0.52520  Biso   1.000  C
  O1       1.0000 0.68130  0.00662  0.23860  Biso   1.000  O
  O2       1.0000 0.69670  0.89351  0.32034  Biso   1.000  O
  O3       1.0000 0.83540  0.67082  0.15081  Biso   1.000  O
  O4       1.0000 0.89870  0.68169  0.00080  Biso   1.000  O
  O5       1.0000 0.74090  0.95217  0.88340  Biso   1.000  O
  O6       1.0000 0.81860  0.04745  0.47240  Biso   1.000  O
  O7       1.0000 0.64990  0.99084  0.49132  Biso   1.000  O
  O8       1.0000 0.58210  0.05302  0.68406  Biso   1.000  O
  O9       1.0000 0.54950  0.92822  0.67510  Biso   1.000  O
  Zn2      1.0000 0.13198  0.44008  0.85464  Biso   1.000  Zn
  Ca2      1.0000 0.05375  0.63179  0.92559  Biso   1.000  Ca
  C17      1.0000 0.75500  0.40037  0.34770  Biso   1.000  C
  C18      1.0000 0.71590  0.32497  0.34410  Biso   1.000  C
  H7       1.0000 0.71120  0.29660  0.28310  Biso   1.000  H
  C19      1.0000 0.68380  0.29154  0.43090  Biso   1.000  C
  C20      1.0000 0.69140  0.33360  0.52280  Biso   1.000  C
  H8       1.0000 0.66880  0.31190  0.58100  Biso   1.000  H
  C21      1.0000 0.73310  0.40830  0.52590  Biso   1.000  C
  C22      1.0000 0.76370  0.44215  0.43930  Biso   1.000  C
  H9       1.0000 0.78990  0.49270  0.44240  Biso   1.000  H
  C23      1.0000 0.79500  0.43558  0.25480  Biso   1.000  C
  C24      1.0000 0.64580  0.20850  0.42690  Biso   1.000  C
  C25      1.0000 0.68510  0.45295  0.68890  Biso   1.000  C
  C26      1.0000 0.74560  0.47197  0.79000  Biso   1.000  C
  C27      1.0000 0.67630  0.48370  0.86620  Biso   1.000  C
  C28      1.0000 0.54920  0.47610  0.84000  Biso   1.000  C
  H10      1.0000 0.50300  0.48460  0.89040  Biso   1.000  H
  C29      1.0000 0.49200  0.45600  0.73920  Biso   1.000  C
  H11      1.0000 0.40730  0.45000  0.72250  Biso   1.000  H
  C30      1.0000 0.55910  0.44470  0.66260  Biso   1.000  C
  H12      1.0000 0.51990  0.43170  0.59460  Biso   1.000  H
  C31      1.0000 0.88200  0.48601  0.81250  Biso   1.000  C
  C32      1.0000 0.73790  0.50890  0.97480  Biso   1.000  C
  O10      1.0000 0.81870  0.50662  0.26140  Biso   1.000  O
  O11      1.0000 0.80330  0.39351  0.17966  Biso   1.000  O
  O12      1.0000 0.66460  0.17082  0.34919  Biso   1.000  O
  O13      1.0000 0.60130  0.18169  0.49920  Biso   1.000  O
  O14      1.0000 0.75910  0.45217  0.61660  Biso   1.000  O
  O15      1.0000 0.68140  0.54745  0.02760  Biso   1.000  O
  O16      1.0000 0.85010  0.49084  0.00868  Biso   1.000  O
  O17      1.0000 0.91790  0.55302  0.81594  Biso   1.000  O
  O18      1.0000 0.95050  0.42822  0.82490  Biso   1.000  O
  Zn3      1.0000 0.63198  0.05992  0.35464  Biso   1.000  Zn
  Ca3      1.0000 0.55375  0.86821  0.42559  Biso   1.000  Ca
  C33      1.0000 0.25500  0.09963  0.84770  Biso   1.000  C
  C34      1.0000 0.21590  0.17503  0.84410  Biso   1.000  C
  H13      1.0000 0.21120  0.20340  0.78310  Biso   1.000  H
  C35      1.0000 0.18380  0.20846  0.93090  Biso   1.000  C
  C36      1.0000 0.19140  0.16640  0.02280  Biso   1.000  C
  H14      1.0000 0.16880  0.18810  0.08100  Biso   1.000  H
  C37      1.0000 0.23310  0.09170  0.02590  Biso   1.000  C
  C38      1.0000 0.26370  0.05785  0.93930  Biso   1.000  C
  H15      1.0000 0.28990  0.00730  0.94240  Biso   1.000  H
  C39      1.0000 0.29500  0.06442  0.75480  Biso   1.000  C
  C40      1.0000 0.14580  0.29150  0.92690  Biso   1.000  C
  C41      1.0000 0.18510  0.04705  0.18890  Biso   1.000  C
  C42      1.0000 0.24560  0.02803  0.29000  Biso   1.000  C
  C43      1.0000 0.17630  0.01630  0.36620  Biso   1.000  C
  C44      1.0000 0.04920  0.02390  0.34000  Biso   1.000  C
  H16      1.0000 0.00300  0.01540  0.39040  Biso   1.000  H
  C45      1.0000 0.99200  0.04400  0.23920  Biso   1.000  C
  H17      1.0000 0.90730  0.05000  0.22250  Biso   1.000  H
  C46      1.0000 0.05910  0.05530  0.16260  Biso   1.000  C
  H18      1.0000 0.01990  0.06830  0.09460  Biso   1.000  H
  C47      1.0000 0.38200  0.01399  0.31250  Biso   1.000  C
  C48      1.0000 0.23790  0.99110  0.47480  Biso   1.000  C
  O19      1.0000 0.31870  0.99338  0.76140  Biso   1.000  O
  O20      1.0000 0.30330  0.10649  0.67966  Biso   1.000  O
  O21      1.0000 0.16460  0.32918  0.84919  Biso   1.000  O
  O22      1.0000 0.10130  0.31831  0.99920  Biso   1.000  O
  O23      1.0000 0.25910  0.04783  0.11660  Biso   1.000  O
  O24      1.0000 0.18140  0.95255  0.52760  Biso   1.000  O
  O25      1.0000 0.35010  0.00916  0.50868  Biso   1.000  O
  O26      1.0000 0.41790  0.94698  0.31594  Biso   1.000  O
  O27      1.0000 0.45050  0.07178  0.32490  Biso   1.000  O
  Zn4      1.0000 0.86802  0.55992  0.14536  Biso   1.000  Zn
  Ca4      1.0000 0.94625  0.36821  0.07441  Biso   1.000  Ca
  C49      1.0000 0.24500  0.59963  0.65230  Biso   1.000  C
  C50      1.0000 0.28410  0.67503  0.65590  Biso   1.000  C
  H19      1.0000 0.28880  0.70340  0.71690  Biso   1.000  H
  C51      1.0000 0.31620  0.70846  0.56910  Biso   1.000  C
  C52      1.0000 0.30860  0.66640  0.47720  Biso   1.000  C
  H20      1.0000 0.33120  0.68810  0.41900  Biso   1.000  H
  C53      1.0000 0.26690  0.59170  0.47410  Biso   1.000  C
  C54      1.0000 0.23630  0.55785  0.56070  Biso   1.000  C
  H21      1.0000 0.21010  0.50730  0.55760  Biso   1.000  H
  C55      1.0000 0.20500  0.56442  0.74520  Biso   1.000  C
  C56      1.0000 0.35420  0.79150  0.57310  Biso   1.000  C
  C57      1.0000 0.31490  0.54705  0.31110  Biso   1.000  C
  C58      1.0000 0.25440  0.52803  0.21000  Biso   1.000  C
  C59      1.0000 0.32370  0.51630  0.13380  Biso   1.000  C
  C60      1.0000 0.45080  0.52390  0.16000  Biso   1.000  C
  H22      1.0000 0.49700  0.51540  0.10960  Biso   1.000  H
  C61      1.0000 0.50800  0.54400  0.26080  Biso   1.000  C
  H23      1.0000 0.59270  0.55000  0.27750  Biso   1.000  H
  C62      1.0000 0.44090  0.55530  0.33740  Biso   1.000  C
  H24      1.0000 0.48010  0.56830  0.40540  Biso   1.000  H
  C63      1.0000 0.11800  0.51399  0.18750  Biso   1.000  C
  C64      1.0000 0.26210  0.49110  0.02520  Biso   1.000  C
  O28      1.0000 0.18130  0.49338  0.73860  Biso   1.000  O
  O29      1.0000 0.19670  0.60649  0.82034  Biso   1.000  O
  O30      1.0000 0.33540  0.82918  0.65081  Biso   1.000  O
  O31      1.0000 0.39870  0.81831  0.50080  Biso   1.000  O
  O32      1.0000 0.24090  0.54783  0.38340  Biso   1.000  O
  O33      1.0000 0.31860  0.45255  0.97240  Biso   1.000  O
  O34      1.0000 0.14990  0.50916  0.99132  Biso   1.000  O
  O35      1.0000 0.08210  0.44698  0.18406  Biso   1.000  O
  O36      1.0000 0.04950  0.57178  0.17510  Biso   1.000  O
