data_image0
_cell_length_a       15.1153
_cell_length_b       14.8786
_cell_length_c       21.8613
_cell_angle_alpha    90
_cell_angle_beta     90.895
_cell_angle_gamma    90

_symmetry_space_group_name_H-M    "P 1"
_symmetry_int_tables_number       1

loop_
  _symmetry_equiv_pos_as_xyz
  'x, y, z'

loop_
  _atom_site_label
  _atom_site_occupancy
  _atom_site_fract_x
  _atom_site_fract_y
  _atom_site_fract_z
  _atom_site_thermal_displace_type
  _atom_site_B_iso_or_equiv
  _atom_site_type_symbol
  Zn1      1.0000 0.27393  0.31487  0.37613  Biso   1.000  Zn
  Na1      1.0000 0.25283  0.37308  0.51787  Biso   1.000  Na
  C1       1.0000 0.48110  0.26550  0.50509  Biso   1.000  C
  C2       1.0000 0.47490  0.26000  0.56897  Biso   1.000  C
  C3       1.0000 0.54950  0.27530  0.60501  Biso   1.000  C
  H1       1.0000 0.54560  0.27090  0.64730  Biso   1.000  H
  C4       1.0000 0.62880  0.29700  0.57940  Biso   1.000  C
  H2       1.0000 0.67780  0.30840  0.60440  Biso   1.000  H
  C5       1.0000 0.63620  0.30200  0.51690  Biso   1.000  C
  H3       1.0000 0.68990  0.31660  0.49930  Biso   1.000  H
  C6       1.0000 0.56260  0.28490  0.48057  Biso   1.000  C
  C7       1.0000 0.40440  0.24980  0.46126  Biso   1.000  C
  C8       1.0000 0.38980  0.23560  0.59998  Biso   1.000  C
  C9       1.0000 0.61070  0.22750  0.38422  Biso   1.000  C
  C10      1.0000 0.63620  0.14550  0.40848  Biso   1.000  C
  H4       1.0000 0.62530  0.13210  0.44920  Biso   1.000  H
  C11      1.0000 0.67850  0.08290  0.37134  Biso   1.000  C
  C12      1.0000 0.69420  0.10400  0.31076  Biso   1.000  C
  H5       1.0000 0.72260  0.06240  0.28600  Biso   1.000  H
  C13      1.0000 0.66830  0.18620  0.28642  Biso   1.000  C
  C14      1.0000 0.62690  0.24860  0.32379  Biso   1.000  C
  H6       1.0000 0.61030  0.30440  0.30820  Biso   1.000  H
  C15      1.0000 0.70800  0.99370  0.39727  Biso   1.000  C
  C16      1.0000 0.68870  0.20840  0.22065  Biso   1.000  C
  O1       1.0000 0.38610  0.17284  0.44485  Biso   1.000  O
  O2       1.0000 0.36543  0.32183  0.44342  Biso   1.000  O
  O3       1.0000 0.31769  0.24174  0.56981  Biso   1.000  O
  O4       1.0000 0.39250  0.20950  0.65381  Biso   1.000  O
  O5       1.0000 0.56704  0.29337  0.41714  Biso   1.000  O
  O6       1.0000 0.74778  0.94266  0.36082  Biso   1.000  O
  O7       1.0000 0.69250  0.97630  0.45103  Biso   1.000  O
  O8       1.0000 0.71250  0.14840  0.18594  Biso   1.000  O
  O9       1.0000 0.68000  0.29021  0.20503  Biso   1.000  O
  Zn2      1.0000 0.77393  0.81487  0.37613  Biso   1.000  Zn
  Na2      1.0000 0.75283  0.87308  0.51787  Biso   1.000  Na
  C17      1.0000 0.98110  0.76550  0.50509  Biso   1.000  C
  C18      1.0000 0.97490  0.76000  0.56897  Biso   1.000  C
  C19      1.0000 0.04950  0.77530  0.60501  Biso   1.000  C
  H7       1.0000 0.04560  0.77090  0.64730  Biso   1.000  H
  C20      1.0000 0.12880  0.79700  0.57940  Biso   1.000  C
  H8       1.0000 0.17780  0.80840  0.60440  Biso   1.000  H
  C21      1.0000 0.13620  0.80200  0.51690  Biso   1.000  C
  H9       1.0000 0.18990  0.81660  0.49930  Biso   1.000  H
  C22      1.0000 0.06260  0.78490  0.48057  Biso   1.000  C
  C23      1.0000 0.90440  0.74980  0.46126  Biso   1.000  C
  C24      1.0000 0.88980  0.73560  0.59998  Biso   1.000  C
  C25      1.0000 0.11070  0.72750  0.38422  Biso   1.000  C
  C26      1.0000 0.13620  0.64550  0.40848  Biso   1.000  C
  H10      1.0000 0.12530  0.63210  0.44920  Biso   1.000  H
  C27      1.0000 0.17850  0.58290  0.37134  Biso   1.000  C
  C28      1.0000 0.19420  0.60400  0.31076  Biso   1.000  C
  H11      1.0000 0.22260  0.56240  0.28600  Biso   1.000  H
  C29      1.0000 0.16830  0.68620  0.28642  Biso   1.000  C
  C30      1.0000 0.12690  0.74860  0.32379  Biso   1.000  C
  H12      1.0000 0.11030  0.80440  0.30820  Biso   1.000  H
  C31      1.0000 0.20800  0.49370  0.39727  Biso   1.000  C
  C32      1.0000 0.18870  0.70840  0.22065  Biso   1.000  C
  O10      1.0000 0.88610  0.67284  0.44485  Biso   1.000  O
  O11      1.0000 0.86543  0.82183  0.44342  Biso   1.000  O
  O12      1.0000 0.81769  0.74174  0.56981  Biso   1.000  O
  O13      1.0000 0.89250  0.70950  0.65381  Biso   1.000  O
  O14      1.0000 0.06704  0.79337  0.41714  Biso   1.000  O
  O15      1.0000 0.24778  0.44266  0.36082  Biso   1.000  O
  O16      1.0000 0.19250  0.47630  0.45103  Biso   1.000  O
  O17      1.0000 0.21250  0.64840  0.18594  Biso   1.000  O
  O18      1.0000 0.18000  0.79021  0.20503  Biso   1.000  O
  Zn3      1.0000 0.72607  0.31487  0.12387  Biso   1.000  Zn
  Na3      1.0000 0.74717  0.37308  0.98213  Biso   1.000  Na
  C33      1.0000 0.51890  0.26550  0.99491  Biso   1.000  C
  C34      1.0000 0.52510  0.26000  0.93103  Biso   1.000  C
  C35      1.0000 0.45050  0.27530  0.89499  Biso   1.000  C
  H13      1.0000 0.45440  0.27090  0.85270  Biso   1.000  H
  C36      1.0000 0.37120  0.29700  0.92060  Biso   1.000  C
  H14      1.0000 0.32220  0.30840  0.89560  Biso   1.000  H
  C37      1.0000 0.36380  0.30200  0.98310  Biso   1.000  C
  H15      1.0000 0.31010  0.31660  0.00070  Biso   1.000  H
  C38      1.0000 0.43740  0.28490  0.01943  Biso   1.000  C
  C39      1.0000 0.59560  0.24980  0.03874  Biso   1.000  C
  C40      1.0000 0.61020  0.23560  0.90002  Biso   1.000  C
  C41      1.0000 0.38930  0.22750  0.11578  Biso   1.000  C
  C42      1.0000 0.36380  0.14550  0.09152  Biso   1.000  C
  H16      1.0000 0.37470  0.13210  0.05080  Biso   1.000  H
  C43      1.0000 0.32150  0.08290  0.12866  Biso   1.000  C
  C44      1.0000 0.30580  0.10400  0.18924  Biso   1.000  C
  H17      1.0000 0.27740  0.06240  0.21400  Biso   1.000  H
  C45      1.0000 0.33170  0.18620  0.21358  Biso   1.000  C
  C46      1.0000 0.37310  0.24860  0.17621  Biso   1.000  C
  H18      1.0000 0.38970  0.30440  0.19180  Biso   1.000  H
  C47      1.0000 0.29200  0.99370  0.10273  Biso   1.000  C
  C48      1.0000 0.31130  0.20840  0.27935  Biso   1.000  C
  O19      1.0000 0.61390  0.17284  0.05515  Biso   1.000  O
  O20      1.0000 0.63457  0.32183  0.05658  Biso   1.000  O
  O21      1.0000 0.68231  0.24174  0.93019  Biso   1.000  O
  O22      1.0000 0.60750  0.20950  0.84619  Biso   1.000  O
  O23      1.0000 0.43296  0.29337  0.08286  Biso   1.000  O
  O24      1.0000 0.25222  0.94266  0.13918  Biso   1.000  O
  O25      1.0000 0.30750  0.97630  0.04897  Biso   1.000  O
  O26      1.0000 0.28750  0.14840  0.31406  Biso   1.000  O
  O27      1.0000 0.32000  0.29021  0.29497  Biso   1.000  O
  Zn4      1.0000 0.22607  0.81487  0.12387  Biso   1.000  Zn
  Na4      1.0000 0.24717  0.87308  0.98213  Biso   1.000  Na
  C49      1.0000 0.01890  0.76550  0.99491  Biso   1.000  C
  C50      1.0000 0.02510  0.76000  0.93103  Biso   1.000  C
  C51      1.0000 0.95050  0.77530  0.89499  Biso   1.000  C
  H19      1.0000 0.95440  0.77090  0.85270  Biso   1.000  H
  C52      1.0000 0.87120  0.79700  0.92060  Biso   1.000  C
  H20      1.0000 0.82220  0.80840  0.89560  Biso   1.000  H
  C53      1.0000 0.86380  0.80200  0.98310  Biso   1.000  C
  H21      1.0000 0.81010  0.81660  0.00070  Biso   1.000  H
  C54      1.0000 0.93740  0.78490  0.01943  Biso   1.000  C
  C55      1.0000 0.09560  0.74980  0.03874  Biso   1.000  C
  C56      1.0000 0.11020  0.73560  0.90002  Biso   1.000  C
  C57      1.0000 0.88930  0.72750  0.11578  Biso   1.000  C
  C58      1.0000 0.86380  0.64550  0.09152  Biso   1.000  C
  H22      1.0000 0.87470  0.63210  0.05080  Biso   1.000  H
  C59      1.0000 0.82150  0.58290  0.12866  Biso   1.000  C
  C60      1.0000 0.80580  0.60400  0.18924  Biso   1.000  C
  H23      1.0000 0.77740  0.56240  0.21400  Biso   1.000  H
  C61      1.0000 0.83170  0.68620  0.21358  Biso   1.000  C
  C62      1.0000 0.87310  0.74860  0.17621  Biso   1.000  C
  H24      1.0000 0.88970  0.80440  0.19180  Biso   1.000  H
  C63      1.0000 0.79200  0.49370  0.10273  Biso   1.000  C
  C64      1.0000 0.81130  0.70840  0.27935  Biso   1.000  C
  O28      1.0000 0.11390  0.67284  0.05515  Biso   1.000  O
  O29      1.0000 0.13457  0.82183  0.05658  Biso   1.000  O
  O30      1.0000 0.18231  0.74174  0.93019  Biso   1.000  O
  O31      1.0000 0.10750  0.70950  0.84619  Biso   1.000  O
  O32      1.0000 0.93296  0.79337  0.08286  Biso   1.000  O
  O33      1.0000 0.75222  0.44266  0.13918  Biso   1.000  O
  O34      1.0000 0.80750  0.47630  0.04897  Biso   1.000  O
  O35      1.0000 0.78750  0.64840  0.31406  Biso   1.000  O
  O36      1.0000 0.82000  0.79021  0.29497  Biso   1.000  O
  Zn5      1.0000 0.72607  0.68513  0.62387  Biso   1.000  Zn
  Na5      1.0000 0.74717  0.62692  0.48213  Biso   1.000  Na
  C65      1.0000 0.51890  0.73450  0.49491  Biso   1.000  C
  C66      1.0000 0.52510  0.74000  0.43103  Biso   1.000  C
  C67      1.0000 0.45050  0.72470  0.39499  Biso   1.000  C
  H25      1.0000 0.45440  0.72910  0.35270  Biso   1.000  H
  C68      1.0000 0.37120  0.70300  0.42060  Biso   1.000  C
  H26      1.0000 0.32220  0.69160  0.39560  Biso   1.000  H
  C69      1.0000 0.36380  0.69800  0.48310  Biso   1.000  C
  H27      1.0000 0.31010  0.68340  0.50070  Biso   1.000  H
  C70      1.0000 0.43740  0.71510  0.51943  Biso   1.000  C
  C71      1.0000 0.59560  0.75020  0.53874  Biso   1.000  C
  C72      1.0000 0.61020  0.76440  0.40002  Biso   1.000  C
  C73      1.0000 0.38930  0.77250  0.61578  Biso   1.000  C
  C74      1.0000 0.36380  0.85450  0.59152  Biso   1.000  C
  H28      1.0000 0.37470  0.86790  0.55080  Biso   1.000  H
  C75      1.0000 0.32150  0.91710  0.62866  Biso   1.000  C
  C76      1.0000 0.30580  0.89600  0.68924  Biso   1.000  C
  H29      1.0000 0.27740  0.93760  0.71400  Biso   1.000  H
  C77      1.0000 0.33170  0.81380  0.71358  Biso   1.000  C
  C78      1.0000 0.37310  0.75140  0.67621  Biso   1.000  C
  H30      1.0000 0.38970  0.69560  0.69180  Biso   1.000  H
  C79      1.0000 0.29200  0.00630  0.60273  Biso   1.000  C
  C80      1.0000 0.31130  0.79160  0.77935  Biso   1.000  C
  O37      1.0000 0.61390  0.82716  0.55515  Biso   1.000  O
  O38      1.0000 0.63457  0.67817  0.55658  Biso   1.000  O
  O39      1.0000 0.68231  0.75826  0.43019  Biso   1.000  O
  O40      1.0000 0.60750  0.79050  0.34619  Biso   1.000  O
  O41      1.0000 0.43296  0.70663  0.58286  Biso   1.000  O
  O42      1.0000 0.25222  0.05734  0.63918  Biso   1.000  O
  O43      1.0000 0.30750  0.02370  0.54897  Biso   1.000  O
  O44      1.0000 0.28750  0.85160  0.81406  Biso   1.000  O
  O45      1.0000 0.32000  0.70979  0.79497  Biso   1.000  O
  Zn6      1.0000 0.22607  0.18513  0.62387  Biso   1.000  Zn
  Na6      1.0000 0.24717  0.12692  0.48213  Biso   1.000  Na
  C81      1.0000 0.01890  0.23450  0.49491  Biso   1.000  C
  C82      1.0000 0.02510  0.24000  0.43103  Biso   1.000  C
  C83      1.0000 0.95050  0.22470  0.39499  Biso   1.000  C
  H31      1.0000 0.95440  0.22910  0.35270  Biso   1.000  H
  C84      1.0000 0.87120  0.20300  0.42060  Biso   1.000  C
  H32      1.0000 0.82220  0.19160  0.39560  Biso   1.000  H
  C85      1.0000 0.86380  0.19800  0.48310  Biso   1.000  C
  H33      1.0000 0.81010  0.18340  0.50070  Biso   1.000  H
  C86      1.0000 0.93740  0.21510  0.51943  Biso   1.000  C
  C87      1.0000 0.09560  0.25020  0.53874  Biso   1.000  C
  C88      1.0000 0.11020  0.26440  0.40002  Biso   1.000  C
  C89      1.0000 0.88930  0.27250  0.61578  Biso   1.000  C
  C90      1.0000 0.86380  0.35450  0.59152  Biso   1.000  C
  H34      1.0000 0.87470  0.36790  0.55080  Biso   1.000  H
  C91      1.0000 0.82150  0.41710  0.62866  Biso   1.000  C
  C92      1.0000 0.80580  0.39600  0.68924  Biso   1.000  C
  H35      1.0000 0.77740  0.43760  0.71400  Biso   1.000  H
  C93      1.0000 0.83170  0.31380  0.71358  Biso   1.000  C
  C94      1.0000 0.87310  0.25140  0.67621  Biso   1.000  C
  H36      1.0000 0.88970  0.19560  0.69180  Biso   1.000  H
  C95      1.0000 0.79200  0.50630  0.60273  Biso   1.000  C
  C96      1.0000 0.81130  0.29160  0.77935  Biso   1.000  C
  O46      1.0000 0.11390  0.32716  0.55515  Biso   1.000  O
  O47      1.0000 0.13457  0.17817  0.55658  Biso   1.000  O
  O48      1.0000 0.18231  0.25826  0.43019  Biso   1.000  O
  O49      1.0000 0.10750  0.29050  0.34619  Biso   1.000  O
  O50      1.0000 0.93296  0.20663  0.58286  Biso   1.000  O
  O51      1.0000 0.75222  0.55734  0.63918  Biso   1.000  O
  O52      1.0000 0.80750  0.52370  0.54897  Biso   1.000  O
  O53      1.0000 0.78750  0.35160  0.81406  Biso   1.000  O
  O54      1.0000 0.82000  0.20979  0.79497  Biso   1.000  O
  Zn7      1.0000 0.27393  0.68513  0.87613  Biso   1.000  Zn
  Na7      1.0000 0.25283  0.62692  0.01787  Biso   1.000  Na
  C97      1.0000 0.48110  0.73450  0.00509  Biso   1.000  C
  C98      1.0000 0.47490  0.74000  0.06897  Biso   1.000  C
  C99      1.0000 0.54950  0.72470  0.10501  Biso   1.000  C
  H37      1.0000 0.54560  0.72910  0.14730  Biso   1.000  H
  C100     1.0000 0.62880  0.70300  0.07940  Biso   1.000  C
  H38      1.0000 0.67780  0.69160  0.10440  Biso   1.000  H
  C101     1.0000 0.63620  0.69800  0.01690  Biso   1.000  C
  H39      1.0000 0.68990  0.68340  0.99930  Biso   1.000  H
  C102     1.0000 0.56260  0.71510  0.98057  Biso   1.000  C
  C103     1.0000 0.40440  0.75020  0.96126  Biso   1.000  C
  C104     1.0000 0.38980  0.76440  0.09998  Biso   1.000  C
  C105     1.0000 0.61070  0.77250  0.88422  Biso   1.000  C
  C106     1.0000 0.63620  0.85450  0.90848  Biso   1.000  C
  H40      1.0000 0.62530  0.86790  0.94920  Biso   1.000  H
  C107     1.0000 0.67850  0.91710  0.87134  Biso   1.000  C
  C108     1.0000 0.69420  0.89600  0.81076  Biso   1.000  C
  H41      1.0000 0.72260  0.93760  0.78600  Biso   1.000  H
  C109     1.0000 0.66830  0.81380  0.78642  Biso   1.000  C
  C110     1.0000 0.62690  0.75140  0.82379  Biso   1.000  C
  H42      1.0000 0.61030  0.69560  0.80820  Biso   1.000  H
  C111     1.0000 0.70800  0.00630  0.89727  Biso   1.000  C
  C112     1.0000 0.68870  0.79160  0.72065  Biso   1.000  C
  O55      1.0000 0.38610  0.82716  0.94485  Biso   1.000  O
  O56      1.0000 0.36543  0.67817  0.94342  Biso   1.000  O
  O57      1.0000 0.31769  0.75826  0.06981  Biso   1.000  O
  O58      1.0000 0.39250  0.79050  0.15381  Biso   1.000  O
  O59      1.0000 0.56704  0.70663  0.91714  Biso   1.000  O
  O60      1.0000 0.74778  0.05734  0.86082  Biso   1.000  O
  O61      1.0000 0.69250  0.02370  0.95103  Biso   1.000  O
  O62      1.0000 0.71250  0.85160  0.68594  Biso   1.000  O
  O63      1.0000 0.68000  0.70979  0.70503  Biso   1.000  O
  Zn8      1.0000 0.77393  0.18513  0.87613  Biso   1.000  Zn
  Na8      1.0000 0.75283  0.12692  0.01787  Biso   1.000  Na
  C113     1.0000 0.98110  0.23450  0.00509  Biso   1.000  C
  C114     1.0000 0.97490  0.24000  0.06897  Biso   1.000  C
  C115     1.0000 0.04950  0.22470  0.10501  Biso   1.000  C
  H43      1.0000 0.04560  0.22910  0.14730  Biso   1.000  H
  C116     1.0000 0.12880  0.20300  0.07940  Biso   1.000  C
  H44      1.0000 0.17780  0.19160  0.10440  Biso   1.000  H
  C117     1.0000 0.13620  0.19800  0.01690  Biso   1.000  C
  H45      1.0000 0.18990  0.18340  0.99930  Biso   1.000  H
  C118     1.0000 0.06260  0.21510  0.98057  Biso   1.000  C
  C119     1.0000 0.90440  0.25020  0.96126  Biso   1.000  C
  C120     1.0000 0.88980  0.26440  0.09998  Biso   1.000  C
  C121     1.0000 0.11070  0.27250  0.88422  Biso   1.000  C
  C122     1.0000 0.13620  0.35450  0.90848  Biso   1.000  C
  H46      1.0000 0.12530  0.36790  0.94920  Biso   1.000  H
  C123     1.0000 0.17850  0.41710  0.87134  Biso   1.000  C
  C124     1.0000 0.19420  0.39600  0.81076  Biso   1.000  C
  H47      1.0000 0.22260  0.43760  0.78600  Biso   1.000  H
  C125     1.0000 0.16830  0.31380  0.78642  Biso   1.000  C
  C126     1.0000 0.12690  0.25140  0.82379  Biso   1.000  C
  H48      1.0000 0.11030  0.19560  0.80820  Biso   1.000  H
  C127     1.0000 0.20800  0.50630  0.89727  Biso   1.000  C
  C128     1.0000 0.18870  0.29160  0.72065  Biso   1.000  C
  O64      1.0000 0.88610  0.32716  0.94485  Biso   1.000  O
  O65      1.0000 0.86543  0.17817  0.94342  Biso   1.000  O
  O66      1.0000 0.81769  0.25826  0.06981  Biso   1.000  O
  O67      1.0000 0.89250  0.29050  0.15381  Biso   1.000  O
  O68      1.0000 0.06704  0.20663  0.91714  Biso   1.000  O
  O69      1.0000 0.24778  0.55734  0.86082  Biso   1.000  O
  O70      1.0000 0.19250  0.52370  0.95103  Biso   1.000  O
  O71      1.0000 0.21250  0.35160  0.68594  Biso   1.000  O
  O72      1.0000 0.18000  0.20979  0.70503  Biso   1.000  O
