data_image0
_cell_length_a       12.821
_cell_length_b       11.0944
_cell_length_c       19.2042
_cell_angle_alpha    90
_cell_angle_beta     103.325
_cell_angle_gamma    90

_symmetry_space_group_name_H-M    "P 1"
_symmetry_int_tables_number       1

loop_
  _symmetry_equiv_pos_as_xyz
  'x, y, z'

loop_
  _atom_site_label
  _atom_site_occupancy
  _atom_site_fract_x
  _atom_site_fract_y
  _atom_site_fract_z
  _atom_site_thermal_displace_type
  _atom_site_B_iso_or_equiv
  _atom_site_type_symbol
  Zn1      1.0000 0.16322  0.82062  0.97169  Biso   1.000  Zn
  Ba1      1.0000 0.87084  0.95736  0.88732  Biso   1.000  Ba
  O1       1.0000 0.01797  0.86220  0.01030  Biso   1.000  O
  O2       1.0000 0.07605  0.67530  0.01603  Biso   1.000  O
  O3       1.0000 0.70975  0.84940  0.13134  Biso   1.000  O
  O4       1.0000 0.65138  0.74660  0.37561  Biso   1.000  O
  O5       1.0000 0.47319  0.74060  0.35948  Biso   1.000  O
  O6       1.0000 0.24508  0.84230  0.11748  Biso   1.000  O
  O7       1.0000 0.31278  0.78380  0.02647  Biso   1.000  O
  O8       1.0000 0.93361  0.97790  0.12720  Biso   1.000  O
  O9       1.0000 0.81239  0.99420  0.02395  Biso   1.000  O
  C1       1.0000 0.00870  0.74990  0.02565  Biso   1.000  C
  C2       1.0000 0.91530  0.71340  0.05548  Biso   1.000  C
  C3       1.0000 0.89630  0.59040  0.06254  Biso   1.000  C
  H1       1.0000 0.94010  0.53370  0.04780  Biso   1.000  H
  C4       1.0000 0.81260  0.55310  0.09140  Biso   1.000  C
  H2       1.0000 0.79980  0.47120  0.09560  Biso   1.000  H
  C5       1.0000 0.74710  0.63740  0.11416  Biso   1.000  C
  H3       1.0000 0.69100  0.61210  0.13390  Biso   1.000  H
  C6       1.0000 0.76630  0.75960  0.10718  Biso   1.000  C
  C7       1.0000 0.84960  0.79890  0.07704  Biso   1.000  C
  C8       1.0000 0.62120  0.82020  0.15898  Biso   1.000  C
  C9       1.0000 0.63430  0.80410  0.23138  Biso   1.000  C
  H4       1.0000 0.70240  0.80530  0.26140  Biso   1.000  H
  C10      1.0000 0.54460  0.78600  0.25940  Biso   1.000  C
  C11      1.0000 0.44280  0.78990  0.21377  Biso   1.000  C
  H5       1.0000 0.38240  0.78320  0.23260  Biso   1.000  H
  C12      1.0000 0.43080  0.80370  0.14072  Biso   1.000  C
  C13      1.0000 0.52130  0.81620  0.11296  Biso   1.000  C
  H6       1.0000 0.51450  0.82190  0.06380  Biso   1.000  H
  C14      1.0000 0.55590  0.75650  0.33739  Biso   1.000  C
  C15      1.0000 0.32110  0.80990  0.09172  Biso   1.000  C
  C16      1.0000 0.86770  0.93440  0.07630  Biso   1.000  C
  Zn2      1.0000 0.33678  0.32062  0.52831  Biso   1.000  Zn
  Ba2      1.0000 0.62916  0.45736  0.61268  Biso   1.000  Ba
  O10      1.0000 0.48203  0.36220  0.48970  Biso   1.000  O
  O11      1.0000 0.42395  0.17530  0.48397  Biso   1.000  O
  O12      1.0000 0.79025  0.34940  0.36866  Biso   1.000  O
  O13      1.0000 0.84862  0.24660  0.12439  Biso   1.000  O
  O14      1.0000 0.02681  0.24060  0.14052  Biso   1.000  O
  O15      1.0000 0.25492  0.34230  0.38252  Biso   1.000  O
  O16      1.0000 0.18722  0.28380  0.47353  Biso   1.000  O
  O17      1.0000 0.56639  0.47790  0.37280  Biso   1.000  O
  O18      1.0000 0.68761  0.49420  0.47605  Biso   1.000  O
  C17      1.0000 0.49130  0.24990  0.47435  Biso   1.000  C
  C18      1.0000 0.58470  0.21340  0.44452  Biso   1.000  C
  C19      1.0000 0.60370  0.09040  0.43746  Biso   1.000  C
  H7       1.0000 0.55990  0.03370  0.45220  Biso   1.000  H
  C20      1.0000 0.68740  0.05310  0.40860  Biso   1.000  C
  H8       1.0000 0.70020  0.97120  0.40440  Biso   1.000  H
  C21      1.0000 0.75290  0.13740  0.38584  Biso   1.000  C
  H9       1.0000 0.80900  0.11210  0.36610  Biso   1.000  H
  C22      1.0000 0.73370  0.25960  0.39282  Biso   1.000  C
  C23      1.0000 0.65040  0.29890  0.42296  Biso   1.000  C
  C24      1.0000 0.87880  0.32020  0.34102  Biso   1.000  C
  C25      1.0000 0.86570  0.30410  0.26862  Biso   1.000  C
  H10      1.0000 0.79760  0.30530  0.23860  Biso   1.000  H
  C26      1.0000 0.95540  0.28600  0.24060  Biso   1.000  C
  C27      1.0000 0.05720  0.28990  0.28623  Biso   1.000  C
  H11      1.0000 0.11760  0.28320  0.26740  Biso   1.000  H
  C28      1.0000 0.06920  0.30370  0.35928  Biso   1.000  C
  C29      1.0000 0.97870  0.31620  0.38704  Biso   1.000  C
  H12      1.0000 0.98550  0.32190  0.43620  Biso   1.000  H
  C30      1.0000 0.94410  0.25650  0.16261  Biso   1.000  C
  C31      1.0000 0.17890  0.30990  0.40828  Biso   1.000  C
  C32      1.0000 0.63230  0.43440  0.42370  Biso   1.000  C
  Zn3      1.0000 0.83678  0.17938  0.02831  Biso   1.000  Zn
  Ba3      1.0000 0.12916  0.04264  0.11268  Biso   1.000  Ba
  O19      1.0000 0.98203  0.13780  0.98970  Biso   1.000  O
  O20      1.0000 0.92395  0.32470  0.98397  Biso   1.000  O
  O21      1.0000 0.29025  0.15060  0.86866  Biso   1.000  O
  O22      1.0000 0.34862  0.25340  0.62439  Biso   1.000  O
  O23      1.0000 0.52681  0.25940  0.64052  Biso   1.000  O
  O24      1.0000 0.75492  0.15770  0.88252  Biso   1.000  O
  O25      1.0000 0.68722  0.21620  0.97353  Biso   1.000  O
  O26      1.0000 0.06639  0.02210  0.87280  Biso   1.000  O
  O27      1.0000 0.18761  0.00580  0.97605  Biso   1.000  O
  C33      1.0000 0.99130  0.25010  0.97435  Biso   1.000  C
  C34      1.0000 0.08470  0.28660  0.94452  Biso   1.000  C
  C35      1.0000 0.10370  0.40960  0.93746  Biso   1.000  C
  H13      1.0000 0.05990  0.46630  0.95220  Biso   1.000  H
  C36      1.0000 0.18740  0.44690  0.90860  Biso   1.000  C
  H14      1.0000 0.20020  0.52880  0.90440  Biso   1.000  H
  C37      1.0000 0.25290  0.36260  0.88584  Biso   1.000  C
  H15      1.0000 0.30900  0.38790  0.86610  Biso   1.000  H
  C38      1.0000 0.23370  0.24040  0.89282  Biso   1.000  C
  C39      1.0000 0.15040  0.20110  0.92296  Biso   1.000  C
  C40      1.0000 0.37880  0.17980  0.84102  Biso   1.000  C
  C41      1.0000 0.36570  0.19590  0.76862  Biso   1.000  C
  H16      1.0000 0.29760  0.19470  0.73860  Biso   1.000  H
  C42      1.0000 0.45540  0.21400  0.74060  Biso   1.000  C
  C43      1.0000 0.55720  0.21010  0.78623  Biso   1.000  C
  H17      1.0000 0.61760  0.21680  0.76740  Biso   1.000  H
  C44      1.0000 0.56920  0.19630  0.85928  Biso   1.000  C
  C45      1.0000 0.47870  0.18380  0.88704  Biso   1.000  C
  H18      1.0000 0.48550  0.17810  0.93620  Biso   1.000  H
  C46      1.0000 0.44410  0.24350  0.66261  Biso   1.000  C
  C47      1.0000 0.67890  0.19010  0.90828  Biso   1.000  C
  C48      1.0000 0.13230  0.06560  0.92370  Biso   1.000  C
  Zn4      1.0000 0.66322  0.67938  0.47169  Biso   1.000  Zn
  Ba4      1.0000 0.37084  0.54264  0.38732  Biso   1.000  Ba
  O28      1.0000 0.51797  0.63780  0.51030  Biso   1.000  O
  O29      1.0000 0.57605  0.82470  0.51603  Biso   1.000  O
  O30      1.0000 0.20975  0.65060  0.63134  Biso   1.000  O
  O31      1.0000 0.15138  0.75340  0.87561  Biso   1.000  O
  O32      1.0000 0.97319  0.75940  0.85948  Biso   1.000  O
  O33      1.0000 0.74508  0.65770  0.61748  Biso   1.000  O
  O34      1.0000 0.81278  0.71620  0.52647  Biso   1.000  O
  O35      1.0000 0.43361  0.52210  0.62720  Biso   1.000  O
  O36      1.0000 0.31239  0.50580  0.52395  Biso   1.000  O
  C49      1.0000 0.50870  0.75010  0.52565  Biso   1.000  C
  C50      1.0000 0.41530  0.78660  0.55548  Biso   1.000  C
  C51      1.0000 0.39630  0.90960  0.56254  Biso   1.000  C
  H19      1.0000 0.44010  0.96630  0.54780  Biso   1.000  H
  C52      1.0000 0.31260  0.94690  0.59140  Biso   1.000  C
  H20      1.0000 0.29980  0.02880  0.59560  Biso   1.000  H
  C53      1.0000 0.24710  0.86260  0.61416  Biso   1.000  C
  H21      1.0000 0.19100  0.88790  0.63390  Biso   1.000  H
  C54      1.0000 0.26630  0.74040  0.60718  Biso   1.000  C
  C55      1.0000 0.34960  0.70110  0.57704  Biso   1.000  C
  C56      1.0000 0.12120  0.67980  0.65898  Biso   1.000  C
  C57      1.0000 0.13430  0.69590  0.73138  Biso   1.000  C
  H22      1.0000 0.20240  0.69470  0.76140  Biso   1.000  H
  C58      1.0000 0.04460  0.71400  0.75940  Biso   1.000  C
  C59      1.0000 0.94280  0.71010  0.71377  Biso   1.000  C
  H23      1.0000 0.88240  0.71680  0.73260  Biso   1.000  H
  C60      1.0000 0.93080  0.69630  0.64072  Biso   1.000  C
  C61      1.0000 0.02130  0.68380  0.61296  Biso   1.000  C
  H24      1.0000 0.01450  0.67810  0.56380  Biso   1.000  H
  C62      1.0000 0.05590  0.74350  0.83739  Biso   1.000  C
  C63      1.0000 0.82110  0.69010  0.59172  Biso   1.000  C
  C64      1.0000 0.36770  0.56560  0.57630  Biso   1.000  C
