data_image0
_cell_length_a       6.6374
_cell_length_b       9.5714
_cell_length_c       19.89
_cell_angle_alpha    85.19
_cell_angle_beta     82.971
_cell_angle_gamma    88.016

_symmetry_space_group_name_H-M    "P 1"
_symmetry_int_tables_number       1

loop_
  _symmetry_equiv_pos_as_xyz
  'x, y, z'

loop_
  _atom_site_label
  _atom_site_occupancy
  _atom_site_fract_x
  _atom_site_fract_y
  _atom_site_fract_z
  _atom_site_thermal_displace_type
  _atom_site_B_iso_or_equiv
  _atom_site_type_symbol
  C1       1.0000 0.25700  0.43410  0.02687  Biso   1.000  C
  C2       1.0000 0.38150  0.33170  0.93172  Biso   1.000  C
  C3       1.0000 0.36380  0.20990  0.03473  Biso   1.000  C
  C4       1.0000 0.12360  0.58710  0.12037  Biso   1.000  C
  C5       1.0000 0.12270  0.49140  0.17759  Biso   1.000  C
  H1       1.0000 0.15660  0.39540  0.17220  Biso   1.000  H
  C6       1.0000 0.07270  0.53620  0.24194  Biso   1.000  C
  H2       1.0000 0.07390  0.47060  0.28050  Biso   1.000  H
  C7       1.0000 0.02030  0.67640  0.25123  Biso   1.000  C
  C8       1.0000 0.01950  0.77140  0.19362  Biso   1.000  C
  H3       1.0000 0.98270  0.86700  0.19910  Biso   1.000  H
  C9       1.0000 0.07130  0.72840  0.12929  Biso   1.000  C
  H4       1.0000 0.07160  0.79440  0.09080  Biso   1.000  H
  C10      1.0000 0.96750  0.72680  0.32034  Biso   1.000  C
  C11      1.0000 0.41680  0.44030  0.81161  Biso   1.000  C
  C12      1.0000 0.35960  0.57840  0.82269  Biso   1.000  C
  H5       1.0000 0.33040  0.60600  0.86770  Biso   1.000  H
  C13      1.0000 0.34520  0.67600  0.76747  Biso   1.000  C
  H6       1.0000 0.30050  0.76930  0.77520  Biso   1.000  H
  C14      1.0000 0.39510  0.63940  0.70102  Biso   1.000  C
  C15      1.0000 0.45920  0.50260  0.68988  Biso   1.000  C
  H7       1.0000 0.49760  0.47700  0.64490  Biso   1.000  H
  C16      1.0000 0.46700  0.40300  0.74483  Biso   1.000  C
  H8       1.0000 0.50680  0.30890  0.73700  Biso   1.000  H
  C17      1.0000 0.37370  0.74920  0.64413  Biso   1.000  C
  C18      1.0000 0.37690  0.07090  0.14538  Biso   1.000  C
  C19      1.0000 0.52870  0.99670  0.17699  Biso   1.000  C
  H9       1.0000 0.64800  0.96540  0.15050  Biso   1.000  H
  C20      1.0000 0.50600  0.96840  0.24713  Biso   1.000  C
  H10      1.0000 0.60870  0.91610  0.26820  Biso   1.000  H
  C21      1.0000 0.33360  0.01620  0.28681  Biso   1.000  C
  C22      1.0000 0.18600  0.09460  0.25515  Biso   1.000  C
  H11      1.0000 0.07090  0.13110  0.28190  Biso   1.000  H
  C23      1.0000 0.20530  0.11990  0.18496  Biso   1.000  C
  H12      1.0000 0.10130  0.17070  0.16380  Biso   1.000  H
  C24      1.0000 0.30690  0.97990  0.36226  Biso   1.000  C
  N1       1.0000 0.30410  0.44740  0.95891  Biso   1.000  N
  N2       1.0000 0.41800  0.20680  0.96769  Biso   1.000  N
  N3       1.0000 0.27940  0.31760  0.06759  Biso   1.000  N
  N4       1.0000 0.18090  0.55400  0.05349  Biso   1.000  N
  H13      1.0000 0.16460  0.62400  0.02280  Biso   1.000  H
  N5       1.0000 0.43350  0.33270  0.86361  Biso   1.000  N
  H14      1.0000 0.48620  0.25310  0.84960  Biso   1.000  H
  N6       1.0000 0.40400  0.08960  0.07362  Biso   1.000  N
  H15      1.0000 0.45120  0.01680  0.05180  Biso   1.000  H
  O1       1.0000 0.48470  0.74180  0.58804  Biso   1.000  O
  O2       1.0000 0.24130  0.84390  0.65671  Biso   1.000  O
  O3       1.0000 0.45230  0.91530  0.38781  Biso   1.000  O
  O4       1.0000 0.14080  0.01500  0.39699  Biso   1.000  O
  O5       1.0000 0.88540  0.84880  0.32159  Biso   1.000  O
  O6       1.0000 0.00250  0.65210  0.37280  Biso   1.000  O
  O7       1.0000 0.70360  0.96900  0.48234  Biso   1.000  O
  H16      1.0000 0.78700  0.95600  0.51060  Biso   1.000  H
  Co1      1.0000 0.45159  0.84145  0.49075  Biso   1.000  Co
  Co2      1.0000 0.84424  0.98186  0.39089  Biso   1.000  Co
  C25      1.0000 0.74300  0.56590  0.97313  Biso   1.000  C
  C26      1.0000 0.61850  0.66830  0.06828  Biso   1.000  C
  C27      1.0000 0.63620  0.79010  0.96527  Biso   1.000  C
  C28      1.0000 0.87640  0.41290  0.87963  Biso   1.000  C
  C29      1.0000 0.87730  0.50860  0.82241  Biso   1.000  C
  H17      1.0000 0.84340  0.60460  0.82780  Biso   1.000  H
  C30      1.0000 0.92730  0.46380  0.75806  Biso   1.000  C
  H18      1.0000 0.92610  0.52940  0.71950  Biso   1.000  H
  C31      1.0000 0.97970  0.32360  0.74877  Biso   1.000  C
  C32      1.0000 0.98050  0.22860  0.80638  Biso   1.000  C
  H19      1.0000 0.01730  0.13300  0.80090  Biso   1.000  H
  C33      1.0000 0.92870  0.27160  0.87071  Biso   1.000  C
  H20      1.0000 0.92840  0.20560  0.90920  Biso   1.000  H
  C34      1.0000 0.03250  0.27320  0.67966  Biso   1.000  C
  C35      1.0000 0.58320  0.55970  0.18839  Biso   1.000  C
  C36      1.0000 0.64040  0.42160  0.17731  Biso   1.000  C
  H21      1.0000 0.66960  0.39400  0.13230  Biso   1.000  H
  C37      1.0000 0.65480  0.32400  0.23253  Biso   1.000  C
  H22      1.0000 0.69950  0.23070  0.22480  Biso   1.000  H
  C38      1.0000 0.60490  0.36060  0.29898  Biso   1.000  C
  C39      1.0000 0.54080  0.49740  0.31012  Biso   1.000  C
  H23      1.0000 0.50240  0.52300  0.35510  Biso   1.000  H
  C40      1.0000 0.53300  0.59700  0.25517  Biso   1.000  C
  H24      1.0000 0.49320  0.69110  0.26300  Biso   1.000  H
  C41      1.0000 0.62630  0.25080  0.35587  Biso   1.000  C
  C42      1.0000 0.62310  0.92910  0.85462  Biso   1.000  C
  C43      1.0000 0.47130  0.00330  0.82301  Biso   1.000  C
  H25      1.0000 0.35200  0.03460  0.84950  Biso   1.000  H
  C44      1.0000 0.49400  0.03160  0.75287  Biso   1.000  C
  H26      1.0000 0.39130  0.08390  0.73180  Biso   1.000  H
  C45      1.0000 0.66640  0.98380  0.71319  Biso   1.000  C
  C46      1.0000 0.81400  0.90540  0.74485  Biso   1.000  C
  H27      1.0000 0.92910  0.86890  0.71810  Biso   1.000  H
  C47      1.0000 0.79470  0.88010  0.81504  Biso   1.000  C
  H28      1.0000 0.89870  0.82930  0.83620  Biso   1.000  H
  C48      1.0000 0.69310  0.02010  0.63774  Biso   1.000  C
  N7       1.0000 0.69590  0.55260  0.04109  Biso   1.000  N
  N8       1.0000 0.58200  0.79320  0.03231  Biso   1.000  N
  N9       1.0000 0.72060  0.68240  0.93241  Biso   1.000  N
  N10      1.0000 0.81910  0.44600  0.94651  Biso   1.000  N
  H29      1.0000 0.83540  0.37600  0.97720  Biso   1.000  H
  N11      1.0000 0.56650  0.66730  0.13639  Biso   1.000  N
  H30      1.0000 0.51380  0.74690  0.15040  Biso   1.000  H
  N12      1.0000 0.59600  0.91040  0.92638  Biso   1.000  N
  H31      1.0000 0.54880  0.98320  0.94820  Biso   1.000  H
  O8       1.0000 0.51530  0.25820  0.41196  Biso   1.000  O
  O9       1.0000 0.75870  0.15610  0.34329  Biso   1.000  O
  O10      1.0000 0.54770  0.08470  0.61219  Biso   1.000  O
  O11      1.0000 0.85920  0.98500  0.60301  Biso   1.000  O
  O12      1.0000 0.11460  0.15120  0.67841  Biso   1.000  O
  O13      1.0000 0.99750  0.34790  0.62720  Biso   1.000  O
  O14      1.0000 0.29640  0.03100  0.51766  Biso   1.000  O
  H32      1.0000 0.21300  0.04400  0.48940  Biso   1.000  H
  Co3      1.0000 0.54841  0.15855  0.50925  Biso   1.000  Co
  Co4      1.0000 0.15576  0.01814  0.60911  Biso   1.000  Co
