data_FULQUZ_clean
_audit_creation_date              2014-07-02
_audit_creation_method            'Materials Studio'
_symmetry_space_group_name_H-M    'P1'
_symmetry_Int_Tables_number       1
_symmetry_cell_setting            triclinic
loop_
_symmetry_equiv_pos_as_xyz
  x,y,z
_cell_length_a                    11.2270
_cell_length_b                    17.4340
_cell_length_c                    17.9800
_cell_angle_alpha                 90.0000
_cell_angle_beta                  90.0000
_cell_angle_gamma                 90.0000
loop_
_atom_site_label
_atom_site_type_symbol
_atom_site_fract_x
_atom_site_fract_y
_atom_site_fract_z
_atom_site_U_iso_or_equiv
_atom_site_adp_type
_atom_site_occupancy
La1    La    0.14260   0.18420   0.48034   0.01267  Uiso   1.00
La2    La    0.31851   0.96719   0.47990   0.01267  Uiso   1.00
La3    La    0.85740   0.81580   0.98034   0.01267  Uiso   1.00
La4    La    0.68149   0.03281   0.97990   0.01267  Uiso   1.00
La5    La    0.35740   0.68420   0.48034   0.01267  Uiso   1.00
La6    La    0.18149   0.46719   0.47990   0.01267  Uiso   1.00
La7    La    0.64260   0.31580   0.98034   0.01267  Uiso   1.00
La8    La    0.81851   0.53281   0.97990   0.01267  Uiso   1.00
H1     H     0.08560   0.88200   0.66910   0.01267  Uiso   1.00
H2     H     0.98630   0.86370   0.78980   0.01267  Uiso   1.00
H3     H     0.95010   0.20860   0.67300   0.01267  Uiso   1.00
H4     H     0.86280   0.22430   0.79820   0.01267  Uiso   1.00
H5     H     0.02980   0.46600   0.28860   0.01267  Uiso   1.00
H6     H     0.92990   0.48100   0.16860   0.01267  Uiso   1.00
H7     H     0.15300   0.82100   0.46100   0.01267  Uiso   1.00
H8     H     0.91440   0.11800   0.16910   0.01267  Uiso   1.00
H9     H     0.01370   0.13630   0.28980   0.01267  Uiso   1.00
H10    H     0.04990   0.79140   0.17300   0.01267  Uiso   1.00
H11    H     0.13720   0.77570   0.29820   0.01267  Uiso   1.00
H12    H     0.97020   0.53400   0.78860   0.01267  Uiso   1.00
H13    H     0.07010   0.51900   0.66860   0.01267  Uiso   1.00
H14    H     0.84700   0.17900   0.96100   0.01267  Uiso   1.00
H15    H     0.41440   0.38200   0.66910   0.01267  Uiso   1.00
H16    H     0.51370   0.36370   0.78980   0.01267  Uiso   1.00
H17    H     0.54990   0.70860   0.67300   0.01267  Uiso   1.00
H18    H     0.63720   0.72430   0.79820   0.01267  Uiso   1.00
H19    H     0.47020   0.96600   0.28860   0.01267  Uiso   1.00
H20    H     0.57010   0.98100   0.16860   0.01267  Uiso   1.00
H21    H     0.34700   0.32100   0.46100   0.01267  Uiso   1.00
H22    H     0.58560   0.61800   0.16910   0.01267  Uiso   1.00
H23    H     0.48630   0.63630   0.28980   0.01267  Uiso   1.00
H24    H     0.45010   0.29140   0.17300   0.01267  Uiso   1.00
H25    H     0.36280   0.27570   0.29820   0.01267  Uiso   1.00
H26    H     0.52980   0.03400   0.78860   0.01267  Uiso   1.00
H27    H     0.42990   0.01900   0.66860   0.01267  Uiso   1.00
H28    H     0.65300   0.67900   0.96100   0.01267  Uiso   1.00
C1     C     0.03370   0.99580   0.66810   0.01267  Uiso   1.00
C2     C     0.04450   0.92100   0.69440   0.01267  Uiso   1.00
C3     C     0.98650   0.91030   0.76350   0.01267  Uiso   1.00
C4     C     0.93070   0.97570   0.78800   0.01267  Uiso   1.00
C5     C     0.08140   0.02530   0.59470   0.01267  Uiso   1.00
C6     C     0.86210   0.98690   0.85680   0.01267  Uiso   1.00
C7     C     0.02070   0.31670   0.67950   0.01267  Uiso   1.00
C8     C     0.95810   0.25330   0.70190   0.01267  Uiso   1.00
C9     C     0.90680   0.26250   0.77350   0.01267  Uiso   1.00
C10    C     0.92930   0.33430   0.80220   0.01267  Uiso   1.00
C11    C     0.07540   0.33130   0.60520   0.01267  Uiso   1.00
C12    C     0.88550   0.36520   0.87390   0.01267  Uiso   1.00
C13    C     0.01280   0.35050   0.28160   0.01267  Uiso   1.00
C14    C     0.00120   0.42460   0.26030   0.01267  Uiso   1.00
C15    C     0.94260   0.43360   0.19230   0.01267  Uiso   1.00
C16    C     0.90630   0.36430   0.16480   0.01267  Uiso   1.00
C17    C     0.06070   0.32400   0.35450   0.01267  Uiso   1.00
C18    C     0.83520   0.35340   0.09700   0.01267  Uiso   1.00
C19    C     0.96630   0.00420   0.16810   0.01267  Uiso   1.00
C20    C     0.95550   0.07900   0.19440   0.01267  Uiso   1.00
C21    C     0.01350   0.08970   0.26350   0.01267  Uiso   1.00
C22    C     0.06930   0.02430   0.28800   0.01267  Uiso   1.00
C23    C     0.91860   0.97470   0.09470   0.01267  Uiso   1.00
C24    C     0.13790   0.01310   0.35680   0.01267  Uiso   1.00
C25    C     0.97930   0.68330   0.17950   0.01267  Uiso   1.00
C26    C     0.04190   0.74670   0.20190   0.01267  Uiso   1.00
C27    C     0.09320   0.73750   0.27350   0.01267  Uiso   1.00
C28    C     0.07070   0.66570   0.30220   0.01267  Uiso   1.00
C29    C     0.92460   0.66870   0.10520   0.01267  Uiso   1.00
C30    C     0.11450   0.63480   0.37390   0.01267  Uiso   1.00
C31    C     0.98720   0.64950   0.78160   0.01267  Uiso   1.00
C32    C     0.99880   0.57540   0.76030   0.01267  Uiso   1.00
C33    C     0.05740   0.56640   0.69230   0.01267  Uiso   1.00
C34    C     0.09370   0.63570   0.66480   0.01267  Uiso   1.00
C35    C     0.93930   0.67600   0.85450   0.01267  Uiso   1.00
C36    C     0.16480   0.64660   0.59700   0.01267  Uiso   1.00
C37    C     0.46630   0.49580   0.66810   0.01267  Uiso   1.00
C38    C     0.45550   0.42100   0.69440   0.01267  Uiso   1.00
C39    C     0.51350   0.41030   0.76350   0.01267  Uiso   1.00
C40    C     0.56930   0.47570   0.78800   0.01267  Uiso   1.00
C41    C     0.41860   0.52530   0.59470   0.01267  Uiso   1.00
C42    C     0.63790   0.48690   0.85680   0.01267  Uiso   1.00
C43    C     0.47930   0.81670   0.67950   0.01267  Uiso   1.00
C44    C     0.54190   0.75330   0.70190   0.01267  Uiso   1.00
C45    C     0.59320   0.76250   0.77350   0.01267  Uiso   1.00
C46    C     0.57070   0.83430   0.80220   0.01267  Uiso   1.00
C47    C     0.42460   0.83130   0.60520   0.01267  Uiso   1.00
C48    C     0.61450   0.86520   0.87390   0.01267  Uiso   1.00
C49    C     0.48720   0.85050   0.28160   0.01267  Uiso   1.00
C50    C     0.49880   0.92460   0.26030   0.01267  Uiso   1.00
C51    C     0.55740   0.93360   0.19230   0.01267  Uiso   1.00
C52    C     0.59370   0.86430   0.16480   0.01267  Uiso   1.00
C53    C     0.43930   0.82400   0.35450   0.01267  Uiso   1.00
C54    C     0.66480   0.85340   0.09700   0.01267  Uiso   1.00
C55    C     0.53370   0.50420   0.16810   0.01267  Uiso   1.00
C56    C     0.54450   0.57900   0.19440   0.01267  Uiso   1.00
C57    C     0.48650   0.58970   0.26350   0.01267  Uiso   1.00
C58    C     0.43070   0.52430   0.28800   0.01267  Uiso   1.00
C59    C     0.58140   0.47470   0.09470   0.01267  Uiso   1.00
C60    C     0.36210   0.51310   0.35680   0.01267  Uiso   1.00
C61    C     0.52070   0.18330   0.17950   0.01267  Uiso   1.00
C62    C     0.45810   0.24670   0.20190   0.01267  Uiso   1.00
C63    C     0.40680   0.23750   0.27350   0.01267  Uiso   1.00
C64    C     0.42930   0.16570   0.30220   0.01267  Uiso   1.00
C65    C     0.57540   0.16870   0.10520   0.01267  Uiso   1.00
C66    C     0.38550   0.13480   0.37390   0.01267  Uiso   1.00
C67    C     0.51280   0.14950   0.78160   0.01267  Uiso   1.00
C68    C     0.50120   0.07540   0.76030   0.01267  Uiso   1.00
C69    C     0.44260   0.06640   0.69230   0.01267  Uiso   1.00
C70    C     0.40630   0.13570   0.66480   0.01267  Uiso   1.00
C71    C     0.56070   0.17600   0.85450   0.01267  Uiso   1.00
C72    C     0.33520   0.14660   0.59700   0.01267  Uiso   1.00
S1     S     0.95370   0.05115   0.72778   0.01267  Uiso   1.00
S2     S     0.01650   0.38792   0.74520   0.01267  Uiso   1.00
S3     S     0.94720   0.28931   0.21972   0.01267  Uiso   1.00
S4     S     0.04630   0.94885   0.22778   0.01267  Uiso   1.00
S5     S     0.98350   0.61208   0.24520   0.01267  Uiso   1.00
S6     S     0.05280   0.71069   0.71972   0.01267  Uiso   1.00
S7     S     0.54630   0.55115   0.72778   0.01267  Uiso   1.00
S8     S     0.48350   0.88792   0.74520   0.01267  Uiso   1.00
S9     S     0.55280   0.78931   0.21972   0.01267  Uiso   1.00
S10    S     0.45370   0.44885   0.22778   0.01267  Uiso   1.00
S11    S     0.51650   0.11208   0.24520   0.01267  Uiso   1.00
S12    S     0.44720   0.21069   0.71972   0.01267  Uiso   1.00
O1     O     0.13440   0.97750   0.55450   0.01267  Uiso   1.00
O2     O     0.06240   0.09440   0.58150   0.01267  Uiso   1.00
O3     O     0.85770   0.93600   0.90530   0.01267  Uiso   1.00
O4     O     0.81040   0.05140   0.86550   0.01267  Uiso   1.00
O5     O     0.05300   0.28170   0.55620   0.01267  Uiso   1.00
O6     O     0.13060   0.39260   0.59700   0.01267  Uiso   1.00
O7     O     0.82740   0.31940   0.91420   0.01267  Uiso   1.00
O8     O     0.90660   0.43480   0.88850   0.01267  Uiso   1.00
O9     O     0.08230   0.25330   0.36430   0.01267  Uiso   1.00
O10    O     0.07520   0.37460   0.40370   0.01267  Uiso   1.00
O11    O     0.78840   0.28790   0.08590   0.01267  Uiso   1.00
O12    O     0.81790   0.40870   0.05370   0.01267  Uiso   1.00
O13    O     0.21080   0.83050   0.48530   0.01267  Uiso   1.00
O14    O     0.86560   0.02250   0.05450   0.01267  Uiso   1.00
O15    O     0.93760   0.90560   0.08150   0.01267  Uiso   1.00
O16    O     0.14230   0.06400   0.40530   0.01267  Uiso   1.00
O17    O     0.18960   0.94860   0.36550   0.01267  Uiso   1.00
O18    O     0.94700   0.71830   0.05620   0.01267  Uiso   1.00
O19    O     0.86940   0.60740   0.09700   0.01267  Uiso   1.00
O20    O     0.17260   0.68060   0.41420   0.01267  Uiso   1.00
O21    O     0.09340   0.56520   0.38850   0.01267  Uiso   1.00
O22    O     0.91770   0.74670   0.86430   0.01267  Uiso   1.00
O23    O     0.92480   0.62540   0.90370   0.01267  Uiso   1.00
O24    O     0.21160   0.71210   0.58590   0.01267  Uiso   1.00
O25    O     0.18210   0.59130   0.55370   0.01267  Uiso   1.00
O26    O     0.78920   0.16950   0.98530   0.01267  Uiso   1.00
O27    O     0.36560   0.47750   0.55450   0.01267  Uiso   1.00
O28    O     0.43760   0.59440   0.58150   0.01267  Uiso   1.00
O29    O     0.64230   0.43600   0.90530   0.01267  Uiso   1.00
O30    O     0.68960   0.55140   0.86550   0.01267  Uiso   1.00
O31    O     0.44700   0.78170   0.55620   0.01267  Uiso   1.00
O32    O     0.36940   0.89260   0.59700   0.01267  Uiso   1.00
O33    O     0.67260   0.81940   0.91420   0.01267  Uiso   1.00
O34    O     0.59340   0.93480   0.88850   0.01267  Uiso   1.00
O35    O     0.41770   0.75330   0.36430   0.01267  Uiso   1.00
O36    O     0.42480   0.87460   0.40370   0.01267  Uiso   1.00
O37    O     0.71160   0.78790   0.08590   0.01267  Uiso   1.00
O38    O     0.68210   0.90870   0.05370   0.01267  Uiso   1.00
O39    O     0.28920   0.33050   0.48530   0.01267  Uiso   1.00
O40    O     0.63440   0.52250   0.05450   0.01267  Uiso   1.00
O41    O     0.56240   0.40560   0.08150   0.01267  Uiso   1.00
O42    O     0.35770   0.56400   0.40530   0.01267  Uiso   1.00
O43    O     0.31040   0.44860   0.36550   0.01267  Uiso   1.00
O44    O     0.55300   0.21830   0.05620   0.01267  Uiso   1.00
O45    O     0.63060   0.10740   0.09700   0.01267  Uiso   1.00
O46    O     0.32740   0.18060   0.41420   0.01267  Uiso   1.00
O47    O     0.40660   0.06520   0.38850   0.01267  Uiso   1.00
O48    O     0.58230   0.24670   0.86430   0.01267  Uiso   1.00
O49    O     0.57520   0.12540   0.90370   0.01267  Uiso   1.00
O50    O     0.28840   0.21210   0.58590   0.01267  Uiso   1.00
O51    O     0.31790   0.09130   0.55370   0.01267  Uiso   1.00
O52    O     0.71080   0.66950   0.98530   0.01267  Uiso   1.00
