data_image0
_cell_length_a       10.744
_cell_length_b       11.971
_cell_length_c       13.304
_cell_angle_alpha    91.512
_cell_angle_beta     111.418
_cell_angle_gamma    106.334

_symmetry_space_group_name_H-M    "P 1"
_symmetry_int_tables_number       1

loop_
  _symmetry_equiv_pos_as_xyz
  'x, y, z'

loop_
  _atom_site_label
  _atom_site_occupancy
  _atom_site_fract_x
  _atom_site_fract_y
  _atom_site_fract_z
  _atom_site_thermal_displace_type
  _atom_site_B_iso_or_equiv
  _atom_site_type_symbol
  N1       1.0000 0.75770  0.05510  0.67930  Biso   1.000  N
  O1       1.0000 0.59620  0.86990  0.97790  Biso   1.000  O
  O2       1.0000 0.81890  0.98240  0.02590  Biso   1.000  O
  N2       1.0000 0.19630  0.92970  0.66990  Biso   1.000  N
  N3       1.0000 0.34690  0.93050  0.83510  Biso   1.000  N
  N4       1.0000 0.76380  0.29760  0.92820  Biso   1.000  N
  N5       1.0000 0.87520  0.82820  0.91830  Biso   1.000  N
  C1       1.0000 0.96340  0.88280  0.52200  Biso   1.000  C
  C2       1.0000 0.71810  0.88930  0.98150  Biso   1.000  C
  C3       1.0000 0.74790  0.79470  0.92330  Biso   1.000  C
  C4       1.0000 0.25300  0.97690  0.77570  Biso   1.000  C
  H1       1.0000 0.22830  0.03570  0.80340  Biso   1.000  H
  N6       1.0000 0.91270  0.06140  0.84540  Biso   1.000  N
  N7       1.0000 0.61130  0.13360  0.93190  Biso   1.000  N
  C5       1.0000 0.85450  0.57420  0.73330  Biso   1.000  C
  C6       1.0000 0.77990  0.01990  0.77740  Biso   1.000  C
  H2       1.0000 0.70920  0.97150  0.79560  Biso   1.000  H
  C7       1.0000 0.09390  0.96440  0.58210  Biso   1.000  C
  C8       1.0000 0.99130  0.40910  0.92950  Biso   1.000  C
  H3       1.0000 0.98310  0.34630  0.88230  Biso   1.000  H
  C9       1.0000 0.88380  0.40320  0.96600  Biso   1.000  C
  C10      1.0000 0.72230  0.22110  0.98960  Biso   1.000  C
  H4       1.0000 0.76750  0.22930  0.06500  Biso   1.000  H
  C11      1.0000 0.11050  0.50740  0.96250  Biso   1.000  C
  C12      1.0000 0.62530  0.02440  0.58690  Biso   1.000  C
  C13      1.0000 0.25850  0.84500  0.66160  Biso   1.000  C
  H5       1.0000 0.24080  0.79690  0.59860  Biso   1.000  H
  C14      1.0000 0.54900  0.90840  0.54850  Biso   1.000  C
  C15      1.0000 0.88420  0.12860  0.68620  Biso   1.000  C
  H6       1.0000 0.90180  0.16910  0.63160  Biso   1.000  H
  C16      1.0000 0.41990  0.88490  0.45830  Biso   1.000  C
  H7       1.0000 0.36480  0.80740  0.42910  Biso   1.000  H
  O3       1.0000 0.97970  0.61030  0.74430  Biso   1.000  O
  C17      1.0000 0.98000  0.13130  0.78810  Biso   1.000  C
  H8       1.0000 0.07540  0.17360  0.81470  Biso   1.000  H
  C18      1.0000 0.65080  0.68650  0.87450  Biso   1.000  C
  H9       1.0000 0.56460  0.66340  0.88170  Biso   1.000  H
  C19      1.0000 0.87000  0.92110  0.43830  Biso   1.000  C
  H10      1.0000 0.78200  0.86890  0.39550  Biso   1.000  H
  C20      1.0000 0.81090  0.64730  0.80400  Biso   1.000  C
  C21      1.0000 0.90640  0.75610  0.85880  Biso   1.000  C
  H11      1.0000 0.99410  0.77960  0.85420  Biso   1.000  H
  C22      1.0000 0.57820  0.15700  0.82580  Biso   1.000  C
  H12      1.0000 0.50220  0.11040  0.76540  Biso   1.000  H
  C23      1.0000 0.67280  0.25760  0.82270  Biso   1.000  C
  H13      1.0000 0.67510  0.29220  0.76130  Biso   1.000  H
  C24      1.0000 0.34960  0.84630  0.76300  Biso   1.000  C
  H14      1.0000 0.40610  0.79770  0.78210  Biso   1.000  H
  O4       1.0000 0.75790  0.48400  0.67420  Biso   1.000  O
  C25      1.0000 0.22590  0.51160  0.92550  Biso   1.000  C
  H15      1.0000 0.22790  0.43310  0.91160  Biso   1.000  H
  H16      1.0000 0.31410  0.55750  0.98120  Biso   1.000  H
  H17      1.0000 0.21050  0.54670  0.85980  Biso   1.000  H
  C26      1.0000 0.68550  0.61220  0.81350  Biso   1.000  C
  H18      1.0000 0.62190  0.53840  0.77950  Biso   1.000  H
  C27      1.0000 0.59430  0.80500  0.59490  Biso   1.000  C
  H19      1.0000 0.69420  0.82320  0.61630  Biso   1.000  H
  H20      1.0000 0.54680  0.73650  0.54040  Biso   1.000  H
  H21      1.0000 0.57070  0.79000  0.65730  Biso   1.000  H
  C28      1.0000 0.91650  0.75610  0.54140  Biso   1.000  C
  H22      1.0000 0.97840  0.71620  0.53210  Biso   1.000  H
  H23      1.0000 0.82220  0.71740  0.49020  Biso   1.000  H
  H24      1.0000 0.91930  0.75480  0.61430  Biso   1.000  H
  N8       1.0000 0.24230  0.94490  0.32070  Biso   1.000  N
  O5       1.0000 0.40380  0.13010  0.02210  Biso   1.000  O
  O6       1.0000 0.18110  0.01760  0.97410  Biso   1.000  O
  N9       1.0000 0.80370  0.07030  0.33010  Biso   1.000  N
  N10      1.0000 0.65310  0.06950  0.16490  Biso   1.000  N
  N11      1.0000 0.23620  0.70240  0.07180  Biso   1.000  N
  N12      1.0000 0.12480  0.17180  0.08170  Biso   1.000  N
  C29      1.0000 0.03660  0.11720  0.47800  Biso   1.000  C
  C30      1.0000 0.28190  0.11070  0.01850  Biso   1.000  C
  C31      1.0000 0.25210  0.20530  0.07670  Biso   1.000  C
  C32      1.0000 0.74700  0.02310  0.22430  Biso   1.000  C
  H25      1.0000 0.77170  0.96430  0.19660  Biso   1.000  H
  N13      1.0000 0.08730  0.93860  0.15460  Biso   1.000  N
  N14      1.0000 0.38870  0.86640  0.06810  Biso   1.000  N
  C33      1.0000 0.14550  0.42580  0.26670  Biso   1.000  C
  C34      1.0000 0.22010  0.98010  0.22260  Biso   1.000  C
  H26      1.0000 0.29080  0.02850  0.20440  Biso   1.000  H
  C35      1.0000 0.90610  0.03560  0.41790  Biso   1.000  C
  C36      1.0000 0.00870  0.59090  0.07050  Biso   1.000  C
  H27      1.0000 0.01690  0.65370  0.11770  Biso   1.000  H
  C37      1.0000 0.11620  0.59680  0.03400  Biso   1.000  C
  C38      1.0000 0.27770  0.77890  0.01040  Biso   1.000  C
  H28      1.0000 0.23250  0.77070  0.93500  Biso   1.000  H
  C39      1.0000 0.88950  0.49260  0.03750  Biso   1.000  C
  C40      1.0000 0.37470  0.97560  0.41310  Biso   1.000  C
  C41      1.0000 0.74150  0.15500  0.33840  Biso   1.000  C
  H29      1.0000 0.75920  0.20310  0.40140  Biso   1.000  H
  C42      1.0000 0.45100  0.09160  0.45150  Biso   1.000  C
  C43      1.0000 0.11580  0.87140  0.31380  Biso   1.000  C
  H30      1.0000 0.09820  0.83090  0.36840  Biso   1.000  H
  C44      1.0000 0.58010  0.11510  0.54170  Biso   1.000  C
  H31      1.0000 0.63520  0.19260  0.57090  Biso   1.000  H
  O7       1.0000 0.02030  0.38970  0.25570  Biso   1.000  O
  C45      1.0000 0.02000  0.86870  0.21190  Biso   1.000  C
  H32      1.0000 0.92460  0.82640  0.18530  Biso   1.000  H
  C46      1.0000 0.34920  0.31350  0.12550  Biso   1.000  C
  H33      1.0000 0.43540  0.33660  0.11830  Biso   1.000  H
  C47      1.0000 0.13000  0.07890  0.56170  Biso   1.000  C
  H34      1.0000 0.21800  0.13110  0.60450  Biso   1.000  H
  C48      1.0000 0.18910  0.35270  0.19600  Biso   1.000  C
  C49      1.0000 0.09360  0.24390  0.14120  Biso   1.000  C
  H35      1.0000 0.00590  0.22040  0.14580  Biso   1.000  H
  C50      1.0000 0.42180  0.84300  0.17420  Biso   1.000  C
  H36      1.0000 0.49780  0.88960  0.23460  Biso   1.000  H
  C51      1.0000 0.32720  0.74240  0.17730  Biso   1.000  C
  H37      1.0000 0.32490  0.70780  0.23870  Biso   1.000  H
  C52      1.0000 0.65040  0.15370  0.23700  Biso   1.000  C
  H38      1.0000 0.59390  0.20230  0.21790  Biso   1.000  H
  O8       1.0000 0.24210  0.51600  0.32580  Biso   1.000  O
  C53      1.0000 0.77410  0.48840  0.07450  Biso   1.000  C
  H39      1.0000 0.77210  0.56690  0.08840  Biso   1.000  H
  H40      1.0000 0.68590  0.44250  0.01880  Biso   1.000  H
  H41      1.0000 0.78950  0.45330  0.14020  Biso   1.000  H
  C54      1.0000 0.31450  0.38780  0.18650  Biso   1.000  C
  H42      1.0000 0.37810  0.46160  0.22050  Biso   1.000  H
  C55      1.0000 0.40570  0.19500  0.40510  Biso   1.000  C
  H43      1.0000 0.30580  0.17680  0.38370  Biso   1.000  H
  H44      1.0000 0.45320  0.26350  0.45960  Biso   1.000  H
  H45      1.0000 0.42930  0.21000  0.34270  Biso   1.000  H
  C56      1.0000 0.08350  0.24390  0.45860  Biso   1.000  C
  H46      1.0000 0.02160  0.28380  0.46790  Biso   1.000  H
  H47      1.0000 0.17780  0.28260  0.50980  Biso   1.000  H
  H48      1.0000 0.08070  0.24520  0.38570  Biso   1.000  H
  Co1      1.0000 0.50000  0.00000  0.00000  Biso   1.000  Co
  Co2      1.0000 0.00000  0.00000  0.00000  Biso   1.000  Co
