data_image0
_cell_length_a       9.905
_cell_length_b       10.333
_cell_length_c       13.562
_cell_angle_alpha    82
_cell_angle_beta     86.62
_cell_angle_gamma    65.76

_symmetry_space_group_name_H-M    "P 1"
_symmetry_int_tables_number       1

loop_
  _symmetry_equiv_pos_as_xyz
  'x, y, z'

loop_
  _atom_site_label
  _atom_site_occupancy
  _atom_site_fract_x
  _atom_site_fract_y
  _atom_site_fract_z
  _atom_site_thermal_displace_type
  _atom_site_B_iso_or_equiv
  _atom_site_type_symbol
  Sm1      1.0000 0.16645  0.28325  0.81630  Biso   1.000  Sm
  Mo1      1.0000 0.75600  0.87660  0.75886  Biso   1.000  Mo
  Cs1      1.0000 0.64854  0.05038  0.38411  Biso   1.000  Cs
  O1       1.0000 0.14740  0.05240  0.81510  Biso   1.000  O
  H1       1.0000 0.10780  0.03940  0.75690  Biso   1.000  H
  N1       1.0000 0.42070  0.08510  0.82830  Biso   1.000  N
  N2       1.0000 0.59610  0.16050  0.59340  Biso   1.000  N
  N3       1.0000 0.75000  0.76410  0.54210  Biso   1.000  N
  N4       1.0000 0.06750  0.89090  0.66660  Biso   1.000  N
  N5       1.0000 0.82160  0.12660  0.84930  Biso   1.000  N
  N6       1.0000 0.01490  0.54610  0.78920  Biso   1.000  N
  N7       1.0000 0.20660  0.21920  0.99920  Biso   1.000  N
  N8       1.0000 0.55440  0.68520  0.79550  Biso   1.000  N
  C1       1.0000 0.53940  0.00910  0.80890  Biso   1.000  C
  C2       1.0000 0.65640  0.06200  0.64860  Biso   1.000  C
  C3       1.0000 0.75370  0.79980  0.61750  Biso   1.000  C
  C4       1.0000 0.95750  0.88530  0.69510  Biso   1.000  C
  C5       1.0000 0.79690  0.03990  0.81990  Biso   1.000  C
  C6       1.0000 0.92700  0.66160  0.77920  Biso   1.000  C
  C7       1.0000 0.21780  0.18630  0.08350  Biso   1.000  C
  C8       1.0000 0.62760  0.74860  0.78420  Biso   1.000  C
  C9       1.0000 0.19100  0.93640  0.89440  Biso   1.000  C
  H2       1.0000 0.28770  0.92080  0.92000  Biso   1.000  H
  H3       1.0000 0.19760  0.84940  0.86960  Biso   1.000  H
  H4       1.0000 0.11750  0.95980  0.94810  Biso   1.000  H
  Sm2      1.0000 0.83355  0.71675  0.18370  Biso   1.000  Sm
  Mo2      1.0000 0.24400  0.12340  0.24114  Biso   1.000  Mo
  Cs2      1.0000 0.35146  0.94962  0.61589  Biso   1.000  Cs
  O2       1.0000 0.85260  0.94760  0.18490  Biso   1.000  O
  H5       1.0000 0.89220  0.96060  0.24310  Biso   1.000  H
  N9       1.0000 0.57930  0.91490  0.17170  Biso   1.000  N
  N10      1.0000 0.40390  0.83950  0.40660  Biso   1.000  N
  N11      1.0000 0.25000  0.23590  0.45790  Biso   1.000  N
  N12      1.0000 0.93250  0.10910  0.33340  Biso   1.000  N
  N13      1.0000 0.17840  0.87340  0.15070  Biso   1.000  N
  N14      1.0000 0.98510  0.45390  0.21080  Biso   1.000  N
  N15      1.0000 0.79340  0.78080  0.00080  Biso   1.000  N
  N16      1.0000 0.44560  0.31480  0.20450  Biso   1.000  N
  C10      1.0000 0.46060  0.99090  0.19110  Biso   1.000  C
  C11      1.0000 0.34360  0.93800  0.35140  Biso   1.000  C
  C12      1.0000 0.24630  0.20020  0.38250  Biso   1.000  C
  C13      1.0000 0.04250  0.11470  0.30490  Biso   1.000  C
  C14      1.0000 0.20310  0.96010  0.18010  Biso   1.000  C
  C15      1.0000 0.07300  0.33840  0.22080  Biso   1.000  C
  C16      1.0000 0.78220  0.81370  0.91650  Biso   1.000  C
  C17      1.0000 0.37240  0.25140  0.21580  Biso   1.000  C
  C18      1.0000 0.80900  0.06360  0.10560  Biso   1.000  C
  H6       1.0000 0.71230  0.07920  0.08000  Biso   1.000  H
  H7       1.0000 0.80240  0.15060  0.13040  Biso   1.000  H
  H8       1.0000 0.88250  0.04020  0.05190  Biso   1.000  H
