data_image0
_cell_length_a       10.241
_cell_length_b       13.769
_cell_length_c       13.326
_cell_angle_alpha    90
_cell_angle_beta     90.768
_cell_angle_gamma    90

_symmetry_space_group_name_H-M    "P 1"
_symmetry_int_tables_number       1

loop_
  _symmetry_equiv_pos_as_xyz
  'x, y, z'

loop_
  _atom_site_label
  _atom_site_occupancy
  _atom_site_fract_x
  _atom_site_fract_y
  _atom_site_fract_z
  _atom_site_thermal_displace_type
  _atom_site_B_iso_or_equiv
  _atom_site_type_symbol
  Cd1      1.0000 0.14404  0.42412  0.06183  Biso   1.000  Cd
  O1       1.0000 0.62268  0.54692  0.92271  Biso   1.000  O
  O2       1.0000 0.71302  0.65649  0.82574  Biso   1.000  O
  O3       1.0000 0.01745  0.64862  0.85162  Biso   1.000  O
  O4       1.0000 0.43765  0.83245  0.57318  Biso   1.000  O
  O5       1.0000 0.12753  0.54545  0.94673  Biso   1.000  O
  O6       1.0000 0.23048  0.79380  0.55910  Biso   1.000  O
  C1       1.0000 0.34970  0.73074  0.69893  Biso   1.000  C
  C2       1.0000 0.24620  0.64335  0.83316  Biso   1.000  C
  C3       1.0000 0.48110  0.64542  0.82233  Biso   1.000  C
  C4       1.0000 0.12160  0.61041  0.88138  Biso   1.000  C
  C5       1.0000 0.23730  0.70098  0.74706  Biso   1.000  C
  H1       1.0000 0.15590  0.71940  0.72200  Biso   1.000  H
  C6       1.0000 0.61410  0.61455  0.85938  Biso   1.000  C
  C7       1.0000 0.36810  0.61487  0.86970  Biso   1.000  C
  H2       1.0000 0.37410  0.57520  0.92610  Biso   1.000  H
  C8       1.0000 0.47110  0.70474  0.73775  Biso   1.000  C
  H3       1.0000 0.54640  0.72710  0.70710  Biso   1.000  H
  C9       1.0000 0.33780  0.79026  0.60425  Biso   1.000  C
  Cd2      1.0000 0.35597  0.92412  0.43817  Biso   1.000  Cd
  O7       1.0000 0.87732  0.04692  0.57729  Biso   1.000  O
  O8       1.0000 0.78698  0.15649  0.67426  Biso   1.000  O
  O9       1.0000 0.48255  0.14862  0.64838  Biso   1.000  O
  O10      1.0000 0.06235  0.33245  0.92682  Biso   1.000  O
  O11      1.0000 0.37247  0.04545  0.55327  Biso   1.000  O
  O12      1.0000 0.26952  0.29380  0.94090  Biso   1.000  O
  C10      1.0000 0.15030  0.23074  0.80107  Biso   1.000  C
  C11      1.0000 0.25380  0.14335  0.66684  Biso   1.000  C
  C12      1.0000 0.01890  0.14542  0.67767  Biso   1.000  C
  C13      1.0000 0.37840  0.11041  0.61862  Biso   1.000  C
  C14      1.0000 0.26270  0.20098  0.75294  Biso   1.000  C
  H4       1.0000 0.34410  0.21940  0.77800  Biso   1.000  H
  C15      1.0000 0.88590  0.11455  0.64062  Biso   1.000  C
  C16      1.0000 0.13190  0.11487  0.63030  Biso   1.000  C
  H5       1.0000 0.12590  0.07520  0.57390  Biso   1.000  H
  C17      1.0000 0.02890  0.20474  0.76225  Biso   1.000  C
  H6       1.0000 0.95360  0.22710  0.79290  Biso   1.000  H
  C18      1.0000 0.16220  0.29026  0.89575  Biso   1.000  C
  Cd3      1.0000 0.85597  0.57588  0.93817  Biso   1.000  Cd
  O13      1.0000 0.37732  0.45308  0.07729  Biso   1.000  O
  O14      1.0000 0.28698  0.34351  0.17426  Biso   1.000  O
  O15      1.0000 0.98255  0.35138  0.14838  Biso   1.000  O
  O16      1.0000 0.56235  0.16755  0.42682  Biso   1.000  O
  O17      1.0000 0.87247  0.45455  0.05327  Biso   1.000  O
  O18      1.0000 0.76952  0.20620  0.44090  Biso   1.000  O
  C19      1.0000 0.65030  0.26926  0.30107  Biso   1.000  C
  C20      1.0000 0.75380  0.35665  0.16684  Biso   1.000  C
  C21      1.0000 0.51890  0.35458  0.17767  Biso   1.000  C
  C22      1.0000 0.87840  0.38959  0.11862  Biso   1.000  C
  C23      1.0000 0.76270  0.29902  0.25294  Biso   1.000  C
  H7       1.0000 0.84410  0.28060  0.27800  Biso   1.000  H
  C24      1.0000 0.38590  0.38545  0.14062  Biso   1.000  C
  C25      1.0000 0.63190  0.38513  0.13030  Biso   1.000  C
  H8       1.0000 0.62590  0.42480  0.07390  Biso   1.000  H
  C26      1.0000 0.52890  0.29526  0.26225  Biso   1.000  C
  H9       1.0000 0.45360  0.27290  0.29290  Biso   1.000  H
  C27      1.0000 0.66220  0.20974  0.39575  Biso   1.000  C
  Cd4      1.0000 0.64404  0.07588  0.56183  Biso   1.000  Cd
  O19      1.0000 0.12268  0.95308  0.42271  Biso   1.000  O
  O20      1.0000 0.21302  0.84351  0.32574  Biso   1.000  O
  O21      1.0000 0.51745  0.85138  0.35162  Biso   1.000  O
  O22      1.0000 0.93765  0.66755  0.07318  Biso   1.000  O
  O23      1.0000 0.62753  0.95455  0.44673  Biso   1.000  O
  O24      1.0000 0.73048  0.70620  0.05910  Biso   1.000  O
  C28      1.0000 0.84970  0.76926  0.19893  Biso   1.000  C
  C29      1.0000 0.74620  0.85665  0.33316  Biso   1.000  C
  C30      1.0000 0.98110  0.85458  0.32233  Biso   1.000  C
  C31      1.0000 0.62160  0.88959  0.38138  Biso   1.000  C
  C32      1.0000 0.73730  0.79902  0.24706  Biso   1.000  C
  H10      1.0000 0.65590  0.78060  0.22200  Biso   1.000  H
  C33      1.0000 0.11410  0.88545  0.35938  Biso   1.000  C
  C34      1.0000 0.86810  0.88513  0.36970  Biso   1.000  C
  H11      1.0000 0.87410  0.92480  0.42610  Biso   1.000  H
  C35      1.0000 0.97110  0.79526  0.23775  Biso   1.000  C
  H12      1.0000 0.04640  0.77290  0.20710  Biso   1.000  H
  C36      1.0000 0.83780  0.70974  0.10425  Biso   1.000  C
