data_FUNCAT_clean
_audit_creation_date              2014-07-02
_audit_creation_method            'Materials Studio'
_symmetry_space_group_name_H-M    'P1'
_symmetry_Int_Tables_number       1
_symmetry_cell_setting            triclinic
loop_
_symmetry_equiv_pos_as_xyz
  x,y,z
_cell_length_a                    11.5857
_cell_length_b                    15.6740
_cell_length_c                    18.1180
_cell_angle_alpha                 90.0000
_cell_angle_beta                  90.0000
_cell_angle_gamma                 90.0000
loop_
_atom_site_label
_atom_site_type_symbol
_atom_site_fract_x
_atom_site_fract_y
_atom_site_fract_z
_atom_site_U_iso_or_equiv
_atom_site_adp_type
_atom_site_occupancy
Zn1    Zn    0.25074   0.50719   0.77415   0.01267  Uiso   1.00
Zn2    Zn    0.25777   0.50573   0.93552   0.01267  Uiso   1.00
H1     H     0.08980   0.47730   0.18240   0.01267  Uiso   1.00
H2     H     0.42780   0.50970   0.18430   0.01267  Uiso   1.00
H3     H     0.95270   0.01020   0.85800   0.01267  Uiso   1.00
H4     H     0.56190   0.00400   0.82380   0.01267  Uiso   1.00
H5     H     0.41750   0.76150   0.93900   0.01267  Uiso   1.00
H6     H     0.07410   0.26130   0.95050   0.01267  Uiso   1.00
H7     H     0.54000   0.87550   0.93240   0.01267  Uiso   1.00
H8     H     0.96340   0.14070   0.95150   0.01267  Uiso   1.00
H9     H     0.57560   0.66960   0.75990   0.01267  Uiso   1.00
H10    H     0.95250   0.33310   0.75910   0.01267  Uiso   1.00
H11    H     0.70410   0.77950   0.76230   0.01267  Uiso   1.00
H12    H     0.83740   0.21440   0.75310   0.01267  Uiso   1.00
H13    H     0.09260   0.49140   0.05840   0.01267  Uiso   1.00
H14    H     0.42500   0.52210   0.06080   0.01267  Uiso   1.00
H15    H     0.08620   0.75300   0.76470   0.01267  Uiso   1.00
H16    H     0.43020   0.26620   0.75030   0.01267  Uiso   1.00
H17    H     0.92120   0.66870   0.94370   0.01267  Uiso   1.00
H18    H     0.56840   0.33140   0.94690   0.01267  Uiso   1.00
H19    H     0.97520   0.87670   0.76190   0.01267  Uiso   1.00
H20    H     0.55480   0.15380   0.73740   0.01267  Uiso   1.00
H21    H     0.81090   0.79110   0.94140   0.01267  Uiso   1.00
H22    H     0.68550   0.21150   0.93560   0.01267  Uiso   1.00
H23    H     0.08650   0.47930   0.52220   0.01267  Uiso   1.00
H24    H     0.42240   0.51130   0.51990   0.01267  Uiso   1.00
H25    H     0.08860   0.48760   0.64740   0.01267  Uiso   1.00
H26    H     0.42220   0.51920   0.64520   0.01267  Uiso   1.00
C1     C     0.47820   0.70238   0.84665   0.01267  Uiso   1.00
C2     C     0.03059   0.31465   0.85554   0.01267  Uiso   1.00
C3     C     0.40060   0.62680   0.84830   0.01267  Uiso   1.00
C4     C     0.09973   0.39363   0.85096   0.01267  Uiso   1.00
C5     C     0.62680   0.85146   0.83959   0.01267  Uiso   1.00
C6     C     0.88680   0.16453   0.85198   0.01267  Uiso   1.00
C7     C     0.89000   0.84930   0.85762   0.01267  Uiso   1.00
C8     C     0.62350   0.16642   0.83964   0.01267  Uiso   1.00
C9     C     0.16050   0.48764   0.15973   0.01267  Uiso   1.00
C10    C     0.35660   0.50625   0.16084   0.01267  Uiso   1.00
C11    C     0.81560   0.92590   0.85500   0.01267  Uiso   1.00
C12    C     0.68920   0.08560   0.83690   0.01267  Uiso   1.00
C13    C     0.10590   0.62880   0.85960   0.01267  Uiso   1.00
C14    C     0.40650   0.38320   0.85550   0.01267  Uiso   1.00
C15    C     0.02710   0.70380   0.86007   0.01267  Uiso   1.00
C16    C     0.48690   0.31190   0.84747   0.01267  Uiso   1.00
C17    C     0.87290   0.00820   0.85280   0.01267  Uiso   1.00
C18    C     0.64090   0.00620   0.83270   0.01267  Uiso   1.00
C19    C     0.69390   0.93270   0.83990   0.01267  Uiso   1.00
C20    C     0.80820   0.08990   0.84230   0.01267  Uiso   1.00
C21    C     0.47050   0.76560   0.90060   0.01267  Uiso   1.00
C22    C     0.02617   0.25244   0.91003   0.01267  Uiso   1.00
C23    C     0.54500   0.83510   0.89500   0.01267  Uiso   1.00
C24    C     0.95960   0.17870   0.91210   0.01267  Uiso   1.00
C25    C     0.56630   0.71180   0.79550   0.01267  Uiso   1.00
C26    C     0.95580   0.29483   0.79830   0.01267  Uiso   1.00
C27    C     0.64150   0.78070   0.79450   0.01267  Uiso   1.00
C28    C     0.88490   0.22306   0.79380   0.01267  Uiso   1.00
C29    C     0.16250   0.49489   0.08348   0.01267  Uiso   1.00
C30    C     0.35510   0.51280   0.08480   0.01267  Uiso   1.00
C31    C     0.25900   0.49491   0.20510   0.01267  Uiso   1.00
C32    C     0.03440   0.76330   0.80290   0.01267  Uiso   1.00
C33    C     0.48360   0.25565   0.78754   0.01267  Uiso   1.00
C34    C     0.93690   0.71170   0.90980   0.01267  Uiso   1.00
C35    C     0.56350   0.29570   0.90600   0.01267  Uiso   1.00
C36    C     0.25873   0.48766   0.28633   0.01267  Uiso   1.00
C37    C     0.96790   0.83740   0.80010   0.01267  Uiso   1.00
C38    C     0.55390   0.18630   0.78040   0.01267  Uiso   1.00
C39    C     0.87080   0.78500   0.90760   0.01267  Uiso   1.00
C40    C     0.63160   0.22300   0.89884   0.01267  Uiso   1.00
C41    C     0.25486   0.49058   0.42146   0.01267  Uiso   1.00
C42    C     0.25391   0.49520   0.50273   0.01267  Uiso   1.00
C43    C     0.15690   0.48788   0.54571   0.01267  Uiso   1.00
C44    C     0.35220   0.50647   0.54447   0.01267  Uiso   1.00
C45    C     0.15770   0.49252   0.62163   0.01267  Uiso   1.00
C46    C     0.35280   0.51102   0.62040   0.01267  Uiso   1.00
N1     N     0.25926   0.50664   0.04310   0.01267  Uiso   1.00
N2     N     0.35980   0.49464   0.31812   0.01267  Uiso   1.00
N3     N     0.15930   0.47560   0.32108   0.01267  Uiso   1.00
N4     N     0.35630   0.49806   0.38899   0.01267  Uiso   1.00
N5     N     0.15020   0.47881   0.39230   0.01267  Uiso   1.00
N6     N     0.25537   0.50392   0.65879   0.01267  Uiso   1.00
O1     O     0.39550   0.58550   0.91840   0.01267  Uiso   1.00
O2     O     0.13900   0.42180   0.92350   0.01267  Uiso   1.00
O3     O     0.14600   0.60345   0.91613   0.01267  Uiso   1.00
O4     O     0.38210   0.41358   0.91116   0.01267  Uiso   1.00
O5     O     0.39470   0.58660   0.78350   0.01267  Uiso   1.00
O6     O     0.11490   0.42520   0.78990   0.01267  Uiso   1.00
O7     O     0.14610   0.60930   0.80213   0.01267  Uiso   1.00
O8     O     0.35560   0.40450   0.79379   0.01267  Uiso   1.00
Zn3    Zn    0.75074   0.49281   0.22585   0.01267  Uiso   1.00
Zn4    Zn    0.75777   0.49427   0.06448   0.01267  Uiso   1.00
H27    H     0.58980   0.52270   0.81760   0.01267  Uiso   1.00
H28    H     0.92780   0.49030   0.81570   0.01267  Uiso   1.00
H29    H     0.45270   0.98980   0.14200   0.01267  Uiso   1.00
H30    H     0.06190   0.99600   0.17620   0.01267  Uiso   1.00
H31    H     0.91750   0.23850   0.06100   0.01267  Uiso   1.00
H32    H     0.57410   0.73870   0.04950   0.01267  Uiso   1.00
H33    H     0.04000   0.12450   0.06760   0.01267  Uiso   1.00
H34    H     0.46340   0.85930   0.04850   0.01267  Uiso   1.00
H35    H     0.07560   0.33040   0.24010   0.01267  Uiso   1.00
H36    H     0.45250   0.66690   0.24090   0.01267  Uiso   1.00
H37    H     0.20410   0.22050   0.23770   0.01267  Uiso   1.00
H38    H     0.33740   0.78560   0.24690   0.01267  Uiso   1.00
H39    H     0.59260   0.50860   0.94160   0.01267  Uiso   1.00
H40    H     0.92500   0.47790   0.93920   0.01267  Uiso   1.00
H41    H     0.58620   0.24700   0.23530   0.01267  Uiso   1.00
H42    H     0.93020   0.73380   0.24970   0.01267  Uiso   1.00
H43    H     0.42120   0.33130   0.05630   0.01267  Uiso   1.00
H44    H     0.06840   0.66860   0.05310   0.01267  Uiso   1.00
H45    H     0.47520   0.12330   0.23810   0.01267  Uiso   1.00
H46    H     0.05480   0.84620   0.26260   0.01267  Uiso   1.00
H47    H     0.31090   0.20890   0.05860   0.01267  Uiso   1.00
H48    H     0.18550   0.78850   0.06440   0.01267  Uiso   1.00
H49    H     0.58650   0.52070   0.47780   0.01267  Uiso   1.00
H50    H     0.92240   0.48870   0.48010   0.01267  Uiso   1.00
H51    H     0.58860   0.51240   0.35260   0.01267  Uiso   1.00
H52    H     0.92220   0.48080   0.35480   0.01267  Uiso   1.00
C47    C     0.97820   0.29762   0.15335   0.01267  Uiso   1.00
C48    C     0.53059   0.68535   0.14446   0.01267  Uiso   1.00
C49    C     0.90060   0.37320   0.15170   0.01267  Uiso   1.00
C50    C     0.59973   0.60637   0.14904   0.01267  Uiso   1.00
C51    C     0.12680   0.14854   0.16041   0.01267  Uiso   1.00
C52    C     0.38680   0.83547   0.14802   0.01267  Uiso   1.00
C53    C     0.39000   0.15070   0.14238   0.01267  Uiso   1.00
C54    C     0.12350   0.83358   0.16036   0.01267  Uiso   1.00
C55    C     0.66050   0.51236   0.84027   0.01267  Uiso   1.00
C56    C     0.85660   0.49375   0.83916   0.01267  Uiso   1.00
C57    C     0.31560   0.07410   0.14500   0.01267  Uiso   1.00
C58    C     0.18920   0.91440   0.16310   0.01267  Uiso   1.00
C59    C     0.60590   0.37120   0.14040   0.01267  Uiso   1.00
C60    C     0.90650   0.61680   0.14450   0.01267  Uiso   1.00
C61    C     0.52710   0.29620   0.13993   0.01267  Uiso   1.00
C62    C     0.98690   0.68810   0.15253   0.01267  Uiso   1.00
C63    C     0.37290   0.99180   0.14720   0.01267  Uiso   1.00
C64    C     0.14090   0.99380   0.16730   0.01267  Uiso   1.00
C65    C     0.19390   0.06730   0.16010   0.01267  Uiso   1.00
C66    C     0.30820   0.91010   0.15770   0.01267  Uiso   1.00
C67    C     0.97050   0.23440   0.09940   0.01267  Uiso   1.00
C68    C     0.52617   0.74756   0.08997   0.01267  Uiso   1.00
C69    C     0.04500   0.16490   0.10500   0.01267  Uiso   1.00
C70    C     0.45960   0.82130   0.08790   0.01267  Uiso   1.00
C71    C     0.06630   0.28820   0.20450   0.01267  Uiso   1.00
C72    C     0.45580   0.70517   0.20170   0.01267  Uiso   1.00
C73    C     0.14150   0.21930   0.20550   0.01267  Uiso   1.00
C74    C     0.38490   0.77694   0.20620   0.01267  Uiso   1.00
C75    C     0.66250   0.50511   0.91652   0.01267  Uiso   1.00
C76    C     0.85510   0.48720   0.91520   0.01267  Uiso   1.00
C77    C     0.75900   0.50509   0.79490   0.01267  Uiso   1.00
C78    C     0.53440   0.23670   0.19710   0.01267  Uiso   1.00
C79    C     0.98360   0.74435   0.21246   0.01267  Uiso   1.00
C80    C     0.43690   0.28830   0.09020   0.01267  Uiso   1.00
C81    C     0.06350   0.70430   0.09400   0.01267  Uiso   1.00
C82    C     0.75873   0.51234   0.71367   0.01267  Uiso   1.00
C83    C     0.46790   0.16260   0.19990   0.01267  Uiso   1.00
C84    C     0.05390   0.81370   0.21960   0.01267  Uiso   1.00
C85    C     0.37080   0.21500   0.09240   0.01267  Uiso   1.00
C86    C     0.13160   0.77700   0.10116   0.01267  Uiso   1.00
C87    C     0.75486   0.50942   0.57854   0.01267  Uiso   1.00
C88    C     0.75391   0.50480   0.49727   0.01267  Uiso   1.00
C89    C     0.65690   0.51212   0.45429   0.01267  Uiso   1.00
C90    C     0.85220   0.49353   0.45553   0.01267  Uiso   1.00
C91    C     0.65770   0.50748   0.37837   0.01267  Uiso   1.00
C92    C     0.85280   0.48898   0.37960   0.01267  Uiso   1.00
N7     N     0.75926   0.49336   0.95690   0.01267  Uiso   1.00
N8     N     0.85980   0.50536   0.68188   0.01267  Uiso   1.00
N9     N     0.65930   0.52440   0.67892   0.01267  Uiso   1.00
N10    N     0.85630   0.50194   0.61101   0.01267  Uiso   1.00
N11    N     0.65020   0.52119   0.60770   0.01267  Uiso   1.00
N12    N     0.75537   0.49608   0.34121   0.01267  Uiso   1.00
O9     O     0.89550   0.41450   0.08160   0.01267  Uiso   1.00
O10    O     0.63900   0.57820   0.07650   0.01267  Uiso   1.00
O11    O     0.64600   0.39655   0.08387   0.01267  Uiso   1.00
O12    O     0.88210   0.58642   0.08884   0.01267  Uiso   1.00
O13    O     0.89470   0.41340   0.21650   0.01267  Uiso   1.00
O14    O     0.61490   0.57480   0.21010   0.01267  Uiso   1.00
O15    O     0.64610   0.39070   0.19787   0.01267  Uiso   1.00
O16    O     0.85560   0.59550   0.20621   0.01267  Uiso   1.00
