data_image0
_cell_length_a       28.6457
_cell_length_b       12.544
_cell_length_c       21.6016
_cell_angle_alpha    90
_cell_angle_beta     103.195
_cell_angle_gamma    90

_symmetry_space_group_name_H-M    "P 1"
_symmetry_int_tables_number       1

loop_
  _symmetry_equiv_pos_as_xyz
  'x, y, z'

loop_
  _atom_site_label
  _atom_site_occupancy
  _atom_site_fract_x
  _atom_site_fract_y
  _atom_site_fract_z
  _atom_site_thermal_displace_type
  _atom_site_B_iso_or_equiv
  _atom_site_type_symbol
  C1       1.0000 0.17737  0.44810  0.32255  Biso   1.000  C
  H1       1.0000 0.20450  0.42170  0.35050  Biso   1.000  H
  C2       1.0000 0.12864  0.55580  0.26967  Biso   1.000  C
  H2       1.0000 0.11350  0.61760  0.25160  Biso   1.000  H
  C3       1.0000 0.84515  0.87270  0.14047  Biso   1.000  C
  H3       1.0000 0.83260  0.91660  0.16730  Biso   1.000  H
  C4       1.0000 0.86076  0.74260  0.08852  Biso   1.000  C
  H4       1.0000 0.86050  0.67380  0.07230  Biso   1.000  H
  C5       1.0000 0.80284  0.66970  0.82590  Biso   1.000  C
  H5       1.0000 0.80020  0.69500  0.78480  Biso   1.000  H
  C6       1.0000 0.78788  0.64330  0.91382  Biso   1.000  C
  H6       1.0000 0.77360  0.64290  0.94840  Biso   1.000  H
  C7       1.0000 0.06892  0.42300  0.21416  Biso   1.000  C
  C8       1.0000 0.03212  0.49350  0.19156  Biso   1.000  C
  H7       1.0000 0.03480  0.56400  0.20520  Biso   1.000  H
  C9       1.0000 0.99151  0.46010  0.14887  Biso   1.000  C
  H8       1.0000 0.96720  0.50860  0.13310  Biso   1.000  H
  C10      1.0000 0.98646  0.35380  0.12889  Biso   1.000  C
  C11      1.0000 0.02392  0.28410  0.15175  Biso   1.000  C
  H9       1.0000 0.02130  0.21330  0.13860  Biso   1.000  H
  C12      1.0000 0.06522  0.31820  0.19393  Biso   1.000  C
  H10      1.0000 0.09030  0.27080  0.20850  Biso   1.000  H
  C13      1.0000 0.89490  0.00780  0.10235  Biso   1.000  C
  C14      1.0000 0.90703  0.07080  0.15569  Biso   1.000  C
  H11      1.0000 0.90420  0.04470  0.19500  Biso   1.000  H
  C15      1.0000 0.92350  0.17340  0.15044  Biso   1.000  C
  H12      1.0000 0.93160  0.21660  0.18630  Biso   1.000  H
  C16      1.0000 0.92784  0.21160  0.09247  Biso   1.000  C
  C17      1.0000 0.91533  0.14800  0.03897  Biso   1.000  C
  H13      1.0000 0.91840  0.17390  0.99980  Biso   1.000  H
  C18      1.0000 0.89834  0.04610  0.04368  Biso   1.000  C
  H14      1.0000 0.88930  0.00360  0.00760  Biso   1.000  H
  C19      1.0000 0.91498  0.38720  0.04284  Biso   1.000  C
  C20      1.0000 0.86701  0.39600  0.04140  Biso   1.000  C
  H15      1.0000 0.85400  0.35680  0.06990  Biso   1.000  H
  C21      1.0000 0.83770  0.46260  0.99813  Biso   1.000  C
  H16      1.0000 0.80520  0.46790  0.99740  Biso   1.000  H
  C22      1.0000 0.85702  0.52040  0.95648  Biso   1.000  C
  C23      1.0000 0.90468  0.51300  0.95740  Biso   1.000  C
  H17      1.0000 0.91750  0.55280  0.92890  Biso   1.000  H
  C24      1.0000 0.93374  0.44700  0.00020  Biso   1.000  C
  H18      1.0000 0.96620  0.44230  0.00070  Biso   1.000  H
  C25      1.0000 0.22478  0.69870  0.22225  Biso   1.000  C
  C26      1.0000 0.23224  0.71320  0.15632  Biso   1.000  C
  C27      1.0000 0.20353  0.78080  0.11428  Biso   1.000  C
  H19      1.0000 0.17880  0.81670  0.12670  Biso   1.000  H
  C28      1.0000 0.21074  0.79650  0.05360  Biso   1.000  C
  H20      1.0000 0.19110  0.84380  0.02630  Biso   1.000  H
  C29      1.0000 0.24668  0.74300  0.03296  Biso   1.000  C
  C30      1.0000 0.27608  0.67730  0.07654  Biso   1.000  C
  H21      1.0000 0.30150  0.64260  0.06490  Biso   1.000  H
  C31      1.0000 0.26868  0.66210  0.13678  Biso   1.000  C
  H22      1.0000 0.28880  0.61640  0.16470  Biso   1.000  H
  Co1      1.0000 0.21807  0.68328  0.33777  Biso   1.000  Co
  N1       1.0000 0.17036  0.55280  0.31125  Biso   1.000  N
  N2       1.0000 0.11154  0.45772  0.25753  Biso   1.000  N
  N3       1.0000 0.14329  0.38600  0.29150  Biso   1.000  N
  N4       1.0000 0.83452  0.77090  0.12997  Biso   1.000  N
  N5       1.0000 0.87632  0.90330  0.10716  Biso   1.000  N
  N6       1.0000 0.88690  0.81970  0.07256  Biso   1.000  N
  N7       1.0000 0.77212  0.69830  0.86134  Biso   1.000  N
  N8       1.0000 0.83688  0.60380  0.85308  Biso   1.000  N
  N9       1.0000 0.82701  0.58820  0.91089  Biso   1.000  N
  N10      1.0000 0.94472  0.31760  0.08662  Biso   1.000  N
  O1       1.0000 0.24990  0.63271  0.25978  Biso   1.000  O
  O2       1.0000 0.19471  0.75593  0.24154  Biso   1.000  O
  C32      1.0000 0.82263  0.44810  0.17745  Biso   1.000  C
  H23      1.0000 0.79550  0.42170  0.14950  Biso   1.000  H
  C33      1.0000 0.87136  0.55580  0.23033  Biso   1.000  C
  H24      1.0000 0.88650  0.61760  0.24840  Biso   1.000  H
  C34      1.0000 0.15485  0.87270  0.35953  Biso   1.000  C
  H25      1.0000 0.16740  0.91660  0.33270  Biso   1.000  H
  C35      1.0000 0.13924  0.74260  0.41148  Biso   1.000  C
  H26      1.0000 0.13950  0.67380  0.42770  Biso   1.000  H
  C36      1.0000 0.19716  0.66970  0.67410  Biso   1.000  C
  H27      1.0000 0.19980  0.69500  0.71520  Biso   1.000  H
  C37      1.0000 0.21212  0.64330  0.58618  Biso   1.000  C
  H28      1.0000 0.22640  0.64290  0.55160  Biso   1.000  H
  C38      1.0000 0.93108  0.42300  0.28584  Biso   1.000  C
  C39      1.0000 0.96788  0.49350  0.30844  Biso   1.000  C
  H29      1.0000 0.96520  0.56400  0.29480  Biso   1.000  H
  C40      1.0000 0.00849  0.46010  0.35113  Biso   1.000  C
  H30      1.0000 0.03280  0.50860  0.36690  Biso   1.000  H
  C41      1.0000 0.01354  0.35380  0.37111  Biso   1.000  C
  C42      1.0000 0.97608  0.28410  0.34825  Biso   1.000  C
  H31      1.0000 0.97870  0.21330  0.36140  Biso   1.000  H
  C43      1.0000 0.93478  0.31820  0.30607  Biso   1.000  C
  H32      1.0000 0.90970  0.27080  0.29150  Biso   1.000  H
  C44      1.0000 0.10510  0.00780  0.39765  Biso   1.000  C
  C45      1.0000 0.09297  0.07080  0.34431  Biso   1.000  C
  H33      1.0000 0.09580  0.04470  0.30500  Biso   1.000  H
  C46      1.0000 0.07650  0.17340  0.34956  Biso   1.000  C
  H34      1.0000 0.06840  0.21660  0.31370  Biso   1.000  H
  C47      1.0000 0.07216  0.21160  0.40753  Biso   1.000  C
  C48      1.0000 0.08467  0.14800  0.46103  Biso   1.000  C
  H35      1.0000 0.08160  0.17390  0.50020  Biso   1.000  H
  C49      1.0000 0.10166  0.04610  0.45632  Biso   1.000  C
  H36      1.0000 0.11070  0.00360  0.49240  Biso   1.000  H
  C50      1.0000 0.08502  0.38720  0.45716  Biso   1.000  C
  C51      1.0000 0.13299  0.39600  0.45860  Biso   1.000  C
  H37      1.0000 0.14600  0.35680  0.43010  Biso   1.000  H
  C52      1.0000 0.16230  0.46260  0.50187  Biso   1.000  C
  H38      1.0000 0.19480  0.46790  0.50260  Biso   1.000  H
  C53      1.0000 0.14298  0.52040  0.54352  Biso   1.000  C
  C54      1.0000 0.09532  0.51300  0.54260  Biso   1.000  C
  H39      1.0000 0.08250  0.55280  0.57110  Biso   1.000  H
  C55      1.0000 0.06626  0.44700  0.49980  Biso   1.000  C
  H40      1.0000 0.03380  0.44230  0.49930  Biso   1.000  H
  C56      1.0000 0.77522  0.69870  0.27775  Biso   1.000  C
  C57      1.0000 0.76776  0.71320  0.34368  Biso   1.000  C
  C58      1.0000 0.79647  0.78080  0.38572  Biso   1.000  C
  H41      1.0000 0.82120  0.81670  0.37330  Biso   1.000  H
  C59      1.0000 0.78926  0.79650  0.44640  Biso   1.000  C
  H42      1.0000 0.80890  0.84380  0.47370  Biso   1.000  H
  C60      1.0000 0.75332  0.74300  0.46704  Biso   1.000  C
  C61      1.0000 0.72392  0.67730  0.42346  Biso   1.000  C
  H43      1.0000 0.69850  0.64260  0.43510  Biso   1.000  H
  C62      1.0000 0.73132  0.66210  0.36322  Biso   1.000  C
  H44      1.0000 0.71120  0.61640  0.33530  Biso   1.000  H
  Co2      1.0000 0.78193  0.68328  0.16223  Biso   1.000  Co
  N11      1.0000 0.82964  0.55280  0.18875  Biso   1.000  N
  N12      1.0000 0.88846  0.45772  0.24247  Biso   1.000  N
  N13      1.0000 0.85671  0.38600  0.20850  Biso   1.000  N
  N14      1.0000 0.16548  0.77090  0.37003  Biso   1.000  N
  N15      1.0000 0.12368  0.90330  0.39284  Biso   1.000  N
  N16      1.0000 0.11310  0.81970  0.42744  Biso   1.000  N
  N17      1.0000 0.22788  0.69830  0.63866  Biso   1.000  N
  N18      1.0000 0.16312  0.60380  0.64692  Biso   1.000  N
  N19      1.0000 0.17299  0.58820  0.58911  Biso   1.000  N
  N20      1.0000 0.05528  0.31760  0.41338  Biso   1.000  N
  O3       1.0000 0.75010  0.63271  0.24022  Biso   1.000  O
  O4       1.0000 0.80529  0.75593  0.25846  Biso   1.000  O
  C63      1.0000 0.32263  0.05190  0.67745  Biso   1.000  C
  H45      1.0000 0.29550  0.07830  0.64950  Biso   1.000  H
  C64      1.0000 0.37136  0.94420  0.73033  Biso   1.000  C
  H46      1.0000 0.38650  0.88240  0.74840  Biso   1.000  H
  C65      1.0000 0.65485  0.62730  0.85953  Biso   1.000  C
  H47      1.0000 0.66740  0.58340  0.83270  Biso   1.000  H
  C66      1.0000 0.63924  0.75740  0.91148  Biso   1.000  C
  H48      1.0000 0.63950  0.82620  0.92770  Biso   1.000  H
  C67      1.0000 0.69716  0.83030  0.17410  Biso   1.000  C
  H49      1.0000 0.69980  0.80500  0.21520  Biso   1.000  H
  C68      1.0000 0.71212  0.85670  0.08618  Biso   1.000  C
  H50      1.0000 0.72640  0.85710  0.05160  Biso   1.000  H
  C69      1.0000 0.43108  0.07700  0.78584  Biso   1.000  C
  C70      1.0000 0.46788  0.00650  0.80844  Biso   1.000  C
  H51      1.0000 0.46520  0.93600  0.79480  Biso   1.000  H
  C71      1.0000 0.50849  0.03990  0.85113  Biso   1.000  C
  H52      1.0000 0.53280  0.99140  0.86690  Biso   1.000  H
  C72      1.0000 0.51354  0.14620  0.87111  Biso   1.000  C
  C73      1.0000 0.47608  0.21590  0.84825  Biso   1.000  C
  H53      1.0000 0.47870  0.28670  0.86140  Biso   1.000  H
  C74      1.0000 0.43478  0.18180  0.80607  Biso   1.000  C
  H54      1.0000 0.40970  0.22920  0.79150  Biso   1.000  H
  C75      1.0000 0.60510  0.49220  0.89765  Biso   1.000  C
  C76      1.0000 0.59297  0.42920  0.84431  Biso   1.000  C
  H55      1.0000 0.59580  0.45530  0.80500  Biso   1.000  H
  C77      1.0000 0.57650  0.32660  0.84956  Biso   1.000  C
  H56      1.0000 0.56840  0.28340  0.81370  Biso   1.000  H
  C78      1.0000 0.57216  0.28840  0.90753  Biso   1.000  C
  C79      1.0000 0.58467  0.35200  0.96103  Biso   1.000  C
  H57      1.0000 0.58160  0.32610  0.00020  Biso   1.000  H
  C80      1.0000 0.60166  0.45390  0.95632  Biso   1.000  C
  H58      1.0000 0.61070  0.49640  0.99240  Biso   1.000  H
  C81      1.0000 0.58502  0.11280  0.95716  Biso   1.000  C
  C82      1.0000 0.63299  0.10400  0.95860  Biso   1.000  C
  H59      1.0000 0.64600  0.14320  0.93010  Biso   1.000  H
  C83      1.0000 0.66230  0.03740  0.00187  Biso   1.000  C
  H60      1.0000 0.69480  0.03210  0.00260  Biso   1.000  H
  C84      1.0000 0.64298  0.97960  0.04352  Biso   1.000  C
  C85      1.0000 0.59532  0.98700  0.04260  Biso   1.000  C
  H61      1.0000 0.58250  0.94720  0.07110  Biso   1.000  H
  C86      1.0000 0.56626  0.05300  0.99980  Biso   1.000  C
  H62      1.0000 0.53380  0.05770  0.99930  Biso   1.000  H
  C87      1.0000 0.27522  0.80130  0.77775  Biso   1.000  C
  C88      1.0000 0.26776  0.78680  0.84368  Biso   1.000  C
  C89      1.0000 0.29647  0.71920  0.88572  Biso   1.000  C
  H63      1.0000 0.32120  0.68330  0.87330  Biso   1.000  H
  C90      1.0000 0.28926  0.70350  0.94640  Biso   1.000  C
  H64      1.0000 0.30890  0.65620  0.97370  Biso   1.000  H
  C91      1.0000 0.25332  0.75700  0.96704  Biso   1.000  C
  C92      1.0000 0.22392  0.82270  0.92346  Biso   1.000  C
  H65      1.0000 0.19850  0.85740  0.93510  Biso   1.000  H
  C93      1.0000 0.23132  0.83790  0.86322  Biso   1.000  C
  H66      1.0000 0.21120  0.88360  0.83530  Biso   1.000  H
  Co3      1.0000 0.28193  0.81672  0.66223  Biso   1.000  Co
  N21      1.0000 0.32964  0.94720  0.68875  Biso   1.000  N
  N22      1.0000 0.38846  0.04228  0.74247  Biso   1.000  N
  N23      1.0000 0.35671  0.11400  0.70850  Biso   1.000  N
  N24      1.0000 0.66548  0.72910  0.87003  Biso   1.000  N
  N25      1.0000 0.62368  0.59670  0.89284  Biso   1.000  N
  N26      1.0000 0.61310  0.68030  0.92744  Biso   1.000  N
  N27      1.0000 0.72788  0.80170  0.13866  Biso   1.000  N
  N28      1.0000 0.66312  0.89620  0.14692  Biso   1.000  N
  N29      1.0000 0.67299  0.91180  0.08911  Biso   1.000  N
  N30      1.0000 0.55528  0.18240  0.91338  Biso   1.000  N
  O5       1.0000 0.25010  0.86729  0.74022  Biso   1.000  O
  O6       1.0000 0.30529  0.74407  0.75846  Biso   1.000  O
  C94      1.0000 0.67737  0.05190  0.82255  Biso   1.000  C
  H67      1.0000 0.70450  0.07830  0.85050  Biso   1.000  H
  C95      1.0000 0.62864  0.94420  0.76967  Biso   1.000  C
  H68      1.0000 0.61350  0.88240  0.75160  Biso   1.000  H
  C96      1.0000 0.34515  0.62730  0.64047  Biso   1.000  C
  H69      1.0000 0.33260  0.58340  0.66730  Biso   1.000  H
  C97      1.0000 0.36076  0.75740  0.58852  Biso   1.000  C
  H70      1.0000 0.36050  0.82620  0.57230  Biso   1.000  H
  C98      1.0000 0.30284  0.83030  0.32590  Biso   1.000  C
  H71      1.0000 0.30020  0.80500  0.28480  Biso   1.000  H
  C99      1.0000 0.28788  0.85670  0.41382  Biso   1.000  C
  H72      1.0000 0.27360  0.85710  0.44840  Biso   1.000  H
  C100     1.0000 0.56892  0.07700  0.71416  Biso   1.000  C
  C101     1.0000 0.53212  0.00650  0.69156  Biso   1.000  C
  H73      1.0000 0.53480  0.93600  0.70520  Biso   1.000  H
  C102     1.0000 0.49151  0.03990  0.64887  Biso   1.000  C
  H74      1.0000 0.46720  0.99140  0.63310  Biso   1.000  H
  C103     1.0000 0.48646  0.14620  0.62889  Biso   1.000  C
  C104     1.0000 0.52392  0.21590  0.65175  Biso   1.000  C
  H75      1.0000 0.52130  0.28670  0.63860  Biso   1.000  H
  C105     1.0000 0.56522  0.18180  0.69393  Biso   1.000  C
  H76      1.0000 0.59030  0.22920  0.70850  Biso   1.000  H
  C106     1.0000 0.39490  0.49220  0.60235  Biso   1.000  C
  C107     1.0000 0.40703  0.42920  0.65569  Biso   1.000  C
  H77      1.0000 0.40420  0.45530  0.69500  Biso   1.000  H
  C108     1.0000 0.42350  0.32660  0.65044  Biso   1.000  C
  H78      1.0000 0.43160  0.28340  0.68630  Biso   1.000  H
  C109     1.0000 0.42784  0.28840  0.59247  Biso   1.000  C
  C110     1.0000 0.41533  0.35200  0.53897  Biso   1.000  C
  H79      1.0000 0.41840  0.32610  0.49980  Biso   1.000  H
  C111     1.0000 0.39834  0.45390  0.54368  Biso   1.000  C
  H80      1.0000 0.38930  0.49640  0.50760  Biso   1.000  H
  C112     1.0000 0.41498  0.11280  0.54284  Biso   1.000  C
  C113     1.0000 0.36701  0.10400  0.54140  Biso   1.000  C
  H81      1.0000 0.35400  0.14320  0.56990  Biso   1.000  H
  C114     1.0000 0.33770  0.03740  0.49813  Biso   1.000  C
  H82      1.0000 0.30520  0.03210  0.49740  Biso   1.000  H
  C115     1.0000 0.35702  0.97960  0.45648  Biso   1.000  C
  C116     1.0000 0.40468  0.98700  0.45740  Biso   1.000  C
  H83      1.0000 0.41750  0.94720  0.42890  Biso   1.000  H
  C117     1.0000 0.43374  0.05300  0.50020  Biso   1.000  C
  H84      1.0000 0.46620  0.05770  0.50070  Biso   1.000  H
  C118     1.0000 0.72478  0.80130  0.72225  Biso   1.000  C
  C119     1.0000 0.73224  0.78680  0.65632  Biso   1.000  C
  C120     1.0000 0.70353  0.71920  0.61428  Biso   1.000  C
  H85      1.0000 0.67880  0.68330  0.62670  Biso   1.000  H
  C121     1.0000 0.71074  0.70350  0.55360  Biso   1.000  C
  H86      1.0000 0.69110  0.65620  0.52630  Biso   1.000  H
  C122     1.0000 0.74668  0.75700  0.53296  Biso   1.000  C
  C123     1.0000 0.77608  0.82270  0.57654  Biso   1.000  C
  H87      1.0000 0.80150  0.85740  0.56490  Biso   1.000  H
  C124     1.0000 0.76868  0.83790  0.63678  Biso   1.000  C
  H88      1.0000 0.78880  0.88360  0.66470  Biso   1.000  H
  Co4      1.0000 0.71807  0.81672  0.83777  Biso   1.000  Co
  N31      1.0000 0.67036  0.94720  0.81125  Biso   1.000  N
  N32      1.0000 0.61154  0.04228  0.75753  Biso   1.000  N
  N33      1.0000 0.64329  0.11400  0.79150  Biso   1.000  N
  N34      1.0000 0.33452  0.72910  0.62997  Biso   1.000  N
  N35      1.0000 0.37632  0.59670  0.60716  Biso   1.000  N
  N36      1.0000 0.38690  0.68030  0.57256  Biso   1.000  N
  N37      1.0000 0.27212  0.80170  0.36134  Biso   1.000  N
  N38      1.0000 0.33688  0.89620  0.35308  Biso   1.000  N
  N39      1.0000 0.32701  0.91180  0.41089  Biso   1.000  N
  N40      1.0000 0.44472  0.18240  0.58662  Biso   1.000  N
  O7       1.0000 0.74990  0.86729  0.75978  Biso   1.000  O
  O8       1.0000 0.69471  0.74407  0.74154  Biso   1.000  O
  C125     1.0000 0.67737  0.94810  0.32255  Biso   1.000  C
  H89      1.0000 0.70450  0.92170  0.35050  Biso   1.000  H
  C126     1.0000 0.62864  0.05580  0.26967  Biso   1.000  C
  H90      1.0000 0.61350  0.11760  0.25160  Biso   1.000  H
  C127     1.0000 0.34515  0.37270  0.14047  Biso   1.000  C
  H91      1.0000 0.33260  0.41660  0.16730  Biso   1.000  H
  C128     1.0000 0.36076  0.24260  0.08852  Biso   1.000  C
  H92      1.0000 0.36050  0.17380  0.07230  Biso   1.000  H
  C129     1.0000 0.30284  0.16970  0.82590  Biso   1.000  C
  H93      1.0000 0.30020  0.19500  0.78480  Biso   1.000  H
  C130     1.0000 0.28788  0.14330  0.91382  Biso   1.000  C
  H94      1.0000 0.27360  0.14290  0.94840  Biso   1.000  H
  C131     1.0000 0.56892  0.92300  0.21416  Biso   1.000  C
  C132     1.0000 0.53212  0.99350  0.19156  Biso   1.000  C
  H95      1.0000 0.53480  0.06400  0.20520  Biso   1.000  H
  C133     1.0000 0.49151  0.96010  0.14887  Biso   1.000  C
  H96      1.0000 0.46720  0.00860  0.13310  Biso   1.000  H
  C134     1.0000 0.48646  0.85380  0.12889  Biso   1.000  C
  C135     1.0000 0.52392  0.78410  0.15175  Biso   1.000  C
  H97      1.0000 0.52130  0.71330  0.13860  Biso   1.000  H
  C136     1.0000 0.56522  0.81820  0.19393  Biso   1.000  C
  H98      1.0000 0.59030  0.77080  0.20850  Biso   1.000  H
  C137     1.0000 0.39490  0.50780  0.10235  Biso   1.000  C
  C138     1.0000 0.40703  0.57080  0.15569  Biso   1.000  C
  H99      1.0000 0.40420  0.54470  0.19500  Biso   1.000  H
  C139     1.0000 0.42350  0.67340  0.15044  Biso   1.000  C
  H100     1.0000 0.43160  0.71660  0.18630  Biso   1.000  H
  C140     1.0000 0.42784  0.71160  0.09247  Biso   1.000  C
  C141     1.0000 0.41533  0.64800  0.03897  Biso   1.000  C
  H101     1.0000 0.41840  0.67390  0.99980  Biso   1.000  H
  C142     1.0000 0.39834  0.54610  0.04368  Biso   1.000  C
  H102     1.0000 0.38930  0.50360  0.00760  Biso   1.000  H
  C143     1.0000 0.41498  0.88720  0.04284  Biso   1.000  C
  C144     1.0000 0.36701  0.89600  0.04140  Biso   1.000  C
  H103     1.0000 0.35400  0.85680  0.06990  Biso   1.000  H
  C145     1.0000 0.33770  0.96260  0.99813  Biso   1.000  C
  H104     1.0000 0.30520  0.96790  0.99740  Biso   1.000  H
  C146     1.0000 0.35702  0.02040  0.95648  Biso   1.000  C
  C147     1.0000 0.40468  0.01300  0.95740  Biso   1.000  C
  H105     1.0000 0.41750  0.05280  0.92890  Biso   1.000  H
  C148     1.0000 0.43374  0.94700  0.00020  Biso   1.000  C
  H106     1.0000 0.46620  0.94230  0.00070  Biso   1.000  H
  C149     1.0000 0.72478  0.19870  0.22225  Biso   1.000  C
  C150     1.0000 0.73224  0.21320  0.15632  Biso   1.000  C
  C151     1.0000 0.70353  0.28080  0.11428  Biso   1.000  C
  H107     1.0000 0.67880  0.31670  0.12670  Biso   1.000  H
  C152     1.0000 0.71074  0.29650  0.05360  Biso   1.000  C
  H108     1.0000 0.69110  0.34380  0.02630  Biso   1.000  H
  C153     1.0000 0.74668  0.24300  0.03296  Biso   1.000  C
  C154     1.0000 0.77608  0.17730  0.07654  Biso   1.000  C
  H109     1.0000 0.80150  0.14260  0.06490  Biso   1.000  H
  C155     1.0000 0.76868  0.16210  0.13678  Biso   1.000  C
  H110     1.0000 0.78880  0.11640  0.16470  Biso   1.000  H
  Co5      1.0000 0.71807  0.18328  0.33777  Biso   1.000  Co
  N41      1.0000 0.67036  0.05280  0.31125  Biso   1.000  N
  N42      1.0000 0.61154  0.95772  0.25753  Biso   1.000  N
  N43      1.0000 0.64329  0.88600  0.29150  Biso   1.000  N
  N44      1.0000 0.33452  0.27090  0.12997  Biso   1.000  N
  N45      1.0000 0.37632  0.40330  0.10716  Biso   1.000  N
  N46      1.0000 0.38690  0.31970  0.07256  Biso   1.000  N
  N47      1.0000 0.27212  0.19830  0.86134  Biso   1.000  N
  N48      1.0000 0.33688  0.10380  0.85308  Biso   1.000  N
  N49      1.0000 0.32701  0.08820  0.91089  Biso   1.000  N
  N50      1.0000 0.44472  0.81760  0.08662  Biso   1.000  N
  O9       1.0000 0.74990  0.13271  0.25978  Biso   1.000  O
  O10      1.0000 0.69471  0.25593  0.24154  Biso   1.000  O
  C156     1.0000 0.32263  0.94810  0.17745  Biso   1.000  C
  H111     1.0000 0.29550  0.92170  0.14950  Biso   1.000  H
  C157     1.0000 0.37136  0.05580  0.23033  Biso   1.000  C
  H112     1.0000 0.38650  0.11760  0.24840  Biso   1.000  H
  C158     1.0000 0.65485  0.37270  0.35953  Biso   1.000  C
  H113     1.0000 0.66740  0.41660  0.33270  Biso   1.000  H
  C159     1.0000 0.63924  0.24260  0.41148  Biso   1.000  C
  H114     1.0000 0.63950  0.17380  0.42770  Biso   1.000  H
  C160     1.0000 0.69716  0.16970  0.67410  Biso   1.000  C
  H115     1.0000 0.69980  0.19500  0.71520  Biso   1.000  H
  C161     1.0000 0.71212  0.14330  0.58618  Biso   1.000  C
  H116     1.0000 0.72640  0.14290  0.55160  Biso   1.000  H
  C162     1.0000 0.43108  0.92300  0.28584  Biso   1.000  C
  C163     1.0000 0.46788  0.99350  0.30844  Biso   1.000  C
  H117     1.0000 0.46520  0.06400  0.29480  Biso   1.000  H
  C164     1.0000 0.50849  0.96010  0.35113  Biso   1.000  C
  H118     1.0000 0.53280  0.00860  0.36690  Biso   1.000  H
  C165     1.0000 0.51354  0.85380  0.37111  Biso   1.000  C
  C166     1.0000 0.47608  0.78410  0.34825  Biso   1.000  C
  H119     1.0000 0.47870  0.71330  0.36140  Biso   1.000  H
  C167     1.0000 0.43478  0.81820  0.30607  Biso   1.000  C
  H120     1.0000 0.40970  0.77080  0.29150  Biso   1.000  H
  C168     1.0000 0.60510  0.50780  0.39765  Biso   1.000  C
  C169     1.0000 0.59297  0.57080  0.34431  Biso   1.000  C
  H121     1.0000 0.59580  0.54470  0.30500  Biso   1.000  H
  C170     1.0000 0.57650  0.67340  0.34956  Biso   1.000  C
  H122     1.0000 0.56840  0.71660  0.31370  Biso   1.000  H
  C171     1.0000 0.57216  0.71160  0.40753  Biso   1.000  C
  C172     1.0000 0.58467  0.64800  0.46103  Biso   1.000  C
  H123     1.0000 0.58160  0.67390  0.50020  Biso   1.000  H
  C173     1.0000 0.60166  0.54610  0.45632  Biso   1.000  C
  H124     1.0000 0.61070  0.50360  0.49240  Biso   1.000  H
  C174     1.0000 0.58502  0.88720  0.45716  Biso   1.000  C
  C175     1.0000 0.63299  0.89600  0.45860  Biso   1.000  C
  H125     1.0000 0.64600  0.85680  0.43010  Biso   1.000  H
  C176     1.0000 0.66230  0.96260  0.50187  Biso   1.000  C
  H126     1.0000 0.69480  0.96790  0.50260  Biso   1.000  H
  C177     1.0000 0.64298  0.02040  0.54352  Biso   1.000  C
  C178     1.0000 0.59532  0.01300  0.54260  Biso   1.000  C
  H127     1.0000 0.58250  0.05280  0.57110  Biso   1.000  H
  C179     1.0000 0.56626  0.94700  0.49980  Biso   1.000  C
  H128     1.0000 0.53380  0.94230  0.49930  Biso   1.000  H
  C180     1.0000 0.27522  0.19870  0.27775  Biso   1.000  C
  C181     1.0000 0.26776  0.21320  0.34368  Biso   1.000  C
  C182     1.0000 0.29647  0.28080  0.38572  Biso   1.000  C
  H129     1.0000 0.32120  0.31670  0.37330  Biso   1.000  H
  C183     1.0000 0.28926  0.29650  0.44640  Biso   1.000  C
  H130     1.0000 0.30890  0.34380  0.47370  Biso   1.000  H
  C184     1.0000 0.25332  0.24300  0.46704  Biso   1.000  C
  C185     1.0000 0.22392  0.17730  0.42346  Biso   1.000  C
  H131     1.0000 0.19850  0.14260  0.43510  Biso   1.000  H
  C186     1.0000 0.23132  0.16210  0.36322  Biso   1.000  C
  H132     1.0000 0.21120  0.11640  0.33530  Biso   1.000  H
  Co6      1.0000 0.28193  0.18328  0.16223  Biso   1.000  Co
  N51      1.0000 0.32964  0.05280  0.18875  Biso   1.000  N
  N52      1.0000 0.38846  0.95772  0.24247  Biso   1.000  N
  N53      1.0000 0.35671  0.88600  0.20850  Biso   1.000  N
  N54      1.0000 0.66548  0.27090  0.37003  Biso   1.000  N
  N55      1.0000 0.62368  0.40330  0.39284  Biso   1.000  N
  N56      1.0000 0.61310  0.31970  0.42744  Biso   1.000  N
  N57      1.0000 0.72788  0.19830  0.63866  Biso   1.000  N
  N58      1.0000 0.66312  0.10380  0.64692  Biso   1.000  N
  N59      1.0000 0.67299  0.08820  0.58911  Biso   1.000  N
  N60      1.0000 0.55528  0.81760  0.41338  Biso   1.000  N
  O11      1.0000 0.25010  0.13271  0.24022  Biso   1.000  O
  O12      1.0000 0.30529  0.25593  0.25846  Biso   1.000  O
  C187     1.0000 0.82263  0.55190  0.67745  Biso   1.000  C
  H133     1.0000 0.79550  0.57830  0.64950  Biso   1.000  H
  C188     1.0000 0.87136  0.44420  0.73033  Biso   1.000  C
  H134     1.0000 0.88650  0.38240  0.74840  Biso   1.000  H
  C189     1.0000 0.15485  0.12730  0.85953  Biso   1.000  C
  H135     1.0000 0.16740  0.08340  0.83270  Biso   1.000  H
  C190     1.0000 0.13924  0.25740  0.91148  Biso   1.000  C
  H136     1.0000 0.13950  0.32620  0.92770  Biso   1.000  H
  C191     1.0000 0.19716  0.33030  0.17410  Biso   1.000  C
  H137     1.0000 0.19980  0.30500  0.21520  Biso   1.000  H
  C192     1.0000 0.21212  0.35670  0.08618  Biso   1.000  C
  H138     1.0000 0.22640  0.35710  0.05160  Biso   1.000  H
  C193     1.0000 0.93108  0.57700  0.78584  Biso   1.000  C
  C194     1.0000 0.96788  0.50650  0.80844  Biso   1.000  C
  H139     1.0000 0.96520  0.43600  0.79480  Biso   1.000  H
  C195     1.0000 0.00849  0.53990  0.85113  Biso   1.000  C
  H140     1.0000 0.03280  0.49140  0.86690  Biso   1.000  H
  C196     1.0000 0.01354  0.64620  0.87111  Biso   1.000  C
  C197     1.0000 0.97608  0.71590  0.84825  Biso   1.000  C
  H141     1.0000 0.97870  0.78670  0.86140  Biso   1.000  H
  C198     1.0000 0.93478  0.68180  0.80607  Biso   1.000  C
  H142     1.0000 0.90970  0.72920  0.79150  Biso   1.000  H
  C199     1.0000 0.10510  0.99220  0.89765  Biso   1.000  C
  C200     1.0000 0.09297  0.92920  0.84431  Biso   1.000  C
  H143     1.0000 0.09580  0.95530  0.80500  Biso   1.000  H
  C201     1.0000 0.07650  0.82660  0.84956  Biso   1.000  C
  H144     1.0000 0.06840  0.78340  0.81370  Biso   1.000  H
  C202     1.0000 0.07216  0.78840  0.90753  Biso   1.000  C
  C203     1.0000 0.08467  0.85200  0.96103  Biso   1.000  C
  H145     1.0000 0.08160  0.82610  0.00020  Biso   1.000  H
  C204     1.0000 0.10166  0.95390  0.95632  Biso   1.000  C
  H146     1.0000 0.11070  0.99640  0.99240  Biso   1.000  H
  C205     1.0000 0.08502  0.61280  0.95716  Biso   1.000  C
  C206     1.0000 0.13299  0.60400  0.95860  Biso   1.000  C
  H147     1.0000 0.14600  0.64320  0.93010  Biso   1.000  H
  C207     1.0000 0.16230  0.53740  0.00187  Biso   1.000  C
  H148     1.0000 0.19480  0.53210  0.00260  Biso   1.000  H
  C208     1.0000 0.14298  0.47960  0.04352  Biso   1.000  C
  C209     1.0000 0.09532  0.48700  0.04260  Biso   1.000  C
  H149     1.0000 0.08250  0.44720  0.07110  Biso   1.000  H
  C210     1.0000 0.06626  0.55300  0.99980  Biso   1.000  C
  H150     1.0000 0.03380  0.55770  0.99930  Biso   1.000  H
  C211     1.0000 0.77522  0.30130  0.77775  Biso   1.000  C
  C212     1.0000 0.76776  0.28680  0.84368  Biso   1.000  C
  C213     1.0000 0.79647  0.21920  0.88572  Biso   1.000  C
  H151     1.0000 0.82120  0.18330  0.87330  Biso   1.000  H
  C214     1.0000 0.78926  0.20350  0.94640  Biso   1.000  C
  H152     1.0000 0.80890  0.15620  0.97370  Biso   1.000  H
  C215     1.0000 0.75332  0.25700  0.96704  Biso   1.000  C
  C216     1.0000 0.72392  0.32270  0.92346  Biso   1.000  C
  H153     1.0000 0.69850  0.35740  0.93510  Biso   1.000  H
  C217     1.0000 0.73132  0.33790  0.86322  Biso   1.000  C
  H154     1.0000 0.71120  0.38360  0.83530  Biso   1.000  H
  Co7      1.0000 0.78193  0.31672  0.66223  Biso   1.000  Co
  N61      1.0000 0.82964  0.44720  0.68875  Biso   1.000  N
  N62      1.0000 0.88846  0.54228  0.74247  Biso   1.000  N
  N63      1.0000 0.85671  0.61400  0.70850  Biso   1.000  N
  N64      1.0000 0.16548  0.22910  0.87003  Biso   1.000  N
  N65      1.0000 0.12368  0.09670  0.89284  Biso   1.000  N
  N66      1.0000 0.11310  0.18030  0.92744  Biso   1.000  N
  N67      1.0000 0.22788  0.30170  0.13866  Biso   1.000  N
  N68      1.0000 0.16312  0.39620  0.14692  Biso   1.000  N
  N69      1.0000 0.17299  0.41180  0.08911  Biso   1.000  N
  N70      1.0000 0.05528  0.68240  0.91338  Biso   1.000  N
  O13      1.0000 0.75010  0.36729  0.74022  Biso   1.000  O
  O14      1.0000 0.80529  0.24407  0.75846  Biso   1.000  O
  C218     1.0000 0.17737  0.55190  0.82255  Biso   1.000  C
  H155     1.0000 0.20450  0.57830  0.85050  Biso   1.000  H
  C219     1.0000 0.12864  0.44420  0.76967  Biso   1.000  C
  H156     1.0000 0.11350  0.38240  0.75160  Biso   1.000  H
  C220     1.0000 0.84515  0.12730  0.64047  Biso   1.000  C
  H157     1.0000 0.83260  0.08340  0.66730  Biso   1.000  H
  C221     1.0000 0.86076  0.25740  0.58852  Biso   1.000  C
  H158     1.0000 0.86050  0.32620  0.57230  Biso   1.000  H
  C222     1.0000 0.80284  0.33030  0.32590  Biso   1.000  C
  H159     1.0000 0.80020  0.30500  0.28480  Biso   1.000  H
  C223     1.0000 0.78788  0.35670  0.41382  Biso   1.000  C
  H160     1.0000 0.77360  0.35710  0.44840  Biso   1.000  H
  C224     1.0000 0.06892  0.57700  0.71416  Biso   1.000  C
  C225     1.0000 0.03212  0.50650  0.69156  Biso   1.000  C
  H161     1.0000 0.03480  0.43600  0.70520  Biso   1.000  H
  C226     1.0000 0.99151  0.53990  0.64887  Biso   1.000  C
  H162     1.0000 0.96720  0.49140  0.63310  Biso   1.000  H
  C227     1.0000 0.98646  0.64620  0.62889  Biso   1.000  C
  C228     1.0000 0.02392  0.71590  0.65175  Biso   1.000  C
  H163     1.0000 0.02130  0.78670  0.63860  Biso   1.000  H
  C229     1.0000 0.06522  0.68180  0.69393  Biso   1.000  C
  H164     1.0000 0.09030  0.72920  0.70850  Biso   1.000  H
  C230     1.0000 0.89490  0.99220  0.60235  Biso   1.000  C
  C231     1.0000 0.90703  0.92920  0.65569  Biso   1.000  C
  H165     1.0000 0.90420  0.95530  0.69500  Biso   1.000  H
  C232     1.0000 0.92350  0.82660  0.65044  Biso   1.000  C
  H166     1.0000 0.93160  0.78340  0.68630  Biso   1.000  H
  C233     1.0000 0.92784  0.78840  0.59247  Biso   1.000  C
  C234     1.0000 0.91533  0.85200  0.53897  Biso   1.000  C
  H167     1.0000 0.91840  0.82610  0.49980  Biso   1.000  H
  C235     1.0000 0.89834  0.95390  0.54368  Biso   1.000  C
  H168     1.0000 0.88930  0.99640  0.50760  Biso   1.000  H
  C236     1.0000 0.91498  0.61280  0.54284  Biso   1.000  C
  C237     1.0000 0.86701  0.60400  0.54140  Biso   1.000  C
  H169     1.0000 0.85400  0.64320  0.56990  Biso   1.000  H
  C238     1.0000 0.83770  0.53740  0.49813  Biso   1.000  C
  H170     1.0000 0.80520  0.53210  0.49740  Biso   1.000  H
  C239     1.0000 0.85702  0.47960  0.45648  Biso   1.000  C
  C240     1.0000 0.90468  0.48700  0.45740  Biso   1.000  C
  H171     1.0000 0.91750  0.44720  0.42890  Biso   1.000  H
  C241     1.0000 0.93374  0.55300  0.50020  Biso   1.000  C
  H172     1.0000 0.96620  0.55770  0.50070  Biso   1.000  H
  C242     1.0000 0.22478  0.30130  0.72225  Biso   1.000  C
  C243     1.0000 0.23224  0.28680  0.65632  Biso   1.000  C
  C244     1.0000 0.20353  0.21920  0.61428  Biso   1.000  C
  H173     1.0000 0.17880  0.18330  0.62670  Biso   1.000  H
  C245     1.0000 0.21074  0.20350  0.55360  Biso   1.000  C
  H174     1.0000 0.19110  0.15620  0.52630  Biso   1.000  H
  C246     1.0000 0.24668  0.25700  0.53296  Biso   1.000  C
  C247     1.0000 0.27608  0.32270  0.57654  Biso   1.000  C
  H175     1.0000 0.30150  0.35740  0.56490  Biso   1.000  H
  C248     1.0000 0.26868  0.33790  0.63678  Biso   1.000  C
  H176     1.0000 0.28880  0.38360  0.66470  Biso   1.000  H
  Co8      1.0000 0.21807  0.31672  0.83777  Biso   1.000  Co
  N71      1.0000 0.17036  0.44720  0.81125  Biso   1.000  N
  N72      1.0000 0.11154  0.54228  0.75753  Biso   1.000  N
  N73      1.0000 0.14329  0.61400  0.79150  Biso   1.000  N
  N74      1.0000 0.83452  0.22910  0.62997  Biso   1.000  N
  N75      1.0000 0.87632  0.09670  0.60716  Biso   1.000  N
  N76      1.0000 0.88690  0.18030  0.57256  Biso   1.000  N
  N77      1.0000 0.77212  0.30170  0.36134  Biso   1.000  N
  N78      1.0000 0.83688  0.39620  0.35308  Biso   1.000  N
  N79      1.0000 0.82701  0.41180  0.41089  Biso   1.000  N
  N80      1.0000 0.94472  0.68240  0.58662  Biso   1.000  N
  O15      1.0000 0.24990  0.36729  0.75978  Biso   1.000  O
  O16      1.0000 0.19471  0.24407  0.74154  Biso   1.000  O
