data_FUQJUX_clean
_audit_creation_date              2014-07-02
_audit_creation_method            'Materials Studio'
_symmetry_space_group_name_H-M    'P1'
_symmetry_Int_Tables_number       1
_symmetry_cell_setting            triclinic
loop_
_symmetry_equiv_pos_as_xyz
  x,y,z
_cell_length_a                    25.6477
_cell_length_b                    25.6477
_cell_length_c                    25.6477
_cell_angle_alpha                 60.0000
_cell_angle_beta                  60.0000
_cell_angle_gamma                 60.0000
loop_
_atom_site_label
_atom_site_type_symbol
_atom_site_fract_x
_atom_site_fract_y
_atom_site_fract_z
_atom_site_U_iso_or_equiv
_atom_site_adp_type
_atom_site_occupancy
Cu1    Cu    0.67322   0.25000   0.75000   0.01267  Uiso   1.00
Cu2    Cu    0.75000   0.17322   0.32678   0.01267  Uiso   1.00
Cu3    Cu    0.25000   0.32678   0.17322   0.01267  Uiso   1.00
Cu4    Cu    0.82678   0.75000   0.25000   0.01267  Uiso   1.00
Cu5    Cu    0.67322   0.75000   0.32678   0.01267  Uiso   1.00
Cu6    Cu    0.75000   0.32678   0.75000   0.01267  Uiso   1.00
Cu7    Cu    0.25000   0.17322   0.25000   0.01267  Uiso   1.00
Cu8    Cu    0.82678   0.25000   0.17322   0.01267  Uiso   1.00
Cu9    Cu    0.67322   0.32678   0.25000   0.01267  Uiso   1.00
Cu10   Cu    0.75000   0.75000   0.17322   0.01267  Uiso   1.00
Cu11   Cu    0.25000   0.25000   0.32678   0.01267  Uiso   1.00
Cu12   Cu    0.82678   0.17322   0.75000   0.01267  Uiso   1.00
Cu13   Cu    0.32678   0.75000   0.25000   0.01267  Uiso   1.00
Cu14   Cu    0.25000   0.82678   0.67322   0.01267  Uiso   1.00
Cu15   Cu    0.75000   0.67322   0.82678   0.01267  Uiso   1.00
Cu16   Cu    0.17322   0.25000   0.75000   0.01267  Uiso   1.00
Cu17   Cu    0.32678   0.25000   0.67322   0.01267  Uiso   1.00
Cu18   Cu    0.25000   0.67322   0.25000   0.01267  Uiso   1.00
Cu19   Cu    0.75000   0.82678   0.75000   0.01267  Uiso   1.00
Cu20   Cu    0.17322   0.75000   0.82678   0.01267  Uiso   1.00
Cu21   Cu    0.32678   0.67322   0.75000   0.01267  Uiso   1.00
Cu22   Cu    0.25000   0.25000   0.82678   0.01267  Uiso   1.00
Cu23   Cu    0.75000   0.75000   0.67322   0.01267  Uiso   1.00
Cu24   Cu    0.17322   0.82678   0.25000   0.01267  Uiso   1.00
H1     H     0.55290   0.54810   0.73270   0.01267  Uiso   1.00
H2     H     0.46050   0.63690   0.73450   0.01267  Uiso   1.00
H3     H     0.04810   0.05290   0.16630   0.01267  Uiso   1.00
H4     H     0.13690   0.96050   0.16810   0.01267  Uiso   1.00
H5     H     0.23270   0.16630   0.05290   0.01267  Uiso   1.00
H6     H     0.23450   0.16810   0.96050   0.01267  Uiso   1.00
H7     H     0.66630   0.73270   0.54810   0.01267  Uiso   1.00
H8     H     0.66810   0.73450   0.63690   0.01267  Uiso   1.00
H9     H     0.55290   0.73270   0.16630   0.01267  Uiso   1.00
H10    H     0.46050   0.73450   0.16810   0.01267  Uiso   1.00
H11    H     0.04810   0.16630   0.73270   0.01267  Uiso   1.00
H12    H     0.13690   0.16810   0.73450   0.01267  Uiso   1.00
H13    H     0.23270   0.05290   0.54810   0.01267  Uiso   1.00
H14    H     0.23450   0.96050   0.63690   0.01267  Uiso   1.00
H15    H     0.66630   0.54810   0.05290   0.01267  Uiso   1.00
H16    H     0.66810   0.63690   0.96050   0.01267  Uiso   1.00
H17    H     0.55290   0.16630   0.54810   0.01267  Uiso   1.00
H18    H     0.46050   0.16810   0.63690   0.01267  Uiso   1.00
H19    H     0.04810   0.73270   0.05290   0.01267  Uiso   1.00
H20    H     0.13690   0.73450   0.96050   0.01267  Uiso   1.00
H21    H     0.23270   0.54810   0.16630   0.01267  Uiso   1.00
H22    H     0.23450   0.63690   0.16810   0.01267  Uiso   1.00
H23    H     0.66630   0.05290   0.73270   0.01267  Uiso   1.00
H24    H     0.66810   0.96050   0.73450   0.01267  Uiso   1.00
H25    H     0.45190   0.44710   0.76730   0.01267  Uiso   1.00
H26    H     0.36310   0.53950   0.76550   0.01267  Uiso   1.00
H27    H     0.94710   0.95190   0.33370   0.01267  Uiso   1.00
H28    H     0.03950   0.86310   0.33190   0.01267  Uiso   1.00
H29    H     0.83370   0.76730   0.44710   0.01267  Uiso   1.00
H30    H     0.83190   0.76550   0.53950   0.01267  Uiso   1.00
H31    H     0.26730   0.33370   0.95190   0.01267  Uiso   1.00
H32    H     0.26550   0.33190   0.86310   0.01267  Uiso   1.00
H33    H     0.26730   0.44710   0.33370   0.01267  Uiso   1.00
H34    H     0.26550   0.53950   0.33190   0.01267  Uiso   1.00
H35    H     0.83370   0.95190   0.76730   0.01267  Uiso   1.00
H36    H     0.83190   0.86310   0.76550   0.01267  Uiso   1.00
H37    H     0.94710   0.76730   0.95190   0.01267  Uiso   1.00
H38    H     0.03950   0.76550   0.86310   0.01267  Uiso   1.00
H39    H     0.45190   0.33370   0.44710   0.01267  Uiso   1.00
H40    H     0.36310   0.33190   0.53950   0.01267  Uiso   1.00
H41    H     0.83370   0.44710   0.95190   0.01267  Uiso   1.00
H42    H     0.83190   0.53950   0.86310   0.01267  Uiso   1.00
H43    H     0.26730   0.95190   0.44710   0.01267  Uiso   1.00
H44    H     0.26550   0.86310   0.53950   0.01267  Uiso   1.00
H45    H     0.45190   0.76730   0.33370   0.01267  Uiso   1.00
H46    H     0.36310   0.76550   0.33190   0.01267  Uiso   1.00
H47    H     0.94710   0.33370   0.76730   0.01267  Uiso   1.00
H48    H     0.03950   0.33190   0.76550   0.01267  Uiso   1.00
H49    H     0.44710   0.45190   0.26730   0.01267  Uiso   1.00
H50    H     0.53950   0.36310   0.26550   0.01267  Uiso   1.00
H51    H     0.95190   0.94710   0.83370   0.01267  Uiso   1.00
H52    H     0.86310   0.03950   0.83190   0.01267  Uiso   1.00
H53    H     0.76730   0.83370   0.94710   0.01267  Uiso   1.00
H54    H     0.76550   0.83190   0.03950   0.01267  Uiso   1.00
H55    H     0.33370   0.26730   0.45190   0.01267  Uiso   1.00
H56    H     0.33190   0.26550   0.36310   0.01267  Uiso   1.00
H57    H     0.44710   0.26730   0.83370   0.01267  Uiso   1.00
H58    H     0.53950   0.26550   0.83190   0.01267  Uiso   1.00
H59    H     0.95190   0.83370   0.26730   0.01267  Uiso   1.00
H60    H     0.86310   0.83190   0.26550   0.01267  Uiso   1.00
H61    H     0.76730   0.94710   0.45190   0.01267  Uiso   1.00
H62    H     0.76550   0.03950   0.36310   0.01267  Uiso   1.00
H63    H     0.33370   0.45190   0.94710   0.01267  Uiso   1.00
H64    H     0.33190   0.36310   0.03950   0.01267  Uiso   1.00
H65    H     0.44710   0.83370   0.45190   0.01267  Uiso   1.00
H66    H     0.53950   0.83190   0.36310   0.01267  Uiso   1.00
H67    H     0.95190   0.26730   0.94710   0.01267  Uiso   1.00
H68    H     0.86310   0.26550   0.03950   0.01267  Uiso   1.00
H69    H     0.76730   0.45190   0.83370   0.01267  Uiso   1.00
H70    H     0.76550   0.36310   0.83190   0.01267  Uiso   1.00
H71    H     0.33370   0.94710   0.26730   0.01267  Uiso   1.00
H72    H     0.33190   0.03950   0.26550   0.01267  Uiso   1.00
H73    H     0.54810   0.55290   0.23270   0.01267  Uiso   1.00
H74    H     0.63690   0.46050   0.23450   0.01267  Uiso   1.00
H75    H     0.05290   0.04810   0.66630   0.01267  Uiso   1.00
H76    H     0.96050   0.13690   0.66810   0.01267  Uiso   1.00
H77    H     0.16630   0.23270   0.55290   0.01267  Uiso   1.00
H78    H     0.16810   0.23450   0.46050   0.01267  Uiso   1.00
H79    H     0.73270   0.66630   0.04810   0.01267  Uiso   1.00
H80    H     0.73450   0.66810   0.13690   0.01267  Uiso   1.00
H81    H     0.73270   0.55290   0.66630   0.01267  Uiso   1.00
H82    H     0.73450   0.46050   0.66810   0.01267  Uiso   1.00
H83    H     0.16630   0.04810   0.23270   0.01267  Uiso   1.00
H84    H     0.16810   0.13690   0.23450   0.01267  Uiso   1.00
H85    H     0.05290   0.23270   0.04810   0.01267  Uiso   1.00
H86    H     0.96050   0.23450   0.13690   0.01267  Uiso   1.00
H87    H     0.54810   0.66630   0.55290   0.01267  Uiso   1.00
H88    H     0.63690   0.66810   0.46050   0.01267  Uiso   1.00
H89    H     0.16630   0.55290   0.04810   0.01267  Uiso   1.00
H90    H     0.16810   0.46050   0.13690   0.01267  Uiso   1.00
H91    H     0.73270   0.04810   0.55290   0.01267  Uiso   1.00
H92    H     0.73450   0.13690   0.46050   0.01267  Uiso   1.00
H93    H     0.54810   0.23270   0.66630   0.01267  Uiso   1.00
H94    H     0.63690   0.23450   0.66810   0.01267  Uiso   1.00
H95    H     0.05290   0.66630   0.23270   0.01267  Uiso   1.00
H96    H     0.96050   0.66810   0.23450   0.01267  Uiso   1.00
C1     C     0.51422   0.54506   0.74002   0.01267  Uiso   1.00
C2     C     0.45923   0.59775   0.74077   0.01267  Uiso   1.00
C3     C     0.04506   0.01422   0.20070   0.01267  Uiso   1.00
C4     C     0.09775   0.95923   0.20225   0.01267  Uiso   1.00
C5     C     0.24002   0.20070   0.01422   0.01267  Uiso   1.00
C6     C     0.24077   0.20225   0.95923   0.01267  Uiso   1.00
C7     C     0.70070   0.74002   0.54506   0.01267  Uiso   1.00
C8     C     0.70225   0.74077   0.59775   0.01267  Uiso   1.00
C9     C     0.51422   0.74002   0.20070   0.01267  Uiso   1.00
C10    C     0.45923   0.74077   0.20225   0.01267  Uiso   1.00
C11    C     0.04506   0.20070   0.74002   0.01267  Uiso   1.00
C12    C     0.09775   0.20225   0.74077   0.01267  Uiso   1.00
C13    C     0.24002   0.01422   0.54506   0.01267  Uiso   1.00
C14    C     0.24077   0.95923   0.59775   0.01267  Uiso   1.00
C15    C     0.70070   0.54506   0.01422   0.01267  Uiso   1.00
C16    C     0.70225   0.59775   0.95923   0.01267  Uiso   1.00
C17    C     0.51422   0.20070   0.54506   0.01267  Uiso   1.00
C18    C     0.45923   0.20225   0.59775   0.01267  Uiso   1.00
C19    C     0.04506   0.74002   0.01422   0.01267  Uiso   1.00
C20    C     0.09775   0.74077   0.95923   0.01267  Uiso   1.00
C21    C     0.24002   0.54506   0.20070   0.01267  Uiso   1.00
C22    C     0.24077   0.59775   0.20225   0.01267  Uiso   1.00
C23    C     0.70070   0.01422   0.74002   0.01267  Uiso   1.00
C24    C     0.70225   0.95923   0.74077   0.01267  Uiso   1.00
C25    C     0.45494   0.48578   0.75998   0.01267  Uiso   1.00
C26    C     0.40225   0.54077   0.75923   0.01267  Uiso   1.00
C27    C     0.98578   0.95494   0.29930   0.01267  Uiso   1.00
C28    C     0.04077   0.90225   0.29775   0.01267  Uiso   1.00
C29    C     0.79930   0.75998   0.48578   0.01267  Uiso   1.00
C30    C     0.79775   0.75923   0.54077   0.01267  Uiso   1.00
C31    C     0.25998   0.29930   0.95494   0.01267  Uiso   1.00
C32    C     0.25923   0.29775   0.90225   0.01267  Uiso   1.00
C33    C     0.25998   0.48578   0.29930   0.01267  Uiso   1.00
C34    C     0.25923   0.54077   0.29775   0.01267  Uiso   1.00
C35    C     0.79930   0.95494   0.75998   0.01267  Uiso   1.00
C36    C     0.79775   0.90225   0.75923   0.01267  Uiso   1.00
C37    C     0.98578   0.75998   0.95494   0.01267  Uiso   1.00
C38    C     0.04077   0.75923   0.90225   0.01267  Uiso   1.00
C39    C     0.45494   0.29930   0.48578   0.01267  Uiso   1.00
C40    C     0.40225   0.29775   0.54077   0.01267  Uiso   1.00
C41    C     0.79930   0.48578   0.95494   0.01267  Uiso   1.00
C42    C     0.79775   0.54077   0.90225   0.01267  Uiso   1.00
C43    C     0.25998   0.95494   0.48578   0.01267  Uiso   1.00
C44    C     0.25923   0.90225   0.54077   0.01267  Uiso   1.00
C45    C     0.45494   0.75998   0.29930   0.01267  Uiso   1.00
C46    C     0.40225   0.75923   0.29775   0.01267  Uiso   1.00
C47    C     0.98578   0.29930   0.75998   0.01267  Uiso   1.00
C48    C     0.04077   0.29775   0.75923   0.01267  Uiso   1.00
C49    C     0.48578   0.45494   0.25998   0.01267  Uiso   1.00
C50    C     0.54077   0.40225   0.25923   0.01267  Uiso   1.00
C51    C     0.95494   0.98578   0.79930   0.01267  Uiso   1.00
C52    C     0.90225   0.04077   0.79775   0.01267  Uiso   1.00
C53    C     0.75998   0.79930   0.98578   0.01267  Uiso   1.00
C54    C     0.75923   0.79775   0.04077   0.01267  Uiso   1.00
C55    C     0.29930   0.25998   0.45494   0.01267  Uiso   1.00
C56    C     0.29775   0.25923   0.40225   0.01267  Uiso   1.00
C57    C     0.48578   0.25998   0.79930   0.01267  Uiso   1.00
C58    C     0.54077   0.25923   0.79775   0.01267  Uiso   1.00
C59    C     0.95494   0.79930   0.25998   0.01267  Uiso   1.00
C60    C     0.90225   0.79775   0.25923   0.01267  Uiso   1.00
C61    C     0.75998   0.98578   0.45494   0.01267  Uiso   1.00
C62    C     0.75923   0.04077   0.40225   0.01267  Uiso   1.00
C63    C     0.29930   0.45494   0.98578   0.01267  Uiso   1.00
C64    C     0.29775   0.40225   0.04077   0.01267  Uiso   1.00
C65    C     0.48578   0.79930   0.45494   0.01267  Uiso   1.00
C66    C     0.54077   0.79775   0.40225   0.01267  Uiso   1.00
C67    C     0.95494   0.25998   0.98578   0.01267  Uiso   1.00
C68    C     0.90225   0.25923   0.04077   0.01267  Uiso   1.00
C69    C     0.75998   0.45494   0.79930   0.01267  Uiso   1.00
C70    C     0.75923   0.40225   0.79775   0.01267  Uiso   1.00
C71    C     0.29930   0.98578   0.25998   0.01267  Uiso   1.00
C72    C     0.29775   0.04077   0.25923   0.01267  Uiso   1.00
C73    C     0.54506   0.51422   0.24002   0.01267  Uiso   1.00
C74    C     0.59775   0.45923   0.24077   0.01267  Uiso   1.00
C75    C     0.01422   0.04506   0.70070   0.01267  Uiso   1.00
C76    C     0.95923   0.09775   0.70225   0.01267  Uiso   1.00
C77    C     0.20070   0.24002   0.51422   0.01267  Uiso   1.00
C78    C     0.20225   0.24077   0.45923   0.01267  Uiso   1.00
C79    C     0.74002   0.70070   0.04506   0.01267  Uiso   1.00
C80    C     0.74077   0.70225   0.09775   0.01267  Uiso   1.00
C81    C     0.74002   0.51422   0.70070   0.01267  Uiso   1.00
C82    C     0.74077   0.45923   0.70225   0.01267  Uiso   1.00
C83    C     0.20070   0.04506   0.24002   0.01267  Uiso   1.00
C84    C     0.20225   0.09775   0.24077   0.01267  Uiso   1.00
C85    C     0.01422   0.24002   0.04506   0.01267  Uiso   1.00
C86    C     0.95923   0.24077   0.09775   0.01267  Uiso   1.00
C87    C     0.54506   0.70070   0.51422   0.01267  Uiso   1.00
C88    C     0.59775   0.70225   0.45923   0.01267  Uiso   1.00
C89    C     0.20070   0.51422   0.04506   0.01267  Uiso   1.00
C90    C     0.20225   0.45923   0.09775   0.01267  Uiso   1.00
C91    C     0.74002   0.04506   0.51422   0.01267  Uiso   1.00
C92    C     0.74077   0.09775   0.45923   0.01267  Uiso   1.00
C93    C     0.54506   0.24002   0.70070   0.01267  Uiso   1.00
C94    C     0.59775   0.24077   0.70225   0.01267  Uiso   1.00
C95    C     0.01422   0.70070   0.24002   0.01267  Uiso   1.00
C96    C     0.95923   0.70225   0.24077   0.01267  Uiso   1.00
C97    C     0.56912   0.43088   0.75000   0.01267  Uiso   1.00
C98    C     0.51216   0.48784   0.75000   0.01267  Uiso   1.00
C99    C     0.93088   0.06912   0.25000   0.01267  Uiso   1.00
C100   C     0.98784   0.01216   0.25000   0.01267  Uiso   1.00
C101   C     0.25000   0.25000   0.06912   0.01267  Uiso   1.00
C102   C     0.25000   0.25000   0.01216   0.01267  Uiso   1.00
C103   C     0.75000   0.75000   0.43088   0.01267  Uiso   1.00
C104   C     0.75000   0.75000   0.48784   0.01267  Uiso   1.00
C105   C     0.56912   0.75000   0.25000   0.01267  Uiso   1.00
C106   C     0.51216   0.75000   0.25000   0.01267  Uiso   1.00
C107   C     0.93088   0.25000   0.75000   0.01267  Uiso   1.00
C108   C     0.98784   0.25000   0.75000   0.01267  Uiso   1.00
C109   C     0.25000   0.06912   0.43088   0.01267  Uiso   1.00
C110   C     0.25000   0.01216   0.48784   0.01267  Uiso   1.00
C111   C     0.75000   0.43088   0.06912   0.01267  Uiso   1.00
C112   C     0.75000   0.48784   0.01216   0.01267  Uiso   1.00
C113   C     0.56912   0.25000   0.43088   0.01267  Uiso   1.00
C114   C     0.51216   0.25000   0.48784   0.01267  Uiso   1.00
C115   C     0.93088   0.75000   0.06912   0.01267  Uiso   1.00
C116   C     0.98784   0.75000   0.01216   0.01267  Uiso   1.00
C117   C     0.25000   0.43088   0.25000   0.01267  Uiso   1.00
C118   C     0.25000   0.48784   0.25000   0.01267  Uiso   1.00
C119   C     0.75000   0.06912   0.75000   0.01267  Uiso   1.00
C120   C     0.75000   0.01216   0.75000   0.01267  Uiso   1.00
C121   C     0.43088   0.56912   0.25000   0.01267  Uiso   1.00
C122   C     0.48784   0.51216   0.25000   0.01267  Uiso   1.00
C123   C     0.06912   0.93088   0.75000   0.01267  Uiso   1.00
C124   C     0.01216   0.98784   0.75000   0.01267  Uiso   1.00
C125   C     0.75000   0.75000   0.93088   0.01267  Uiso   1.00
C126   C     0.75000   0.75000   0.98784   0.01267  Uiso   1.00
C127   C     0.25000   0.25000   0.56912   0.01267  Uiso   1.00
C128   C     0.25000   0.25000   0.51216   0.01267  Uiso   1.00
C129   C     0.43088   0.25000   0.75000   0.01267  Uiso   1.00
C130   C     0.48784   0.25000   0.75000   0.01267  Uiso   1.00
C131   C     0.06912   0.75000   0.25000   0.01267  Uiso   1.00
C132   C     0.01216   0.75000   0.25000   0.01267  Uiso   1.00
C133   C     0.75000   0.93088   0.56912   0.01267  Uiso   1.00
C134   C     0.75000   0.98784   0.51216   0.01267  Uiso   1.00
C135   C     0.25000   0.56912   0.93088   0.01267  Uiso   1.00
C136   C     0.25000   0.51216   0.98784   0.01267  Uiso   1.00
C137   C     0.43088   0.75000   0.56912   0.01267  Uiso   1.00
C138   C     0.48784   0.75000   0.51216   0.01267  Uiso   1.00
C139   C     0.06912   0.25000   0.93088   0.01267  Uiso   1.00
C140   C     0.01216   0.25000   0.98784   0.01267  Uiso   1.00
C141   C     0.75000   0.56912   0.75000   0.01267  Uiso   1.00
C142   C     0.75000   0.51216   0.75000   0.01267  Uiso   1.00
C143   C     0.25000   0.93088   0.25000   0.01267  Uiso   1.00
C144   C     0.25000   0.98784   0.25000   0.01267  Uiso   1.00
N1     N     0.63182   0.33938   0.74886   0.01267  Uiso   1.00
N2     N     0.57347   0.37799   0.74821   0.01267  Uiso   1.00
N3     N     0.83938   0.13182   0.27994   0.01267  Uiso   1.00
N4     N     0.87799   0.07347   0.30033   0.01267  Uiso   1.00
N5     N     0.24886   0.27994   0.13182   0.01267  Uiso   1.00
N6     N     0.24821   0.30033   0.07347   0.01267  Uiso   1.00
N7     N     0.77994   0.74886   0.33938   0.01267  Uiso   1.00
N8     N     0.80033   0.74821   0.37799   0.01267  Uiso   1.00
N9     N     0.63182   0.74886   0.27994   0.01267  Uiso   1.00
N10    N     0.57347   0.74821   0.30033   0.01267  Uiso   1.00
N11    N     0.83938   0.27994   0.74886   0.01267  Uiso   1.00
N12    N     0.87799   0.30033   0.74821   0.01267  Uiso   1.00
N13    N     0.24886   0.13182   0.33938   0.01267  Uiso   1.00
N14    N     0.24821   0.07347   0.37799   0.01267  Uiso   1.00
N15    N     0.77994   0.33938   0.13182   0.01267  Uiso   1.00
N16    N     0.80033   0.37799   0.07347   0.01267  Uiso   1.00
N17    N     0.63182   0.27994   0.33938   0.01267  Uiso   1.00
N18    N     0.57347   0.30033   0.37799   0.01267  Uiso   1.00
N19    N     0.83938   0.74886   0.13182   0.01267  Uiso   1.00
N20    N     0.87799   0.74821   0.07347   0.01267  Uiso   1.00
N21    N     0.24886   0.33938   0.27994   0.01267  Uiso   1.00
N22    N     0.24821   0.37799   0.30033   0.01267  Uiso   1.00
N23    N     0.77994   0.13182   0.74886   0.01267  Uiso   1.00
N24    N     0.80033   0.07347   0.74821   0.01267  Uiso   1.00
N25    N     0.66062   0.36818   0.75114   0.01267  Uiso   1.00
N26    N     0.62201   0.42653   0.75179   0.01267  Uiso   1.00
N27    N     0.86818   0.16062   0.22006   0.01267  Uiso   1.00
N28    N     0.92653   0.12201   0.19967   0.01267  Uiso   1.00
N29    N     0.72006   0.75114   0.36818   0.01267  Uiso   1.00
N30    N     0.69967   0.75179   0.42653   0.01267  Uiso   1.00
N31    N     0.25114   0.22006   0.16062   0.01267  Uiso   1.00
N32    N     0.25179   0.19967   0.12201   0.01267  Uiso   1.00
N33    N     0.25114   0.36818   0.22006   0.01267  Uiso   1.00
N34    N     0.25179   0.42653   0.19967   0.01267  Uiso   1.00
N35    N     0.72006   0.16062   0.75114   0.01267  Uiso   1.00
N36    N     0.69967   0.12201   0.75179   0.01267  Uiso   1.00
N37    N     0.86818   0.75114   0.16062   0.01267  Uiso   1.00
N38    N     0.92653   0.75179   0.12201   0.01267  Uiso   1.00
N39    N     0.66062   0.22006   0.36818   0.01267  Uiso   1.00
N40    N     0.62201   0.19967   0.42653   0.01267  Uiso   1.00
N41    N     0.72006   0.36818   0.16062   0.01267  Uiso   1.00
N42    N     0.69967   0.42653   0.12201   0.01267  Uiso   1.00
N43    N     0.25114   0.16062   0.36818   0.01267  Uiso   1.00
N44    N     0.25179   0.12201   0.42653   0.01267  Uiso   1.00
N45    N     0.66062   0.75114   0.22006   0.01267  Uiso   1.00
N46    N     0.62201   0.75179   0.19967   0.01267  Uiso   1.00
N47    N     0.86818   0.22006   0.75114   0.01267  Uiso   1.00
N48    N     0.92653   0.19967   0.75179   0.01267  Uiso   1.00
N49    N     0.36818   0.66062   0.25114   0.01267  Uiso   1.00
N50    N     0.42653   0.62201   0.25179   0.01267  Uiso   1.00
N51    N     0.16062   0.86818   0.72006   0.01267  Uiso   1.00
N52    N     0.12201   0.92653   0.69967   0.01267  Uiso   1.00
N53    N     0.75114   0.72006   0.86818   0.01267  Uiso   1.00
N54    N     0.75179   0.69967   0.92653   0.01267  Uiso   1.00
N55    N     0.22006   0.25114   0.66062   0.01267  Uiso   1.00
N56    N     0.19967   0.25179   0.62201   0.01267  Uiso   1.00
N57    N     0.36818   0.25114   0.72006   0.01267  Uiso   1.00
N58    N     0.42653   0.25179   0.69967   0.01267  Uiso   1.00
N59    N     0.16062   0.72006   0.25114   0.01267  Uiso   1.00
N60    N     0.12201   0.69967   0.25179   0.01267  Uiso   1.00
N61    N     0.75114   0.86818   0.66062   0.01267  Uiso   1.00
N62    N     0.75179   0.92653   0.62201   0.01267  Uiso   1.00
N63    N     0.22006   0.66062   0.86818   0.01267  Uiso   1.00
N64    N     0.19967   0.62201   0.92653   0.01267  Uiso   1.00
N65    N     0.36818   0.72006   0.66062   0.01267  Uiso   1.00
N66    N     0.42653   0.69967   0.62201   0.01267  Uiso   1.00
N67    N     0.16062   0.25114   0.86818   0.01267  Uiso   1.00
N68    N     0.12201   0.25179   0.92653   0.01267  Uiso   1.00
N69    N     0.75114   0.66062   0.72006   0.01267  Uiso   1.00
N70    N     0.75179   0.62201   0.69967   0.01267  Uiso   1.00
N71    N     0.22006   0.86818   0.25114   0.01267  Uiso   1.00
N72    N     0.19967   0.92653   0.25179   0.01267  Uiso   1.00
N73    N     0.33938   0.63182   0.24886   0.01267  Uiso   1.00
N74    N     0.37799   0.57347   0.24821   0.01267  Uiso   1.00
N75    N     0.13182   0.83938   0.77994   0.01267  Uiso   1.00
N76    N     0.07347   0.87799   0.80033   0.01267  Uiso   1.00
N77    N     0.27994   0.24886   0.63182   0.01267  Uiso   1.00
N78    N     0.30033   0.24821   0.57347   0.01267  Uiso   1.00
N79    N     0.74886   0.77994   0.83938   0.01267  Uiso   1.00
N80    N     0.74821   0.80033   0.87799   0.01267  Uiso   1.00
N81    N     0.74886   0.63182   0.77994   0.01267  Uiso   1.00
N82    N     0.74821   0.57347   0.80033   0.01267  Uiso   1.00
N83    N     0.27994   0.83938   0.24886   0.01267  Uiso   1.00
N84    N     0.30033   0.87799   0.24821   0.01267  Uiso   1.00
N85    N     0.13182   0.24886   0.83938   0.01267  Uiso   1.00
N86    N     0.07347   0.24821   0.87799   0.01267  Uiso   1.00
N87    N     0.33938   0.77994   0.63182   0.01267  Uiso   1.00
N88    N     0.37799   0.80033   0.57347   0.01267  Uiso   1.00
N89    N     0.27994   0.63182   0.83938   0.01267  Uiso   1.00
N90    N     0.30033   0.57347   0.87799   0.01267  Uiso   1.00
N91    N     0.74886   0.83938   0.63182   0.01267  Uiso   1.00
N92    N     0.74821   0.87799   0.57347   0.01267  Uiso   1.00
N93    N     0.33938   0.24886   0.77994   0.01267  Uiso   1.00
N94    N     0.37799   0.24821   0.80033   0.01267  Uiso   1.00
N95    N     0.13182   0.77994   0.24886   0.01267  Uiso   1.00
N96    N     0.07347   0.80033   0.24821   0.01267  Uiso   1.00
N97    N     0.40472   0.59528   0.75000   0.01267  Uiso   1.00
N98    N     0.09528   0.90472   0.25000   0.01267  Uiso   1.00
N99    N     0.25000   0.25000   0.90472   0.01267  Uiso   1.00
N100   N     0.75000   0.75000   0.59528   0.01267  Uiso   1.00
N101   N     0.40472   0.75000   0.25000   0.01267  Uiso   1.00
N102   N     0.09528   0.25000   0.75000   0.01267  Uiso   1.00
N103   N     0.25000   0.90472   0.59528   0.01267  Uiso   1.00
N104   N     0.75000   0.59528   0.90472   0.01267  Uiso   1.00
N105   N     0.40472   0.25000   0.59528   0.01267  Uiso   1.00
N106   N     0.09528   0.75000   0.90472   0.01267  Uiso   1.00
N107   N     0.25000   0.59528   0.25000   0.01267  Uiso   1.00
N108   N     0.75000   0.90472   0.75000   0.01267  Uiso   1.00
N109   N     0.59528   0.40472   0.25000   0.01267  Uiso   1.00
N110   N     0.90472   0.09528   0.75000   0.01267  Uiso   1.00
N111   N     0.75000   0.75000   0.09528   0.01267  Uiso   1.00
N112   N     0.25000   0.25000   0.40472   0.01267  Uiso   1.00
N113   N     0.59528   0.25000   0.75000   0.01267  Uiso   1.00
N114   N     0.90472   0.75000   0.25000   0.01267  Uiso   1.00
N115   N     0.75000   0.09528   0.40472   0.01267  Uiso   1.00
N116   N     0.25000   0.40472   0.09528   0.01267  Uiso   1.00
N117   N     0.59528   0.75000   0.40472   0.01267  Uiso   1.00
N118   N     0.90472   0.25000   0.09528   0.01267  Uiso   1.00
N119   N     0.75000   0.40472   0.75000   0.01267  Uiso   1.00
N120   N     0.25000   0.09528   0.25000   0.01267  Uiso   1.00
O1     O     0.75000   0.25000   0.75000   0.01267  Uiso   1.00
O2     O     0.75000   0.25000   0.25000   0.01267  Uiso   1.00
O3     O     0.25000   0.25000   0.25000   0.01267  Uiso   1.00
O4     O     0.75000   0.75000   0.25000   0.01267  Uiso   1.00
O5     O     0.25000   0.75000   0.25000   0.01267  Uiso   1.00
O6     O     0.25000   0.75000   0.75000   0.01267  Uiso   1.00
O7     O     0.75000   0.75000   0.75000   0.01267  Uiso   1.00
O8     O     0.25000   0.25000   0.75000   0.01267  Uiso   1.00
