data_image0
_cell_length_a       10.1
_cell_length_b       30.1381
_cell_length_c       12.6679
_cell_angle_alpha    90
_cell_angle_beta     126.597
_cell_angle_gamma    90

_symmetry_space_group_name_H-M    "P 1"
_symmetry_int_tables_number       1

loop_
  _symmetry_equiv_pos_as_xyz
  'x, y, z'

loop_
  _atom_site_label
  _atom_site_occupancy
  _atom_site_fract_x
  _atom_site_fract_y
  _atom_site_fract_z
  _atom_site_thermal_displace_type
  _atom_site_B_iso_or_equiv
  _atom_site_type_symbol
  Cd1      1.0000 0.12821  0.30677  0.07976  Biso   1.000  Cd
  Cd2      1.0000 0.96967  0.40848  0.89017  Biso   1.000  Cd
  C1       1.0000 0.38140  0.34458  0.90830  Biso   1.000  C
  C2       1.0000 0.38790  0.37355  0.82980  Biso   1.000  C
  H1       1.0000 0.30220  0.39270  0.77170  Biso   1.000  H
  C3       1.0000 0.53710  0.37168  0.84500  Biso   1.000  C
  H2       1.0000 0.56040  0.38930  0.79760  Biso   1.000  H
  C4       1.0000 0.64370  0.34153  0.93610  Biso   1.000  C
  C5       1.0000 0.24620  0.33762  0.92180  Biso   1.000  C
  C6       1.0000 0.81170  0.33012  0.98140  Biso   1.000  C
  C7       1.0000 0.51130  0.43335  0.53630  Biso   1.000  C
  C8       1.0000 0.37870  0.45747  0.50330  Biso   1.000  C
  H3       1.0000 0.37720  0.47500  0.56300  Biso   1.000  H
  C9       1.0000 0.24390  0.45357  0.37050  Biso   1.000  C
  H4       1.0000 0.14420  0.46830  0.33270  Biso   1.000  H
  C10      1.0000 0.27530  0.42590  0.30350  Biso   1.000  C
  C11      1.0000 0.67530  0.42806  0.66360  Biso   1.000  C
  C12      1.0000 0.16770  0.41320  0.16290  Biso   1.000  C
  C13      1.0000 0.04380  0.20475  0.08900  Biso   1.000  C
  H5       1.0000 0.07640  0.21430  0.17110  Biso   1.000  H
  C14      1.0000 0.98550  0.16219  0.05140  Biso   1.000  C
  H6       1.0000 0.97760  0.14410  0.10700  Biso   1.000  H
  C15      1.0000 0.93890  0.14634  0.93280  Biso   1.000  C
  C16      1.0000 0.95410  0.17521  0.85540  Biso   1.000  C
  H7       1.0000 0.92530  0.16590  0.77420  Biso   1.000  H
  C17      1.0000 0.01160  0.21750  0.89850  Biso   1.000  C
  H8       1.0000 0.01980  0.23630  0.84440  Biso   1.000  H
  C18      1.0000 0.86890  0.10036  0.88510  Biso   1.000  C
  H9       1.0000 0.94670  0.08280  0.88160  Biso   1.000  H
  H10      1.0000 0.85720  0.08650  0.94830  Biso   1.000  H
  C19      1.0000 0.70510  0.09952  0.75230  Biso   1.000  C
  H11      1.0000 0.71950  0.11110  0.68830  Biso   1.000  H
  H12      1.0000 0.63070  0.11940  0.75400  Biso   1.000  H
  C20      1.0000 0.62440  0.05431  0.70650  Biso   1.000  C
  H13      1.0000 0.61610  0.04170  0.77280  Biso   1.000  H
  H14      1.0000 0.51330  0.05790  0.62650  Biso   1.000  H
  C21      1.0000 0.71730  0.02229  0.68050  Biso   1.000  C
  C22      1.0000 0.81750  0.98993  0.77110  Biso   1.000  C
  H15      1.0000 0.82910  0.98750  0.84940  Biso   1.000  H
  C23      1.0000 0.89960  0.96157  0.74410  Biso   1.000  C
  H16      1.0000 0.96570  0.93970  0.80550  Biso   1.000  H
  C24      1.0000 0.79610  0.99529  0.54970  Biso   1.000  C
  H17      1.0000 0.78910  0.99790  0.47340  Biso   1.000  H
  C25      1.0000 0.70850  0.02465  0.56940  Biso   1.000  C
  H18      1.0000 0.64300  0.04620  0.50650  Biso   1.000  H
  O1       1.0000 0.27400  0.30776  0.00270  Biso   1.000  O
  O2       1.0000 0.12040  0.36053  0.85340  Biso   1.000  O
  O3       1.0000 0.90050  0.30746  0.08200  Biso   1.000  O
  O4       1.0000 0.86090  0.34337  0.91490  Biso   1.000  O
  O5       1.0000 0.77920  0.40514  0.66360  Biso   1.000  O
  O6       1.0000 0.70170  0.44528  0.76380  Biso   1.000  O
  O7       1.0000 0.21390  0.38166  0.12670  Biso   1.000  O
  O8       1.0000 0.03920  0.43480  0.08540  Biso   1.000  O
  N1       1.0000 0.05650  0.23317  0.01490  Biso   1.000  N
  N2       1.0000 0.89000  0.96350  0.63450  Biso   1.000  N
  S1       1.0000 0.56018  0.31498  0.00382  Biso   1.000  S
  S2       1.0000 0.47021  0.40497  0.40272  Biso   1.000  S
  Cd3      1.0000 0.87179  0.80677  0.42024  Biso   1.000  Cd
  Cd4      1.0000 0.03033  0.90848  0.60983  Biso   1.000  Cd
  C26      1.0000 0.61860  0.84458  0.59170  Biso   1.000  C
  C27      1.0000 0.61210  0.87355  0.67020  Biso   1.000  C
  H19      1.0000 0.69780  0.89270  0.72830  Biso   1.000  H
  C28      1.0000 0.46290  0.87168  0.65500  Biso   1.000  C
  H20      1.0000 0.43960  0.88930  0.70240  Biso   1.000  H
  C29      1.0000 0.35630  0.84153  0.56390  Biso   1.000  C
  C30      1.0000 0.75380  0.83762  0.57820  Biso   1.000  C
  C31      1.0000 0.18830  0.83012  0.51860  Biso   1.000  C
  C32      1.0000 0.48870  0.93335  0.96370  Biso   1.000  C
  C33      1.0000 0.62130  0.95747  0.99670  Biso   1.000  C
  H21      1.0000 0.62280  0.97500  0.93700  Biso   1.000  H
  C34      1.0000 0.75610  0.95357  0.12950  Biso   1.000  C
  H22      1.0000 0.85580  0.96830  0.16730  Biso   1.000  H
  C35      1.0000 0.72470  0.92590  0.19650  Biso   1.000  C
  C36      1.0000 0.32470  0.92806  0.83640  Biso   1.000  C
  C37      1.0000 0.83230  0.91320  0.33710  Biso   1.000  C
  C38      1.0000 0.95620  0.70475  0.41100  Biso   1.000  C
  H23      1.0000 0.92360  0.71430  0.32890  Biso   1.000  H
  C39      1.0000 0.01450  0.66219  0.44860  Biso   1.000  C
  H24      1.0000 0.02240  0.64410  0.39300  Biso   1.000  H
  C40      1.0000 0.06110  0.64634  0.56720  Biso   1.000  C
  C41      1.0000 0.04590  0.67521  0.64460  Biso   1.000  C
  H25      1.0000 0.07470  0.66590  0.72580  Biso   1.000  H
  C42      1.0000 0.98840  0.71750  0.60150  Biso   1.000  C
  H26      1.0000 0.98020  0.73630  0.65560  Biso   1.000  H
  C43      1.0000 0.13110  0.60036  0.61490  Biso   1.000  C
  H27      1.0000 0.05330  0.58280  0.61840  Biso   1.000  H
  H28      1.0000 0.14280  0.58650  0.55170  Biso   1.000  H
  C44      1.0000 0.29490  0.59952  0.74770  Biso   1.000  C
  H29      1.0000 0.28050  0.61110  0.81170  Biso   1.000  H
  H30      1.0000 0.36930  0.61940  0.74600  Biso   1.000  H
  C45      1.0000 0.37560  0.55431  0.79350  Biso   1.000  C
  H31      1.0000 0.38390  0.54170  0.72720  Biso   1.000  H
  H32      1.0000 0.48670  0.55790  0.87350  Biso   1.000  H
  C46      1.0000 0.28270  0.52229  0.81950  Biso   1.000  C
  C47      1.0000 0.18250  0.48993  0.72890  Biso   1.000  C
  H33      1.0000 0.17090  0.48750  0.65060  Biso   1.000  H
  C48      1.0000 0.10040  0.46157  0.75590  Biso   1.000  C
  H34      1.0000 0.03430  0.43970  0.69450  Biso   1.000  H
  C49      1.0000 0.20390  0.49529  0.95030  Biso   1.000  C
  H35      1.0000 0.21090  0.49790  0.02660  Biso   1.000  H
  C50      1.0000 0.29150  0.52465  0.93060  Biso   1.000  C
  H36      1.0000 0.35700  0.54620  0.99350  Biso   1.000  H
  O9       1.0000 0.72600  0.80776  0.49730  Biso   1.000  O
  O10      1.0000 0.87960  0.86053  0.64660  Biso   1.000  O
  O11      1.0000 0.09950  0.80746  0.41800  Biso   1.000  O
  O12      1.0000 0.13910  0.84337  0.58510  Biso   1.000  O
  O13      1.0000 0.22080  0.90514  0.83640  Biso   1.000  O
  O14      1.0000 0.29830  0.94528  0.73620  Biso   1.000  O
  O15      1.0000 0.78610  0.88166  0.37330  Biso   1.000  O
  O16      1.0000 0.96080  0.93480  0.41460  Biso   1.000  O
  N3       1.0000 0.94350  0.73317  0.48510  Biso   1.000  N
  N4       1.0000 0.11000  0.46350  0.86550  Biso   1.000  N
  S3       1.0000 0.43982  0.81498  0.49618  Biso   1.000  S
  S4       1.0000 0.52979  0.90497  0.09728  Biso   1.000  S
  Cd5      1.0000 0.87179  0.69323  0.92024  Biso   1.000  Cd
  Cd6      1.0000 0.03033  0.59152  0.10983  Biso   1.000  Cd
  C51      1.0000 0.61860  0.65542  0.09170  Biso   1.000  C
  C52      1.0000 0.61210  0.62645  0.17020  Biso   1.000  C
  H37      1.0000 0.69780  0.60730  0.22830  Biso   1.000  H
  C53      1.0000 0.46290  0.62832  0.15500  Biso   1.000  C
  H38      1.0000 0.43960  0.61070  0.20240  Biso   1.000  H
  C54      1.0000 0.35630  0.65847  0.06390  Biso   1.000  C
  C55      1.0000 0.75380  0.66238  0.07820  Biso   1.000  C
  C56      1.0000 0.18830  0.66988  0.01860  Biso   1.000  C
  C57      1.0000 0.48870  0.56665  0.46370  Biso   1.000  C
  C58      1.0000 0.62130  0.54253  0.49670  Biso   1.000  C
  H39      1.0000 0.62280  0.52500  0.43700  Biso   1.000  H
  C59      1.0000 0.75610  0.54643  0.62950  Biso   1.000  C
  H40      1.0000 0.85580  0.53170  0.66730  Biso   1.000  H
  C60      1.0000 0.72470  0.57410  0.69650  Biso   1.000  C
  C61      1.0000 0.32470  0.57194  0.33640  Biso   1.000  C
  C62      1.0000 0.83230  0.58680  0.83710  Biso   1.000  C
  C63      1.0000 0.95620  0.79525  0.91100  Biso   1.000  C
  H41      1.0000 0.92360  0.78570  0.82890  Biso   1.000  H
  C64      1.0000 0.01450  0.83781  0.94860  Biso   1.000  C
  H42      1.0000 0.02240  0.85590  0.89300  Biso   1.000  H
  C65      1.0000 0.06110  0.85366  0.06720  Biso   1.000  C
  C66      1.0000 0.04590  0.82479  0.14460  Biso   1.000  C
  H43      1.0000 0.07470  0.83410  0.22580  Biso   1.000  H
  C67      1.0000 0.98840  0.78250  0.10150  Biso   1.000  C
  H44      1.0000 0.98020  0.76370  0.15560  Biso   1.000  H
  C68      1.0000 0.13110  0.89964  0.11490  Biso   1.000  C
  H45      1.0000 0.05330  0.91720  0.11840  Biso   1.000  H
  H46      1.0000 0.14280  0.91350  0.05170  Biso   1.000  H
  C69      1.0000 0.29490  0.90048  0.24770  Biso   1.000  C
  H47      1.0000 0.28050  0.88890  0.31170  Biso   1.000  H
  H48      1.0000 0.36930  0.88060  0.24600  Biso   1.000  H
  C70      1.0000 0.37560  0.94569  0.29350  Biso   1.000  C
  H49      1.0000 0.38390  0.95830  0.22720  Biso   1.000  H
  H50      1.0000 0.48670  0.94210  0.37350  Biso   1.000  H
  C71      1.0000 0.28270  0.97771  0.31950  Biso   1.000  C
  C72      1.0000 0.18250  0.01007  0.22890  Biso   1.000  C
  H51      1.0000 0.17090  0.01250  0.15060  Biso   1.000  H
  C73      1.0000 0.10040  0.03843  0.25590  Biso   1.000  C
  H52      1.0000 0.03430  0.06030  0.19450  Biso   1.000  H
  C74      1.0000 0.20390  0.00471  0.45030  Biso   1.000  C
  H53      1.0000 0.21090  0.00210  0.52660  Biso   1.000  H
  C75      1.0000 0.29150  0.97535  0.43060  Biso   1.000  C
  H54      1.0000 0.35700  0.95380  0.49350  Biso   1.000  H
  O17      1.0000 0.72600  0.69224  0.99730  Biso   1.000  O
  O18      1.0000 0.87960  0.63947  0.14660  Biso   1.000  O
  O19      1.0000 0.09950  0.69254  0.91800  Biso   1.000  O
  O20      1.0000 0.13910  0.65663  0.08510  Biso   1.000  O
  O21      1.0000 0.22080  0.59486  0.33640  Biso   1.000  O
  O22      1.0000 0.29830  0.55472  0.23620  Biso   1.000  O
  O23      1.0000 0.78610  0.61834  0.87330  Biso   1.000  O
  O24      1.0000 0.96080  0.56520  0.91460  Biso   1.000  O
  N5       1.0000 0.94350  0.76683  0.98510  Biso   1.000  N
  N6       1.0000 0.11000  0.03650  0.36550  Biso   1.000  N
  S5       1.0000 0.43982  0.68502  0.99618  Biso   1.000  S
  S6       1.0000 0.52979  0.59503  0.59728  Biso   1.000  S
  Cd7      1.0000 0.12821  0.19323  0.57976  Biso   1.000  Cd
  Cd8      1.0000 0.96967  0.09152  0.39017  Biso   1.000  Cd
  C76      1.0000 0.38140  0.15542  0.40830  Biso   1.000  C
  C77      1.0000 0.38790  0.12645  0.32980  Biso   1.000  C
  H55      1.0000 0.30220  0.10730  0.27170  Biso   1.000  H
  C78      1.0000 0.53710  0.12832  0.34500  Biso   1.000  C
  H56      1.0000 0.56040  0.11070  0.29760  Biso   1.000  H
  C79      1.0000 0.64370  0.15847  0.43610  Biso   1.000  C
  C80      1.0000 0.24620  0.16238  0.42180  Biso   1.000  C
  C81      1.0000 0.81170  0.16988  0.48140  Biso   1.000  C
  C82      1.0000 0.51130  0.06665  0.03630  Biso   1.000  C
  C83      1.0000 0.37870  0.04253  0.00330  Biso   1.000  C
  H57      1.0000 0.37720  0.02500  0.06300  Biso   1.000  H
  C84      1.0000 0.24390  0.04643  0.87050  Biso   1.000  C
  H58      1.0000 0.14420  0.03170  0.83270  Biso   1.000  H
  C85      1.0000 0.27530  0.07410  0.80350  Biso   1.000  C
  C86      1.0000 0.67530  0.07194  0.16360  Biso   1.000  C
  C87      1.0000 0.16770  0.08680  0.66290  Biso   1.000  C
  C88      1.0000 0.04380  0.29525  0.58900  Biso   1.000  C
  H59      1.0000 0.07640  0.28570  0.67110  Biso   1.000  H
  C89      1.0000 0.98550  0.33781  0.55140  Biso   1.000  C
  H60      1.0000 0.97760  0.35590  0.60700  Biso   1.000  H
  C90      1.0000 0.93890  0.35366  0.43280  Biso   1.000  C
  C91      1.0000 0.95410  0.32479  0.35540  Biso   1.000  C
  H61      1.0000 0.92530  0.33410  0.27420  Biso   1.000  H
  C92      1.0000 0.01160  0.28250  0.39850  Biso   1.000  C
  H62      1.0000 0.01980  0.26370  0.34440  Biso   1.000  H
  C93      1.0000 0.86890  0.39964  0.38510  Biso   1.000  C
  H63      1.0000 0.94670  0.41720  0.38160  Biso   1.000  H
  H64      1.0000 0.85720  0.41350  0.44830  Biso   1.000  H
  C94      1.0000 0.70510  0.40048  0.25230  Biso   1.000  C
  H65      1.0000 0.71950  0.38890  0.18830  Biso   1.000  H
  H66      1.0000 0.63070  0.38060  0.25400  Biso   1.000  H
  C95      1.0000 0.62440  0.44569  0.20650  Biso   1.000  C
  H67      1.0000 0.61610  0.45830  0.27280  Biso   1.000  H
  H68      1.0000 0.51330  0.44210  0.12650  Biso   1.000  H
  C96      1.0000 0.71730  0.47771  0.18050  Biso   1.000  C
  C97      1.0000 0.81750  0.51007  0.27110  Biso   1.000  C
  H69      1.0000 0.82910  0.51250  0.34940  Biso   1.000  H
  C98      1.0000 0.89960  0.53843  0.24410  Biso   1.000  C
  H70      1.0000 0.96570  0.56030  0.30550  Biso   1.000  H
  C99      1.0000 0.79610  0.50471  0.04970  Biso   1.000  C
  H71      1.0000 0.78910  0.50210  0.97340  Biso   1.000  H
  C100     1.0000 0.70850  0.47535  0.06940  Biso   1.000  C
  H72      1.0000 0.64300  0.45380  0.00650  Biso   1.000  H
  O25      1.0000 0.27400  0.19224  0.50270  Biso   1.000  O
  O26      1.0000 0.12040  0.13947  0.35340  Biso   1.000  O
  O27      1.0000 0.90050  0.19254  0.58200  Biso   1.000  O
  O28      1.0000 0.86090  0.15663  0.41490  Biso   1.000  O
  O29      1.0000 0.77920  0.09486  0.16360  Biso   1.000  O
  O30      1.0000 0.70170  0.05472  0.26380  Biso   1.000  O
  O31      1.0000 0.21390  0.11834  0.62670  Biso   1.000  O
  O32      1.0000 0.03920  0.06520  0.58540  Biso   1.000  O
  N7       1.0000 0.05650  0.26683  0.51490  Biso   1.000  N
  N8       1.0000 0.89000  0.53650  0.13450  Biso   1.000  N
  S7       1.0000 0.56018  0.18502  0.50382  Biso   1.000  S
  S8       1.0000 0.47021  0.09503  0.90272  Biso   1.000  S
