data_image0
_cell_length_a       34.6711
_cell_length_b       34.6711
_cell_length_c       8.4273
_cell_angle_alpha    90
_cell_angle_beta     90
_cell_angle_gamma    120

_symmetry_space_group_name_H-M    "P 1"
_symmetry_int_tables_number       1

loop_
  _symmetry_equiv_pos_as_xyz
  'x, y, z'

loop_
  _atom_site_label
  _atom_site_occupancy
  _atom_site_fract_x
  _atom_site_fract_y
  _atom_site_fract_z
  _atom_site_thermal_displace_type
  _atom_site_B_iso_or_equiv
  _atom_site_type_symbol
  Ag1      1.0000 0.14648  0.31740  0.50825  Biso   1.000  Ag
  O1       1.0000 0.33431  0.32790  0.75380  Biso   1.000  O
  N1       1.0000 0.20503  0.33641  0.65900  Biso   1.000  N
  N2       1.0000 0.27698  0.19613  0.60700  Biso   1.000  N
  C1       1.0000 0.21861  0.37150  0.75730  Biso   1.000  C
  H1       1.0000 0.20180  0.38630  0.76190  Biso   1.000  H
  C2       1.0000 0.25614  0.38686  0.85200  Biso   1.000  C
  H2       1.0000 0.26470  0.41160  0.92020  Biso   1.000  H
  C3       1.0000 0.28093  0.36583  0.84620  Biso   1.000  C
  H3       1.0000 0.30720  0.37630  0.90830  Biso   1.000  H
  C4       1.0000 0.26676  0.32891  0.74760  Biso   1.000  C
  C5       1.0000 0.22857  0.31526  0.65580  Biso   1.000  C
  H4       1.0000 0.21890  0.29010  0.58850  Biso   1.000  H
  C6       1.0000 0.29405  0.30658  0.73770  Biso   1.000  C
  C7       1.0000 0.27114  0.25732  0.71240  Biso   1.000  C
  C8       1.0000 0.23044  0.22813  0.78130  Biso   1.000  C
  H5       1.0000 0.21440  0.23900  0.83970  Biso   1.000  H
  C9       1.0000 0.21370  0.18281  0.76290  Biso   1.000  C
  H6       1.0000 0.18610  0.16200  0.81010  Biso   1.000  H
  C10      1.0000 0.23748  0.16826  0.67530  Biso   1.000  C
  H7       1.0000 0.22550  0.13710  0.66230  Biso   1.000  H
  C11      1.0000 0.29334  0.23987  0.62690  Biso   1.000  C
  H8       1.0000 0.32130  0.25990  0.58070  Biso   1.000  H
  Ag2      1.0000 0.68260  0.82907  0.50825  Biso   1.000  Ag
  O2       1.0000 0.67210  0.00641  0.75380  Biso   1.000  O
  N3       1.0000 0.66359  0.86862  0.65900  Biso   1.000  N
  N4       1.0000 0.80387  0.08085  0.60700  Biso   1.000  N
  C12      1.0000 0.62850  0.84711  0.75730  Biso   1.000  C
  H9       1.0000 0.61370  0.81550  0.76190  Biso   1.000  H
  C13      1.0000 0.61314  0.86928  0.85200  Biso   1.000  C
  H10      1.0000 0.58840  0.85310  0.92020  Biso   1.000  H
  C14      1.0000 0.63417  0.91510  0.84620  Biso   1.000  C
  H11      1.0000 0.62370  0.93090  0.90830  Biso   1.000  H
  C15      1.0000 0.67109  0.93785  0.74760  Biso   1.000  C
  C16      1.0000 0.68474  0.91331  0.65580  Biso   1.000  C
  H12      1.0000 0.70990  0.92880  0.58850  Biso   1.000  H
  C17      1.0000 0.69342  0.98747  0.73770  Biso   1.000  C
  C18      1.0000 0.74268  0.01382  0.71240  Biso   1.000  C
  C19      1.0000 0.77187  0.00231  0.78130  Biso   1.000  C
  H13      1.0000 0.76100  0.97540  0.83970  Biso   1.000  H
  C20      1.0000 0.81719  0.03089  0.76290  Biso   1.000  C
  H14      1.0000 0.83800  0.02410  0.81010  Biso   1.000  H
  C21      1.0000 0.83174  0.06922  0.67530  Biso   1.000  C
  H15      1.0000 0.86290  0.08840  0.66230  Biso   1.000  H
  C22      1.0000 0.76013  0.05347  0.62690  Biso   1.000  C
  H16      1.0000 0.74010  0.06140  0.58070  Biso   1.000  H
  Ag3      1.0000 0.17093  0.85352  0.50825  Biso   1.000  Ag
  O3       1.0000 0.99359  0.66569  0.75380  Biso   1.000  O
  N5       1.0000 0.13138  0.79497  0.65900  Biso   1.000  N
  N6       1.0000 0.91915  0.72302  0.60700  Biso   1.000  N
  C23      1.0000 0.15289  0.78139  0.75730  Biso   1.000  C
  H17      1.0000 0.18450  0.79820  0.76190  Biso   1.000  H
  C24      1.0000 0.13072  0.74386  0.85200  Biso   1.000  C
  H18      1.0000 0.14690  0.73530  0.92020  Biso   1.000  H
  C25      1.0000 0.08490  0.71907  0.84620  Biso   1.000  C
  H19      1.0000 0.06910  0.69280  0.90830  Biso   1.000  H
  C26      1.0000 0.06215  0.73324  0.74760  Biso   1.000  C
  C27      1.0000 0.08669  0.77143  0.65580  Biso   1.000  C
  H20      1.0000 0.07120  0.78110  0.58850  Biso   1.000  H
  C28      1.0000 0.01253  0.70595  0.73770  Biso   1.000  C
  C29      1.0000 0.98618  0.72886  0.71240  Biso   1.000  C
  C30      1.0000 0.99769  0.76956  0.78130  Biso   1.000  C
  H21      1.0000 0.02460  0.78560  0.83970  Biso   1.000  H
  C31      1.0000 0.96911  0.78630  0.76290  Biso   1.000  C
  H22      1.0000 0.97590  0.81390  0.81010  Biso   1.000  H
  C32      1.0000 0.93078  0.76252  0.67530  Biso   1.000  C
  H23      1.0000 0.91160  0.77450  0.66230  Biso   1.000  H
  C33      1.0000 0.94653  0.70666  0.62690  Biso   1.000  C
  H24      1.0000 0.93860  0.67870  0.58070  Biso   1.000  H
  Ag4      1.0000 0.85352  0.68260  0.49175  Biso   1.000  Ag
  O4       1.0000 0.66569  0.67210  0.24620  Biso   1.000  O
  N7       1.0000 0.79497  0.66359  0.34100  Biso   1.000  N
  N8       1.0000 0.72302  0.80387  0.39300  Biso   1.000  N
  C34      1.0000 0.78139  0.62850  0.24270  Biso   1.000  C
  H25      1.0000 0.79820  0.61370  0.23810  Biso   1.000  H
  C35      1.0000 0.74386  0.61314  0.14800  Biso   1.000  C
  H26      1.0000 0.73530  0.58840  0.07980  Biso   1.000  H
  C36      1.0000 0.71907  0.63417  0.15380  Biso   1.000  C
  H27      1.0000 0.69280  0.62370  0.09170  Biso   1.000  H
  C37      1.0000 0.73324  0.67109  0.25240  Biso   1.000  C
  C38      1.0000 0.77143  0.68474  0.34420  Biso   1.000  C
  H28      1.0000 0.78110  0.70990  0.41150  Biso   1.000  H
  C39      1.0000 0.70595  0.69342  0.26230  Biso   1.000  C
  C40      1.0000 0.72886  0.74268  0.28760  Biso   1.000  C
  C41      1.0000 0.76956  0.77187  0.21870  Biso   1.000  C
  H29      1.0000 0.78560  0.76100  0.16030  Biso   1.000  H
  C42      1.0000 0.78630  0.81719  0.23710  Biso   1.000  C
  H30      1.0000 0.81390  0.83800  0.18990  Biso   1.000  H
  C43      1.0000 0.76252  0.83174  0.32470  Biso   1.000  C
  H31      1.0000 0.77450  0.86290  0.33770  Biso   1.000  H
  C44      1.0000 0.70666  0.76013  0.37310  Biso   1.000  C
  H32      1.0000 0.67870  0.74010  0.41930  Biso   1.000  H
  Ag5      1.0000 0.31740  0.17093  0.49175  Biso   1.000  Ag
  O5       1.0000 0.32790  0.99359  0.24620  Biso   1.000  O
  N9       1.0000 0.33641  0.13138  0.34100  Biso   1.000  N
  N10      1.0000 0.19613  0.91915  0.39300  Biso   1.000  N
  C45      1.0000 0.37150  0.15289  0.24270  Biso   1.000  C
  H33      1.0000 0.38630  0.18450  0.23810  Biso   1.000  H
  C46      1.0000 0.38686  0.13072  0.14800  Biso   1.000  C
  H34      1.0000 0.41160  0.14690  0.07980  Biso   1.000  H
  C47      1.0000 0.36583  0.08490  0.15380  Biso   1.000  C
  H35      1.0000 0.37630  0.06910  0.09170  Biso   1.000  H
  C48      1.0000 0.32891  0.06215  0.25240  Biso   1.000  C
  C49      1.0000 0.31526  0.08669  0.34420  Biso   1.000  C
  H36      1.0000 0.29010  0.07120  0.41150  Biso   1.000  H
  C50      1.0000 0.30658  0.01253  0.26230  Biso   1.000  C
  C51      1.0000 0.25732  0.98618  0.28760  Biso   1.000  C
  C52      1.0000 0.22813  0.99769  0.21870  Biso   1.000  C
  H37      1.0000 0.23900  0.02460  0.16030  Biso   1.000  H
  C53      1.0000 0.18281  0.96911  0.23710  Biso   1.000  C
  H38      1.0000 0.16200  0.97590  0.18990  Biso   1.000  H
  C54      1.0000 0.16826  0.93078  0.32470  Biso   1.000  C
  H39      1.0000 0.13710  0.91160  0.33770  Biso   1.000  H
  C55      1.0000 0.23987  0.94653  0.37310  Biso   1.000  C
  H40      1.0000 0.25990  0.93860  0.41930  Biso   1.000  H
  Ag6      1.0000 0.82907  0.14648  0.49175  Biso   1.000  Ag
  O6       1.0000 0.00641  0.33431  0.24620  Biso   1.000  O
  N11      1.0000 0.86862  0.20503  0.34100  Biso   1.000  N
  N12      1.0000 0.08085  0.27698  0.39300  Biso   1.000  N
  C56      1.0000 0.84711  0.21861  0.24270  Biso   1.000  C
  H41      1.0000 0.81550  0.20180  0.23810  Biso   1.000  H
  C57      1.0000 0.86928  0.25614  0.14800  Biso   1.000  C
  H42      1.0000 0.85310  0.26470  0.07980  Biso   1.000  H
  C58      1.0000 0.91510  0.28093  0.15380  Biso   1.000  C
  H43      1.0000 0.93090  0.30720  0.09170  Biso   1.000  H
  C59      1.0000 0.93785  0.26676  0.25240  Biso   1.000  C
  C60      1.0000 0.91331  0.22857  0.34420  Biso   1.000  C
  H44      1.0000 0.92880  0.21890  0.41150  Biso   1.000  H
  C61      1.0000 0.98747  0.29405  0.26230  Biso   1.000  C
  C62      1.0000 0.01382  0.27114  0.28760  Biso   1.000  C
  C63      1.0000 0.00231  0.23044  0.21870  Biso   1.000  C
  H45      1.0000 0.97540  0.21440  0.16030  Biso   1.000  H
  C64      1.0000 0.03089  0.21370  0.23710  Biso   1.000  C
  H46      1.0000 0.02410  0.18610  0.18990  Biso   1.000  H
  C65      1.0000 0.06922  0.23748  0.32470  Biso   1.000  C
  H47      1.0000 0.08840  0.22550  0.33770  Biso   1.000  H
  C66      1.0000 0.05347  0.29334  0.37310  Biso   1.000  C
  H48      1.0000 0.06140  0.32130  0.41930  Biso   1.000  H
  Ag7      1.0000 0.81314  0.65074  0.84158  Biso   1.000  Ag
  O7       1.0000 0.00098  0.66123  0.08713  Biso   1.000  O
  N13      1.0000 0.87170  0.66974  0.99233  Biso   1.000  N
  N14      1.0000 0.94365  0.52946  0.94033  Biso   1.000  N
  C67      1.0000 0.88528  0.70483  0.09063  Biso   1.000  C
  H49      1.0000 0.86847  0.71963  0.09523  Biso   1.000  H
  C68      1.0000 0.92281  0.72019  0.18533  Biso   1.000  C
  H50      1.0000 0.93137  0.74493  0.25353  Biso   1.000  H
  C69      1.0000 0.94760  0.69916  0.17953  Biso   1.000  C
  H51      1.0000 0.97387  0.70963  0.24163  Biso   1.000  H
  C70      1.0000 0.93343  0.66224  0.08093  Biso   1.000  C
  C71      1.0000 0.89524  0.64859  0.98913  Biso   1.000  C
  H52      1.0000 0.88557  0.62343  0.92183  Biso   1.000  H
  C72      1.0000 0.96072  0.63991  0.07103  Biso   1.000  C
  C73      1.0000 0.93781  0.59065  0.04573  Biso   1.000  C
  C74      1.0000 0.89711  0.56146  0.11463  Biso   1.000  C
  H53      1.0000 0.88107  0.57233  0.17303  Biso   1.000  H
  C75      1.0000 0.88037  0.51614  0.09623  Biso   1.000  C
  H54      1.0000 0.85277  0.49533  0.14343  Biso   1.000  H
  C76      1.0000 0.90415  0.50159  0.00863  Biso   1.000  C
  H55      1.0000 0.89217  0.47043  0.99563  Biso   1.000  H
  C77      1.0000 0.96001  0.57320  0.96023  Biso   1.000  C
  H56      1.0000 0.98797  0.59323  0.91403  Biso   1.000  H
  Ag8      1.0000 0.34926  0.16241  0.84158  Biso   1.000  Ag
  O8       1.0000 0.33877  0.33974  0.08713  Biso   1.000  O
  N15      1.0000 0.33026  0.20195  0.99233  Biso   1.000  N
  N16      1.0000 0.47054  0.41418  0.94033  Biso   1.000  N
  C78      1.0000 0.29517  0.18044  0.09063  Biso   1.000  C
  H57      1.0000 0.28037  0.14883  0.09523  Biso   1.000  H
  C79      1.0000 0.27981  0.20261  0.18533  Biso   1.000  C
  H58      1.0000 0.25507  0.18643  0.25353  Biso   1.000  H
  C80      1.0000 0.30084  0.24843  0.17953  Biso   1.000  C
  H59      1.0000 0.29037  0.26423  0.24163  Biso   1.000  H
  C81      1.0000 0.33776  0.27118  0.08093  Biso   1.000  C
  C82      1.0000 0.35141  0.24664  0.98913  Biso   1.000  C
  H60      1.0000 0.37657  0.26213  0.92183  Biso   1.000  H
  C83      1.0000 0.36009  0.32080  0.07103  Biso   1.000  C
  C84      1.0000 0.40935  0.34715  0.04573  Biso   1.000  C
  C85      1.0000 0.43854  0.33564  0.11463  Biso   1.000  C
  H61      1.0000 0.42767  0.30873  0.17303  Biso   1.000  H
  C86      1.0000 0.48386  0.36422  0.09623  Biso   1.000  C
  H62      1.0000 0.50467  0.35743  0.14343  Biso   1.000  H
  C87      1.0000 0.49841  0.40255  0.00863  Biso   1.000  C
  H63      1.0000 0.52957  0.42173  0.99563  Biso   1.000  H
  C88      1.0000 0.42680  0.38680  0.96023  Biso   1.000  C
  H64      1.0000 0.40677  0.39473  0.91403  Biso   1.000  H
  Ag9      1.0000 0.83759  0.18686  0.84158  Biso   1.000  Ag
  O9       1.0000 0.66026  0.99902  0.08713  Biso   1.000  O
  N17      1.0000 0.79805  0.12830  0.99233  Biso   1.000  N
  N18      1.0000 0.58582  0.05635  0.94033  Biso   1.000  N
  C89      1.0000 0.81956  0.11472  0.09063  Biso   1.000  C
  H65      1.0000 0.85117  0.13153  0.09523  Biso   1.000  H
  C90      1.0000 0.79739  0.07719  0.18533  Biso   1.000  C
  H66      1.0000 0.81357  0.06863  0.25353  Biso   1.000  H
  C91      1.0000 0.75157  0.05240  0.17953  Biso   1.000  C
  H67      1.0000 0.73577  0.02613  0.24163  Biso   1.000  H
  C92      1.0000 0.72882  0.06657  0.08093  Biso   1.000  C
  C93      1.0000 0.75336  0.10476  0.98913  Biso   1.000  C
  H68      1.0000 0.73787  0.11443  0.92183  Biso   1.000  H
  C94      1.0000 0.67920  0.03928  0.07103  Biso   1.000  C
  C95      1.0000 0.65285  0.06219  0.04573  Biso   1.000  C
  C96      1.0000 0.66436  0.10289  0.11463  Biso   1.000  C
  H69      1.0000 0.69127  0.11893  0.17303  Biso   1.000  H
  C97      1.0000 0.63578  0.11963  0.09623  Biso   1.000  C
  H70      1.0000 0.64257  0.14723  0.14343  Biso   1.000  H
  C98      1.0000 0.59745  0.09585  0.00863  Biso   1.000  C
  H71      1.0000 0.57827  0.10783  0.99563  Biso   1.000  H
  C99      1.0000 0.61320  0.03999  0.96023  Biso   1.000  C
  H72      1.0000 0.60527  0.01203  0.91403  Biso   1.000  H
  Ag10     1.0000 0.52019  0.01593  0.82508  Biso   1.000  Ag
  O10      1.0000 0.33236  0.00543  0.57953  Biso   1.000  O
  N19      1.0000 0.46164  0.99692  0.67433  Biso   1.000  N
  N20      1.0000 0.38969  0.13720  0.72633  Biso   1.000  N
  C100     1.0000 0.44806  0.96183  0.57603  Biso   1.000  C
  H73      1.0000 0.46487  0.94703  0.57143  Biso   1.000  H
  C101     1.0000 0.41053  0.94647  0.48133  Biso   1.000  C
  H74      1.0000 0.40197  0.92173  0.41313  Biso   1.000  H
  C102     1.0000 0.38574  0.96750  0.48713  Biso   1.000  C
  H75      1.0000 0.35947  0.95703  0.42503  Biso   1.000  H
  C103     1.0000 0.39991  0.00442  0.58573  Biso   1.000  C
  C104     1.0000 0.43810  0.01807  0.67753  Biso   1.000  C
  H76      1.0000 0.44777  0.04323  0.74483  Biso   1.000  H
  C105     1.0000 0.37262  0.02675  0.59563  Biso   1.000  C
  C106     1.0000 0.39553  0.07601  0.62093  Biso   1.000  C
  C107     1.0000 0.43623  0.10520  0.55203  Biso   1.000  C
  H77      1.0000 0.45227  0.09433  0.49363  Biso   1.000  H
  C108     1.0000 0.45297  0.15052  0.57043  Biso   1.000  C
  H78      1.0000 0.48057  0.17133  0.52323  Biso   1.000  H
  C109     1.0000 0.42919  0.16507  0.65803  Biso   1.000  C
  H79      1.0000 0.44117  0.19623  0.67103  Biso   1.000  H
  C110     1.0000 0.37333  0.09346  0.70643  Biso   1.000  C
  H80      1.0000 0.34537  0.07343  0.75263  Biso   1.000  H
  Ag11     1.0000 0.98407  0.50426  0.82508  Biso   1.000  Ag
  O11      1.0000 0.99457  0.32692  0.57953  Biso   1.000  O
  N21      1.0000 0.00308  0.46471  0.67433  Biso   1.000  N
  N22      1.0000 0.86280  0.25248  0.72633  Biso   1.000  N
  C111     1.0000 0.03817  0.48622  0.57603  Biso   1.000  C
  H81      1.0000 0.05297  0.51783  0.57143  Biso   1.000  H
  C112     1.0000 0.05353  0.46405  0.48133  Biso   1.000  C
  H82      1.0000 0.07827  0.48023  0.41313  Biso   1.000  H
  C113     1.0000 0.03250  0.41823  0.48713  Biso   1.000  C
  H83      1.0000 0.04297  0.40243  0.42503  Biso   1.000  H
  C114     1.0000 0.99558  0.39548  0.58573  Biso   1.000  C
  C115     1.0000 0.98193  0.42002  0.67753  Biso   1.000  C
  H84      1.0000 0.95677  0.40453  0.74483  Biso   1.000  H
  C116     1.0000 0.97325  0.34586  0.59563  Biso   1.000  C
  C117     1.0000 0.92399  0.31951  0.62093  Biso   1.000  C
  C118     1.0000 0.89480  0.33102  0.55203  Biso   1.000  C
  H85      1.0000 0.90567  0.35793  0.49363  Biso   1.000  H
  C119     1.0000 0.84948  0.30244  0.57043  Biso   1.000  C
  H86      1.0000 0.82867  0.30923  0.52323  Biso   1.000  H
  C120     1.0000 0.83493  0.26411  0.65803  Biso   1.000  C
  H87      1.0000 0.80377  0.24493  0.67103  Biso   1.000  H
  C121     1.0000 0.90654  0.27986  0.70643  Biso   1.000  C
  H88      1.0000 0.92657  0.27193  0.75263  Biso   1.000  H
  Ag12     1.0000 0.49574  0.47981  0.82508  Biso   1.000  Ag
  O12      1.0000 0.67308  0.66764  0.57953  Biso   1.000  O
  N23      1.0000 0.53529  0.53836  0.67433  Biso   1.000  N
  N24      1.0000 0.74752  0.61031  0.72633  Biso   1.000  N
  C122     1.0000 0.51378  0.55194  0.57603  Biso   1.000  C
  H89      1.0000 0.48217  0.53513  0.57143  Biso   1.000  H
  C123     1.0000 0.53595  0.58947  0.48133  Biso   1.000  C
  H90      1.0000 0.51977  0.59803  0.41313  Biso   1.000  H
  C124     1.0000 0.58177  0.61426  0.48713  Biso   1.000  C
  H91      1.0000 0.59757  0.64053  0.42503  Biso   1.000  H
  C125     1.0000 0.60452  0.60009  0.58573  Biso   1.000  C
  C126     1.0000 0.57998  0.56190  0.67753  Biso   1.000  C
  H92      1.0000 0.59547  0.55223  0.74483  Biso   1.000  H
  C127     1.0000 0.65414  0.62738  0.59563  Biso   1.000  C
  C128     1.0000 0.68049  0.60447  0.62093  Biso   1.000  C
  C129     1.0000 0.66898  0.56377  0.55203  Biso   1.000  C
  H93      1.0000 0.64207  0.54773  0.49363  Biso   1.000  H
  C130     1.0000 0.69756  0.54703  0.57043  Biso   1.000  C
  H94      1.0000 0.69077  0.51943  0.52323  Biso   1.000  H
  C131     1.0000 0.73589  0.57081  0.65803  Biso   1.000  C
  H95      1.0000 0.75507  0.55883  0.67103  Biso   1.000  H
  C132     1.0000 0.72014  0.62667  0.70643  Biso   1.000  C
  H96      1.0000 0.72807  0.65463  0.75263  Biso   1.000  H
  Ag13     1.0000 0.47981  0.98407  0.17492  Biso   1.000  Ag
  O13      1.0000 0.66764  0.99457  0.42047  Biso   1.000  O
  N25      1.0000 0.53836  0.00308  0.32567  Biso   1.000  N
  N26      1.0000 0.61031  0.86280  0.27367  Biso   1.000  N
  C133     1.0000 0.55194  0.03817  0.42397  Biso   1.000  C
  H97      1.0000 0.53513  0.05297  0.42857  Biso   1.000  H
  C134     1.0000 0.58947  0.05353  0.51867  Biso   1.000  C
  H98      1.0000 0.59803  0.07827  0.58687  Biso   1.000  H
  C135     1.0000 0.61426  0.03250  0.51287  Biso   1.000  C
  H99      1.0000 0.64053  0.04297  0.57497  Biso   1.000  H
  C136     1.0000 0.60009  0.99558  0.41427  Biso   1.000  C
  C137     1.0000 0.56190  0.98193  0.32247  Biso   1.000  C
  H100     1.0000 0.55223  0.95677  0.25517  Biso   1.000  H
  C138     1.0000 0.62738  0.97325  0.40437  Biso   1.000  C
  C139     1.0000 0.60447  0.92399  0.37907  Biso   1.000  C
  C140     1.0000 0.56377  0.89480  0.44797  Biso   1.000  C
  H101     1.0000 0.54773  0.90567  0.50637  Biso   1.000  H
  C141     1.0000 0.54703  0.84948  0.42957  Biso   1.000  C
  H102     1.0000 0.51943  0.82867  0.47677  Biso   1.000  H
  C142     1.0000 0.57081  0.83493  0.34197  Biso   1.000  C
  H103     1.0000 0.55883  0.80377  0.32897  Biso   1.000  H
  C143     1.0000 0.62667  0.90654  0.29357  Biso   1.000  C
  H104     1.0000 0.65463  0.92657  0.24737  Biso   1.000  H
  Ag14     1.0000 0.01593  0.49574  0.17492  Biso   1.000  Ag
  O14      1.0000 0.00543  0.67308  0.42047  Biso   1.000  O
  N27      1.0000 0.99692  0.53529  0.32567  Biso   1.000  N
  N28      1.0000 0.13720  0.74752  0.27367  Biso   1.000  N
  C144     1.0000 0.96183  0.51378  0.42397  Biso   1.000  C
  H105     1.0000 0.94703  0.48217  0.42857  Biso   1.000  H
  C145     1.0000 0.94647  0.53595  0.51867  Biso   1.000  C
  H106     1.0000 0.92173  0.51977  0.58687  Biso   1.000  H
  C146     1.0000 0.96750  0.58177  0.51287  Biso   1.000  C
  H107     1.0000 0.95703  0.59757  0.57497  Biso   1.000  H
  C147     1.0000 0.00442  0.60452  0.41427  Biso   1.000  C
  C148     1.0000 0.01807  0.57998  0.32247  Biso   1.000  C
  H108     1.0000 0.04323  0.59547  0.25517  Biso   1.000  H
  C149     1.0000 0.02675  0.65414  0.40437  Biso   1.000  C
  C150     1.0000 0.07601  0.68049  0.37907  Biso   1.000  C
  C151     1.0000 0.10520  0.66898  0.44797  Biso   1.000  C
  H109     1.0000 0.09433  0.64207  0.50637  Biso   1.000  H
  C152     1.0000 0.15052  0.69756  0.42957  Biso   1.000  C
  H110     1.0000 0.17133  0.69077  0.47677  Biso   1.000  H
  C153     1.0000 0.16507  0.73589  0.34197  Biso   1.000  C
  H111     1.0000 0.19623  0.75507  0.32897  Biso   1.000  H
  C154     1.0000 0.09346  0.72014  0.29357  Biso   1.000  C
  H112     1.0000 0.07343  0.72807  0.24737  Biso   1.000  H
  Ag15     1.0000 0.50426  0.52019  0.17492  Biso   1.000  Ag
  O15      1.0000 0.32692  0.33236  0.42047  Biso   1.000  O
  N29      1.0000 0.46471  0.46164  0.32567  Biso   1.000  N
  N30      1.0000 0.25248  0.38969  0.27367  Biso   1.000  N
  C155     1.0000 0.48622  0.44806  0.42397  Biso   1.000  C
  H113     1.0000 0.51783  0.46487  0.42857  Biso   1.000  H
  C156     1.0000 0.46405  0.41053  0.51867  Biso   1.000  C
  H114     1.0000 0.48023  0.40197  0.58687  Biso   1.000  H
  C157     1.0000 0.41823  0.38574  0.51287  Biso   1.000  C
  H115     1.0000 0.40243  0.35947  0.57497  Biso   1.000  H
  C158     1.0000 0.39548  0.39991  0.41427  Biso   1.000  C
  C159     1.0000 0.42002  0.43810  0.32247  Biso   1.000  C
  H116     1.0000 0.40453  0.44777  0.25517  Biso   1.000  H
  C160     1.0000 0.34586  0.37262  0.40437  Biso   1.000  C
  C161     1.0000 0.31951  0.39553  0.37907  Biso   1.000  C
  C162     1.0000 0.33102  0.43623  0.44797  Biso   1.000  C
  H117     1.0000 0.35793  0.45227  0.50637  Biso   1.000  H
  C163     1.0000 0.30244  0.45297  0.42957  Biso   1.000  C
  H118     1.0000 0.30923  0.48057  0.47677  Biso   1.000  H
  C164     1.0000 0.26411  0.42919  0.34197  Biso   1.000  C
  H119     1.0000 0.24493  0.44117  0.32897  Biso   1.000  H
  C165     1.0000 0.27986  0.37333  0.29357  Biso   1.000  C
  H120     1.0000 0.27193  0.34537  0.24737  Biso   1.000  H
  Ag16     1.0000 0.18686  0.34926  0.15842  Biso   1.000  Ag
  O16      1.0000 0.99902  0.33877  0.91287  Biso   1.000  O
  N31      1.0000 0.12830  0.33026  0.00767  Biso   1.000  N
  N32      1.0000 0.05635  0.47054  0.05967  Biso   1.000  N
  C166     1.0000 0.11472  0.29517  0.90937  Biso   1.000  C
  H121     1.0000 0.13153  0.28037  0.90477  Biso   1.000  H
  C167     1.0000 0.07719  0.27981  0.81467  Biso   1.000  C
  H122     1.0000 0.06863  0.25507  0.74647  Biso   1.000  H
  C168     1.0000 0.05240  0.30084  0.82047  Biso   1.000  C
  H123     1.0000 0.02613  0.29037  0.75837  Biso   1.000  H
  C169     1.0000 0.06657  0.33776  0.91907  Biso   1.000  C
  C170     1.0000 0.10476  0.35141  0.01087  Biso   1.000  C
  H124     1.0000 0.11443  0.37657  0.07817  Biso   1.000  H
  C171     1.0000 0.03928  0.36009  0.92897  Biso   1.000  C
  C172     1.0000 0.06219  0.40935  0.95427  Biso   1.000  C
  C173     1.0000 0.10289  0.43854  0.88537  Biso   1.000  C
  H125     1.0000 0.11893  0.42767  0.82697  Biso   1.000  H
  C174     1.0000 0.11963  0.48386  0.90377  Biso   1.000  C
  H126     1.0000 0.14723  0.50467  0.85657  Biso   1.000  H
  C175     1.0000 0.09585  0.49841  0.99137  Biso   1.000  C
  H127     1.0000 0.10783  0.52957  0.00437  Biso   1.000  H
  C176     1.0000 0.03999  0.42680  0.03977  Biso   1.000  C
  H128     1.0000 0.01203  0.40677  0.08597  Biso   1.000  H
  Ag17     1.0000 0.65074  0.83759  0.15842  Biso   1.000  Ag
  O17      1.0000 0.66123  0.66026  0.91287  Biso   1.000  O
  N33      1.0000 0.66974  0.79805  0.00767  Biso   1.000  N
  N34      1.0000 0.52946  0.58582  0.05967  Biso   1.000  N
  C177     1.0000 0.70483  0.81956  0.90937  Biso   1.000  C
  H129     1.0000 0.71963  0.85117  0.90477  Biso   1.000  H
  C178     1.0000 0.72019  0.79739  0.81467  Biso   1.000  C
  H130     1.0000 0.74493  0.81357  0.74647  Biso   1.000  H
  C179     1.0000 0.69916  0.75157  0.82047  Biso   1.000  C
  H131     1.0000 0.70963  0.73577  0.75837  Biso   1.000  H
  C180     1.0000 0.66224  0.72882  0.91907  Biso   1.000  C
  C181     1.0000 0.64859  0.75336  0.01087  Biso   1.000  C
  H132     1.0000 0.62343  0.73787  0.07817  Biso   1.000  H
  C182     1.0000 0.63991  0.67920  0.92897  Biso   1.000  C
  C183     1.0000 0.59065  0.65285  0.95427  Biso   1.000  C
  C184     1.0000 0.56146  0.66436  0.88537  Biso   1.000  C
  H133     1.0000 0.57233  0.69127  0.82697  Biso   1.000  H
  C185     1.0000 0.51614  0.63578  0.90377  Biso   1.000  C
  H134     1.0000 0.49533  0.64257  0.85657  Biso   1.000  H
  C186     1.0000 0.50159  0.59745  0.99137  Biso   1.000  C
  H135     1.0000 0.47043  0.57827  0.00437  Biso   1.000  H
  C187     1.0000 0.57320  0.61320  0.03977  Biso   1.000  C
  H136     1.0000 0.59323  0.60527  0.08597  Biso   1.000  H
  Ag18     1.0000 0.16241  0.81314  0.15842  Biso   1.000  Ag
  O18      1.0000 0.33974  0.00098  0.91287  Biso   1.000  O
  N35      1.0000 0.20195  0.87170  0.00767  Biso   1.000  N
  N36      1.0000 0.41418  0.94365  0.05967  Biso   1.000  N
  C188     1.0000 0.18044  0.88528  0.90937  Biso   1.000  C
  H137     1.0000 0.14883  0.86847  0.90477  Biso   1.000  H
  C189     1.0000 0.20261  0.92281  0.81467  Biso   1.000  C
  H138     1.0000 0.18643  0.93137  0.74647  Biso   1.000  H
  C190     1.0000 0.24843  0.94760  0.82047  Biso   1.000  C
  H139     1.0000 0.26423  0.97387  0.75837  Biso   1.000  H
  C191     1.0000 0.27118  0.93343  0.91907  Biso   1.000  C
  C192     1.0000 0.24664  0.89524  0.01087  Biso   1.000  C
  H140     1.0000 0.26213  0.88557  0.07817  Biso   1.000  H
  C193     1.0000 0.32080  0.96072  0.92897  Biso   1.000  C
  C194     1.0000 0.34715  0.93781  0.95427  Biso   1.000  C
  C195     1.0000 0.33564  0.89711  0.88537  Biso   1.000  C
  H141     1.0000 0.30873  0.88107  0.82697  Biso   1.000  H
  C196     1.0000 0.36422  0.88037  0.90377  Biso   1.000  C
  H142     1.0000 0.35743  0.85277  0.85657  Biso   1.000  H
  C197     1.0000 0.40255  0.90415  0.99137  Biso   1.000  C
  H143     1.0000 0.42173  0.89217  0.00437  Biso   1.000  H
  C198     1.0000 0.38680  0.96001  0.03977  Biso   1.000  C
  H144     1.0000 0.39473  0.98797  0.08597  Biso   1.000  H
