data_image0
_cell_length_a       34.638
_cell_length_b       34.638
_cell_length_c       8.3954
_cell_angle_alpha    90
_cell_angle_beta     90
_cell_angle_gamma    120

_symmetry_space_group_name_H-M    "P 1"
_symmetry_int_tables_number       1

loop_
  _symmetry_equiv_pos_as_xyz
  'x, y, z'

loop_
  _atom_site_label
  _atom_site_occupancy
  _atom_site_fract_x
  _atom_site_fract_y
  _atom_site_fract_z
  _atom_site_thermal_displace_type
  _atom_site_B_iso_or_equiv
  _atom_site_type_symbol
  Ag1      1.0000 0.85684  0.68245  0.49030  Biso   1.000  Ag
  O1       1.0000 0.66450  0.66460  0.28580  Biso   1.000  O
  N1       1.0000 0.79650  0.66140  0.34500  Biso   1.000  N
  N2       1.0000 0.72180  0.79910  0.39800  Biso   1.000  N
  C1       1.0000 0.78270  0.62610  0.24900  Biso   1.000  C
  H1       1.0000 0.80020  0.61200  0.24170  Biso   1.000  H
  C2       1.0000 0.74410  0.60940  0.15970  Biso   1.000  C
  H2       1.0000 0.73550  0.58460  0.09150  Biso   1.000  H
  C3       1.0000 0.71830  0.62900  0.17040  Biso   1.000  C
  H3       1.0000 0.69120  0.61750  0.11290  Biso   1.000  H
  C4       1.0000 0.73280  0.66620  0.26740  Biso   1.000  C
  C5       1.0000 0.77200  0.68120  0.35090  Biso   1.000  C
  H4       1.0000 0.78210  0.70690  0.41600  Biso   1.000  H
  C6       1.0000 0.70470  0.68750  0.28630  Biso   1.000  C
  C7       1.0000 0.72670  0.73670  0.29890  Biso   1.000  C
  C8       1.0000 0.76570  0.76510  0.21870  Biso   1.000  C
  H5       1.0000 0.78140  0.75390  0.15950  Biso   1.000  H
  C9       1.0000 0.78100  0.81020  0.22740  Biso   1.000  C
  H6       1.0000 0.80670  0.83040  0.16850  Biso   1.000  H
  C10      1.0000 0.75970  0.82620  0.31990  Biso   1.000  C
  H7       1.0000 0.77200  0.85750  0.32920  Biso   1.000  H
  C11      1.0000 0.70590  0.75570  0.38660  Biso   1.000  C
  H8       1.0000 0.67900  0.73630  0.44080  Biso   1.000  H
  Ag2      1.0000 0.31755  0.17439  0.49030  Biso   1.000  Ag
  O2       1.0000 0.33540  0.99990  0.28580  Biso   1.000  O
  N3       1.0000 0.33860  0.13510  0.34500  Biso   1.000  N
  N4       1.0000 0.20090  0.92270  0.39800  Biso   1.000  N
  C12      1.0000 0.37390  0.15660  0.24900  Biso   1.000  C
  H9       1.0000 0.38800  0.18820  0.24170  Biso   1.000  H
  C13      1.0000 0.39060  0.13470  0.15970  Biso   1.000  C
  H10      1.0000 0.41540  0.15090  0.09150  Biso   1.000  H
  C14      1.0000 0.37100  0.08930  0.17040  Biso   1.000  C
  H11      1.0000 0.38250  0.07370  0.11290  Biso   1.000  H
  C15      1.0000 0.33380  0.06660  0.26740  Biso   1.000  C
  C16      1.0000 0.31880  0.09080  0.35090  Biso   1.000  C
  H12      1.0000 0.29310  0.07520  0.41600  Biso   1.000  H
  C17      1.0000 0.31250  0.01720  0.28630  Biso   1.000  C
  C18      1.0000 0.26330  0.99000  0.29890  Biso   1.000  C
  C19      1.0000 0.23490  0.00060  0.21870  Biso   1.000  C
  H13      1.0000 0.24610  0.02750  0.15950  Biso   1.000  H
  C20      1.0000 0.18980  0.97080  0.22740  Biso   1.000  C
  H14      1.0000 0.16960  0.97630  0.16850  Biso   1.000  H
  C21      1.0000 0.17380  0.93350  0.31990  Biso   1.000  C
  H15      1.0000 0.14250  0.91450  0.32920  Biso   1.000  H
  C22      1.0000 0.24430  0.95020  0.38660  Biso   1.000  C
  H16      1.0000 0.26370  0.94270  0.44080  Biso   1.000  H
  Ag3      1.0000 0.82561  0.14316  0.49030  Biso   1.000  Ag
  O3       1.0000 0.00010  0.33550  0.28580  Biso   1.000  O
  N5       1.0000 0.86490  0.20350  0.34500  Biso   1.000  N
  N6       1.0000 0.07730  0.27820  0.39800  Biso   1.000  N
  C23      1.0000 0.84340  0.21730  0.24900  Biso   1.000  C
  H17      1.0000 0.81180  0.19980  0.24170  Biso   1.000  H
  C24      1.0000 0.86530  0.25590  0.15970  Biso   1.000  C
  H18      1.0000 0.84910  0.26450  0.09150  Biso   1.000  H
  C25      1.0000 0.91070  0.28170  0.17040  Biso   1.000  C
  H19      1.0000 0.92630  0.30880  0.11290  Biso   1.000  H
  C26      1.0000 0.93340  0.26720  0.26740  Biso   1.000  C
  C27      1.0000 0.90920  0.22800  0.35090  Biso   1.000  C
  H20      1.0000 0.92480  0.21790  0.41600  Biso   1.000  H
  C28      1.0000 0.98280  0.29530  0.28630  Biso   1.000  C
  C29      1.0000 0.01000  0.27330  0.29890  Biso   1.000  C
  C30      1.0000 0.99940  0.23430  0.21870  Biso   1.000  C
  H21      1.0000 0.97250  0.21860  0.15950  Biso   1.000  H
  C31      1.0000 0.02920  0.21900  0.22740  Biso   1.000  C
  H22      1.0000 0.02370  0.19330  0.16850  Biso   1.000  H
  C32      1.0000 0.06650  0.24030  0.31990  Biso   1.000  C
  H23      1.0000 0.08550  0.22800  0.32920  Biso   1.000  H
  C33      1.0000 0.04980  0.29410  0.38660  Biso   1.000  C
  H24      1.0000 0.05730  0.32100  0.44080  Biso   1.000  H
  Ag4      1.0000 0.14316  0.31755  0.50970  Biso   1.000  Ag
  O4       1.0000 0.33550  0.33540  0.71420  Biso   1.000  O
  N7       1.0000 0.20350  0.33860  0.65500  Biso   1.000  N
  N8       1.0000 0.27820  0.20090  0.60200  Biso   1.000  N
  C34      1.0000 0.21730  0.37390  0.75100  Biso   1.000  C
  H25      1.0000 0.19980  0.38800  0.75830  Biso   1.000  H
  C35      1.0000 0.25590  0.39060  0.84030  Biso   1.000  C
  H26      1.0000 0.26450  0.41540  0.90850  Biso   1.000  H
  C36      1.0000 0.28170  0.37100  0.82960  Biso   1.000  C
  H27      1.0000 0.30880  0.38250  0.88710  Biso   1.000  H
  C37      1.0000 0.26720  0.33380  0.73260  Biso   1.000  C
  C38      1.0000 0.22800  0.31880  0.64910  Biso   1.000  C
  H28      1.0000 0.21790  0.29310  0.58400  Biso   1.000  H
  C39      1.0000 0.29530  0.31250  0.71370  Biso   1.000  C
  C40      1.0000 0.27330  0.26330  0.70110  Biso   1.000  C
  C41      1.0000 0.23430  0.23490  0.78130  Biso   1.000  C
  H29      1.0000 0.21860  0.24610  0.84050  Biso   1.000  H
  C42      1.0000 0.21900  0.18980  0.77260  Biso   1.000  C
  H30      1.0000 0.19330  0.16960  0.83150  Biso   1.000  H
  C43      1.0000 0.24030  0.17380  0.68010  Biso   1.000  C
  H31      1.0000 0.22800  0.14250  0.67080  Biso   1.000  H
  C44      1.0000 0.29410  0.24430  0.61340  Biso   1.000  C
  H32      1.0000 0.32100  0.26370  0.55920  Biso   1.000  H
  Ag5      1.0000 0.68245  0.82561  0.50970  Biso   1.000  Ag
  O5       1.0000 0.66460  0.00010  0.71420  Biso   1.000  O
  N9       1.0000 0.66140  0.86490  0.65500  Biso   1.000  N
  N10      1.0000 0.79910  0.07730  0.60200  Biso   1.000  N
  C45      1.0000 0.62610  0.84340  0.75100  Biso   1.000  C
  H33      1.0000 0.61200  0.81180  0.75830  Biso   1.000  H
  C46      1.0000 0.60940  0.86530  0.84030  Biso   1.000  C
  H34      1.0000 0.58460  0.84910  0.90850  Biso   1.000  H
  C47      1.0000 0.62900  0.91070  0.82960  Biso   1.000  C
  H35      1.0000 0.61750  0.92630  0.88710  Biso   1.000  H
  C48      1.0000 0.66620  0.93340  0.73260  Biso   1.000  C
  C49      1.0000 0.68120  0.90920  0.64910  Biso   1.000  C
  H36      1.0000 0.70690  0.92480  0.58400  Biso   1.000  H
  C50      1.0000 0.68750  0.98280  0.71370  Biso   1.000  C
  C51      1.0000 0.73670  0.01000  0.70110  Biso   1.000  C
  C52      1.0000 0.76510  0.99940  0.78130  Biso   1.000  C
  H37      1.0000 0.75390  0.97250  0.84050  Biso   1.000  H
  C53      1.0000 0.81020  0.02920  0.77260  Biso   1.000  C
  H38      1.0000 0.83040  0.02370  0.83150  Biso   1.000  H
  C54      1.0000 0.82620  0.06650  0.68010  Biso   1.000  C
  H39      1.0000 0.85750  0.08550  0.67080  Biso   1.000  H
  C55      1.0000 0.75570  0.04980  0.61340  Biso   1.000  C
  H40      1.0000 0.73630  0.05730  0.55920  Biso   1.000  H
  Ag6      1.0000 0.17439  0.85684  0.50970  Biso   1.000  Ag
  O6       1.0000 0.99990  0.66450  0.71420  Biso   1.000  O
  N11      1.0000 0.13510  0.79650  0.65500  Biso   1.000  N
  N12      1.0000 0.92270  0.72180  0.60200  Biso   1.000  N
  C56      1.0000 0.15660  0.78270  0.75100  Biso   1.000  C
  H41      1.0000 0.18820  0.80020  0.75830  Biso   1.000  H
  C57      1.0000 0.13470  0.74410  0.84030  Biso   1.000  C
  H42      1.0000 0.15090  0.73550  0.90850  Biso   1.000  H
  C58      1.0000 0.08930  0.71830  0.82960  Biso   1.000  C
  H43      1.0000 0.07370  0.69120  0.88710  Biso   1.000  H
  C59      1.0000 0.06660  0.73280  0.73260  Biso   1.000  C
  C60      1.0000 0.09080  0.77200  0.64910  Biso   1.000  C
  H44      1.0000 0.07520  0.78210  0.58400  Biso   1.000  H
  C61      1.0000 0.01720  0.70470  0.71370  Biso   1.000  C
  C62      1.0000 0.99000  0.72670  0.70110  Biso   1.000  C
  C63      1.0000 0.00060  0.76570  0.78130  Biso   1.000  C
  H45      1.0000 0.02750  0.78140  0.84050  Biso   1.000  H
  C64      1.0000 0.97080  0.78100  0.77260  Biso   1.000  C
  H46      1.0000 0.97630  0.80670  0.83150  Biso   1.000  H
  C65      1.0000 0.93350  0.75970  0.68010  Biso   1.000  C
  H47      1.0000 0.91450  0.77200  0.67080  Biso   1.000  H
  C66      1.0000 0.95020  0.70590  0.61340  Biso   1.000  C
  H48      1.0000 0.94270  0.67900  0.55920  Biso   1.000  H
  Ag7      1.0000 0.52351  0.01578  0.82363  Biso   1.000  Ag
  O7       1.0000 0.33117  0.99793  0.61913  Biso   1.000  O
  N13      1.0000 0.46317  0.99473  0.67833  Biso   1.000  N
  N14      1.0000 0.38847  0.13243  0.73133  Biso   1.000  N
  C67      1.0000 0.44937  0.95943  0.58233  Biso   1.000  C
  H49      1.0000 0.46687  0.94533  0.57503  Biso   1.000  H
  C68      1.0000 0.41077  0.94273  0.49303  Biso   1.000  C
  H50      1.0000 0.40217  0.91793  0.42483  Biso   1.000  H
  C69      1.0000 0.38497  0.96233  0.50373  Biso   1.000  C
  H51      1.0000 0.35787  0.95083  0.44623  Biso   1.000  H
  C70      1.0000 0.39947  0.99953  0.60073  Biso   1.000  C
  C71      1.0000 0.43867  0.01453  0.68423  Biso   1.000  C
  H52      1.0000 0.44877  0.04023  0.74933  Biso   1.000  H
  C72      1.0000 0.37137  0.02083  0.61963  Biso   1.000  C
  C73      1.0000 0.39337  0.07003  0.63223  Biso   1.000  C
  C74      1.0000 0.43237  0.09843  0.55203  Biso   1.000  C
  H53      1.0000 0.44807  0.08723  0.49283  Biso   1.000  H
  C75      1.0000 0.44767  0.14353  0.56073  Biso   1.000  C
  H54      1.0000 0.47337  0.16373  0.50183  Biso   1.000  H
  C76      1.0000 0.42637  0.15953  0.65323  Biso   1.000  C
  H55      1.0000 0.43867  0.19083  0.66253  Biso   1.000  H
  C77      1.0000 0.37257  0.08903  0.71993  Biso   1.000  C
  H56      1.0000 0.34567  0.06963  0.77413  Biso   1.000  H
  Ag8      1.0000 0.98422  0.50772  0.82363  Biso   1.000  Ag
  O8       1.0000 0.00207  0.33323  0.61913  Biso   1.000  O
  N15      1.0000 0.00527  0.46843  0.67833  Biso   1.000  N
  N16      1.0000 0.86757  0.25603  0.73133  Biso   1.000  N
  C78      1.0000 0.04057  0.48993  0.58233  Biso   1.000  C
  H57      1.0000 0.05467  0.52153  0.57503  Biso   1.000  H
  C79      1.0000 0.05727  0.46803  0.49303  Biso   1.000  C
  H58      1.0000 0.08207  0.48423  0.42483  Biso   1.000  H
  C80      1.0000 0.03767  0.42263  0.50373  Biso   1.000  C
  H59      1.0000 0.04917  0.40703  0.44623  Biso   1.000  H
  C81      1.0000 0.00047  0.39993  0.60073  Biso   1.000  C
  C82      1.0000 0.98547  0.42413  0.68423  Biso   1.000  C
  H60      1.0000 0.95977  0.40853  0.74933  Biso   1.000  H
  C83      1.0000 0.97917  0.35053  0.61963  Biso   1.000  C
  C84      1.0000 0.92997  0.32333  0.63223  Biso   1.000  C
  C85      1.0000 0.90157  0.33393  0.55203  Biso   1.000  C
  H61      1.0000 0.91277  0.36083  0.49283  Biso   1.000  H
  C86      1.0000 0.85647  0.30413  0.56073  Biso   1.000  C
  H62      1.0000 0.83627  0.30963  0.50183  Biso   1.000  H
  C87      1.0000 0.84047  0.26683  0.65323  Biso   1.000  C
  H63      1.0000 0.80917  0.24783  0.66253  Biso   1.000  H
  C88      1.0000 0.91097  0.28353  0.71993  Biso   1.000  C
  H64      1.0000 0.93037  0.27603  0.77413  Biso   1.000  H
  Ag9      1.0000 0.49228  0.47649  0.82363  Biso   1.000  Ag
  O9       1.0000 0.66677  0.66883  0.61913  Biso   1.000  O
  N17      1.0000 0.53157  0.53683  0.67833  Biso   1.000  N
  N18      1.0000 0.74397  0.61153  0.73133  Biso   1.000  N
  C89      1.0000 0.51007  0.55063  0.58233  Biso   1.000  C
  H65      1.0000 0.47847  0.53313  0.57503  Biso   1.000  H
  C90      1.0000 0.53197  0.58923  0.49303  Biso   1.000  C
  H66      1.0000 0.51577  0.59783  0.42483  Biso   1.000  H
  C91      1.0000 0.57737  0.61503  0.50373  Biso   1.000  C
  H67      1.0000 0.59297  0.64213  0.44623  Biso   1.000  H
  C92      1.0000 0.60007  0.60053  0.60073  Biso   1.000  C
  C93      1.0000 0.57587  0.56133  0.68423  Biso   1.000  C
  H68      1.0000 0.59147  0.55123  0.74933  Biso   1.000  H
  C94      1.0000 0.64947  0.62863  0.61963  Biso   1.000  C
  C95      1.0000 0.67667  0.60663  0.63223  Biso   1.000  C
  C96      1.0000 0.66607  0.56763  0.55203  Biso   1.000  C
  H69      1.0000 0.63917  0.55193  0.49283  Biso   1.000  H
  C97      1.0000 0.69587  0.55233  0.56073  Biso   1.000  C
  H70      1.0000 0.69037  0.52663  0.50183  Biso   1.000  H
  C98      1.0000 0.73317  0.57363  0.65323  Biso   1.000  C
  H71      1.0000 0.75217  0.56133  0.66253  Biso   1.000  H
  C99      1.0000 0.71647  0.62743  0.71993  Biso   1.000  C
  H72      1.0000 0.72397  0.65433  0.77413  Biso   1.000  H
  Ag10     1.0000 0.80983  0.65088  0.84303  Biso   1.000  Ag
  O10      1.0000 0.00217  0.66873  0.04753  Biso   1.000  O
  N19      1.0000 0.87017  0.67193  0.98833  Biso   1.000  N
  N20      1.0000 0.94487  0.53423  0.93533  Biso   1.000  N
  C100     1.0000 0.88397  0.70723  0.08433  Biso   1.000  C
  H73      1.0000 0.86647  0.72133  0.09163  Biso   1.000  H
  C101     1.0000 0.92257  0.72393  0.17363  Biso   1.000  C
  H74      1.0000 0.93117  0.74873  0.24183  Biso   1.000  H
  C102     1.0000 0.94837  0.70433  0.16293  Biso   1.000  C
  H75      1.0000 0.97547  0.71583  0.22043  Biso   1.000  H
  C103     1.0000 0.93387  0.66713  0.06593  Biso   1.000  C
  C104     1.0000 0.89467  0.65213  0.98243  Biso   1.000  C
  H76      1.0000 0.88457  0.62643  0.91733  Biso   1.000  H
  C105     1.0000 0.96197  0.64583  0.04703  Biso   1.000  C
  C106     1.0000 0.93997  0.59663  0.03443  Biso   1.000  C
  C107     1.0000 0.90097  0.56823  0.11463  Biso   1.000  C
  H77      1.0000 0.88527  0.57943  0.17383  Biso   1.000  H
  C108     1.0000 0.88567  0.52313  0.10593  Biso   1.000  C
  H78      1.0000 0.85997  0.50293  0.16483  Biso   1.000  H
  C109     1.0000 0.90697  0.50713  0.01343  Biso   1.000  C
  H79      1.0000 0.89467  0.47583  0.00413  Biso   1.000  H
  C110     1.0000 0.96077  0.57763  0.94673  Biso   1.000  C
  H80      1.0000 0.98767  0.59703  0.89253  Biso   1.000  H
  Ag11     1.0000 0.34912  0.15894  0.84303  Biso   1.000  Ag
  O11      1.0000 0.33127  0.33343  0.04753  Biso   1.000  O
  N21      1.0000 0.32807  0.19823  0.98833  Biso   1.000  N
  N22      1.0000 0.46577  0.41063  0.93533  Biso   1.000  N
  C111     1.0000 0.29277  0.17673  0.08433  Biso   1.000  C
  H81      1.0000 0.27867  0.14513  0.09163  Biso   1.000  H
  C112     1.0000 0.27607  0.19863  0.17363  Biso   1.000  C
  H82      1.0000 0.25127  0.18243  0.24183  Biso   1.000  H
  C113     1.0000 0.29567  0.24403  0.16293  Biso   1.000  C
  H83      1.0000 0.28417  0.25963  0.22043  Biso   1.000  H
  C114     1.0000 0.33287  0.26673  0.06593  Biso   1.000  C
  C115     1.0000 0.34787  0.24253  0.98243  Biso   1.000  C
  H84      1.0000 0.37357  0.25813  0.91733  Biso   1.000  H
  C116     1.0000 0.35417  0.31613  0.04703  Biso   1.000  C
  C117     1.0000 0.40337  0.34333  0.03443  Biso   1.000  C
  C118     1.0000 0.43177  0.33273  0.11463  Biso   1.000  C
  H85      1.0000 0.42057  0.30583  0.17383  Biso   1.000  H
  C119     1.0000 0.47687  0.36253  0.10593  Biso   1.000  C
  H86      1.0000 0.49707  0.35703  0.16483  Biso   1.000  H
  C120     1.0000 0.49287  0.39983  0.01343  Biso   1.000  C
  H87      1.0000 0.52417  0.41883  0.00413  Biso   1.000  H
  C121     1.0000 0.42237  0.38313  0.94673  Biso   1.000  C
  H88      1.0000 0.40297  0.39063  0.89253  Biso   1.000  H
  Ag12     1.0000 0.84106  0.19017  0.84303  Biso   1.000  Ag
  O12      1.0000 0.66657  0.99783  0.04753  Biso   1.000  O
  N23      1.0000 0.80177  0.12983  0.98833  Biso   1.000  N
  N24      1.0000 0.58937  0.05513  0.93533  Biso   1.000  N
  C122     1.0000 0.82327  0.11603  0.08433  Biso   1.000  C
  H89      1.0000 0.85487  0.13353  0.09163  Biso   1.000  H
  C123     1.0000 0.80137  0.07743  0.17363  Biso   1.000  C
  H90      1.0000 0.81757  0.06883  0.24183  Biso   1.000  H
  C124     1.0000 0.75597  0.05163  0.16293  Biso   1.000  C
  H91      1.0000 0.74037  0.02453  0.22043  Biso   1.000  H
  C125     1.0000 0.73327  0.06613  0.06593  Biso   1.000  C
  C126     1.0000 0.75747  0.10533  0.98243  Biso   1.000  C
  H92      1.0000 0.74187  0.11543  0.91733  Biso   1.000  H
  C127     1.0000 0.68387  0.03803  0.04703  Biso   1.000  C
  C128     1.0000 0.65667  0.06003  0.03443  Biso   1.000  C
  C129     1.0000 0.66727  0.09903  0.11463  Biso   1.000  C
  H93      1.0000 0.69417  0.11473  0.17383  Biso   1.000  H
  C130     1.0000 0.63747  0.11433  0.10593  Biso   1.000  C
  H94      1.0000 0.64297  0.14003  0.16483  Biso   1.000  H
  C131     1.0000 0.60017  0.09303  0.01343  Biso   1.000  C
  H95      1.0000 0.58117  0.10533  0.00413  Biso   1.000  H
  C132     1.0000 0.61687  0.03923  0.94673  Biso   1.000  C
  H96      1.0000 0.60937  0.01233  0.89253  Biso   1.000  H
  Ag13     1.0000 0.19017  0.34912  0.15697  Biso   1.000  Ag
  O13      1.0000 0.99783  0.33127  0.95247  Biso   1.000  O
  N25      1.0000 0.12983  0.32807  0.01167  Biso   1.000  N
  N26      1.0000 0.05513  0.46577  0.06467  Biso   1.000  N
  C133     1.0000 0.11603  0.29277  0.91567  Biso   1.000  C
  H97      1.0000 0.13353  0.27867  0.90837  Biso   1.000  H
  C134     1.0000 0.07743  0.27607  0.82637  Biso   1.000  C
  H98      1.0000 0.06883  0.25127  0.75817  Biso   1.000  H
  C135     1.0000 0.05163  0.29567  0.83707  Biso   1.000  C
  H99      1.0000 0.02453  0.28417  0.77957  Biso   1.000  H
  C136     1.0000 0.06613  0.33287  0.93407  Biso   1.000  C
  C137     1.0000 0.10533  0.34787  0.01757  Biso   1.000  C
  H100     1.0000 0.11543  0.37357  0.08267  Biso   1.000  H
  C138     1.0000 0.03803  0.35417  0.95297  Biso   1.000  C
  C139     1.0000 0.06003  0.40337  0.96557  Biso   1.000  C
  C140     1.0000 0.09903  0.43177  0.88537  Biso   1.000  C
  H101     1.0000 0.11473  0.42057  0.82617  Biso   1.000  H
  C141     1.0000 0.11433  0.47687  0.89407  Biso   1.000  C
  H102     1.0000 0.14003  0.49707  0.83517  Biso   1.000  H
  C142     1.0000 0.09303  0.49287  0.98657  Biso   1.000  C
  H103     1.0000 0.10533  0.52417  0.99587  Biso   1.000  H
  C143     1.0000 0.03923  0.42237  0.05327  Biso   1.000  C
  H104     1.0000 0.01233  0.40297  0.10747  Biso   1.000  H
  Ag14     1.0000 0.65088  0.84106  0.15697  Biso   1.000  Ag
  O14      1.0000 0.66873  0.66657  0.95247  Biso   1.000  O
  N27      1.0000 0.67193  0.80177  0.01167  Biso   1.000  N
  N28      1.0000 0.53423  0.58937  0.06467  Biso   1.000  N
  C144     1.0000 0.70723  0.82327  0.91567  Biso   1.000  C
  H105     1.0000 0.72133  0.85487  0.90837  Biso   1.000  H
  C145     1.0000 0.72393  0.80137  0.82637  Biso   1.000  C
  H106     1.0000 0.74873  0.81757  0.75817  Biso   1.000  H
  C146     1.0000 0.70433  0.75597  0.83707  Biso   1.000  C
  H107     1.0000 0.71583  0.74037  0.77957  Biso   1.000  H
  C147     1.0000 0.66713  0.73327  0.93407  Biso   1.000  C
  C148     1.0000 0.65213  0.75747  0.01757  Biso   1.000  C
  H108     1.0000 0.62643  0.74187  0.08267  Biso   1.000  H
  C149     1.0000 0.64583  0.68387  0.95297  Biso   1.000  C
  C150     1.0000 0.59663  0.65667  0.96557  Biso   1.000  C
  C151     1.0000 0.56823  0.66727  0.88537  Biso   1.000  C
  H109     1.0000 0.57943  0.69417  0.82617  Biso   1.000  H
  C152     1.0000 0.52313  0.63747  0.89407  Biso   1.000  C
  H110     1.0000 0.50293  0.64297  0.83517  Biso   1.000  H
  C153     1.0000 0.50713  0.60017  0.98657  Biso   1.000  C
  H111     1.0000 0.47583  0.58117  0.99587  Biso   1.000  H
  C154     1.0000 0.57763  0.61687  0.05327  Biso   1.000  C
  H112     1.0000 0.59703  0.60937  0.10747  Biso   1.000  H
  Ag15     1.0000 0.15894  0.80983  0.15697  Biso   1.000  Ag
  O15      1.0000 0.33343  0.00217  0.95247  Biso   1.000  O
  N29      1.0000 0.19823  0.87017  0.01167  Biso   1.000  N
  N30      1.0000 0.41063  0.94487  0.06467  Biso   1.000  N
  C155     1.0000 0.17673  0.88397  0.91567  Biso   1.000  C
  H113     1.0000 0.14513  0.86647  0.90837  Biso   1.000  H
  C156     1.0000 0.19863  0.92257  0.82637  Biso   1.000  C
  H114     1.0000 0.18243  0.93117  0.75817  Biso   1.000  H
  C157     1.0000 0.24403  0.94837  0.83707  Biso   1.000  C
  H115     1.0000 0.25963  0.97547  0.77957  Biso   1.000  H
  C158     1.0000 0.26673  0.93387  0.93407  Biso   1.000  C
  C159     1.0000 0.24253  0.89467  0.01757  Biso   1.000  C
  H116     1.0000 0.25813  0.88457  0.08267  Biso   1.000  H
  C160     1.0000 0.31613  0.96197  0.95297  Biso   1.000  C
  C161     1.0000 0.34333  0.93997  0.96557  Biso   1.000  C
  C162     1.0000 0.33273  0.90097  0.88537  Biso   1.000  C
  H117     1.0000 0.30583  0.88527  0.82617  Biso   1.000  H
  C163     1.0000 0.36253  0.88567  0.89407  Biso   1.000  C
  H118     1.0000 0.35703  0.85997  0.83517  Biso   1.000  H
  C164     1.0000 0.39983  0.90697  0.98657  Biso   1.000  C
  H119     1.0000 0.41883  0.89467  0.99587  Biso   1.000  H
  C165     1.0000 0.38313  0.96077  0.05327  Biso   1.000  C
  H120     1.0000 0.39063  0.98767  0.10747  Biso   1.000  H
  Ag16     1.0000 0.47649  0.98422  0.17637  Biso   1.000  Ag
  O16      1.0000 0.66883  0.00207  0.38087  Biso   1.000  O
  N31      1.0000 0.53683  0.00527  0.32167  Biso   1.000  N
  N32      1.0000 0.61153  0.86757  0.26867  Biso   1.000  N
  C166     1.0000 0.55063  0.04057  0.41767  Biso   1.000  C
  H121     1.0000 0.53313  0.05467  0.42497  Biso   1.000  H
  C167     1.0000 0.58923  0.05727  0.50697  Biso   1.000  C
  H122     1.0000 0.59783  0.08207  0.57517  Biso   1.000  H
  C168     1.0000 0.61503  0.03767  0.49627  Biso   1.000  C
  H123     1.0000 0.64213  0.04917  0.55377  Biso   1.000  H
  C169     1.0000 0.60053  0.00047  0.39927  Biso   1.000  C
  C170     1.0000 0.56133  0.98547  0.31577  Biso   1.000  C
  H124     1.0000 0.55123  0.95977  0.25067  Biso   1.000  H
  C171     1.0000 0.62863  0.97917  0.38037  Biso   1.000  C
  C172     1.0000 0.60663  0.92997  0.36777  Biso   1.000  C
  C173     1.0000 0.56763  0.90157  0.44797  Biso   1.000  C
  H125     1.0000 0.55193  0.91277  0.50717  Biso   1.000  H
  C174     1.0000 0.55233  0.85647  0.43927  Biso   1.000  C
  H126     1.0000 0.52663  0.83627  0.49817  Biso   1.000  H
  C175     1.0000 0.57363  0.84047  0.34677  Biso   1.000  C
  H127     1.0000 0.56133  0.80917  0.33747  Biso   1.000  H
  C176     1.0000 0.62743  0.91097  0.28007  Biso   1.000  C
  H128     1.0000 0.65433  0.93037  0.22587  Biso   1.000  H
  Ag17     1.0000 0.01578  0.49228  0.17637  Biso   1.000  Ag
  O17      1.0000 0.99793  0.66677  0.38087  Biso   1.000  O
  N33      1.0000 0.99473  0.53157  0.32167  Biso   1.000  N
  N34      1.0000 0.13243  0.74397  0.26867  Biso   1.000  N
  C177     1.0000 0.95943  0.51007  0.41767  Biso   1.000  C
  H129     1.0000 0.94533  0.47847  0.42497  Biso   1.000  H
  C178     1.0000 0.94273  0.53197  0.50697  Biso   1.000  C
  H130     1.0000 0.91793  0.51577  0.57517  Biso   1.000  H
  C179     1.0000 0.96233  0.57737  0.49627  Biso   1.000  C
  H131     1.0000 0.95083  0.59297  0.55377  Biso   1.000  H
  C180     1.0000 0.99953  0.60007  0.39927  Biso   1.000  C
  C181     1.0000 0.01453  0.57587  0.31577  Biso   1.000  C
  H132     1.0000 0.04023  0.59147  0.25067  Biso   1.000  H
  C182     1.0000 0.02083  0.64947  0.38037  Biso   1.000  C
  C183     1.0000 0.07003  0.67667  0.36777  Biso   1.000  C
  C184     1.0000 0.09843  0.66607  0.44797  Biso   1.000  C
  H133     1.0000 0.08723  0.63917  0.50717  Biso   1.000  H
  C185     1.0000 0.14353  0.69587  0.43927  Biso   1.000  C
  H134     1.0000 0.16373  0.69037  0.49817  Biso   1.000  H
  C186     1.0000 0.15953  0.73317  0.34677  Biso   1.000  C
  H135     1.0000 0.19083  0.75217  0.33747  Biso   1.000  H
  C187     1.0000 0.08903  0.71647  0.28007  Biso   1.000  C
  H136     1.0000 0.06963  0.72397  0.22587  Biso   1.000  H
  Ag18     1.0000 0.50772  0.52351  0.17637  Biso   1.000  Ag
  O18      1.0000 0.33323  0.33117  0.38087  Biso   1.000  O
  N35      1.0000 0.46843  0.46317  0.32167  Biso   1.000  N
  N36      1.0000 0.25603  0.38847  0.26867  Biso   1.000  N
  C188     1.0000 0.48993  0.44937  0.41767  Biso   1.000  C
  H137     1.0000 0.52153  0.46687  0.42497  Biso   1.000  H
  C189     1.0000 0.46803  0.41077  0.50697  Biso   1.000  C
  H138     1.0000 0.48423  0.40217  0.57517  Biso   1.000  H
  C190     1.0000 0.42263  0.38497  0.49627  Biso   1.000  C
  H139     1.0000 0.40703  0.35787  0.55377  Biso   1.000  H
  C191     1.0000 0.39993  0.39947  0.39927  Biso   1.000  C
  C192     1.0000 0.42413  0.43867  0.31577  Biso   1.000  C
  H140     1.0000 0.40853  0.44877  0.25067  Biso   1.000  H
  C193     1.0000 0.35053  0.37137  0.38037  Biso   1.000  C
  C194     1.0000 0.32333  0.39337  0.36777  Biso   1.000  C
  C195     1.0000 0.33393  0.43237  0.44797  Biso   1.000  C
  H141     1.0000 0.36083  0.44807  0.50717  Biso   1.000  H
  C196     1.0000 0.30413  0.44767  0.43927  Biso   1.000  C
  H142     1.0000 0.30963  0.47337  0.49817  Biso   1.000  H
  C197     1.0000 0.26683  0.42637  0.34677  Biso   1.000  C
  H143     1.0000 0.24783  0.43867  0.33747  Biso   1.000  H
  C198     1.0000 0.28353  0.37257  0.28007  Biso   1.000  C
  H144     1.0000 0.27603  0.34567  0.22587  Biso   1.000  H
