data_image0
_cell_length_a       10.1792
_cell_length_b       6.7279
_cell_length_c       12.8158
_cell_angle_alpha    90
_cell_angle_beta     111.698
_cell_angle_gamma    90

_symmetry_space_group_name_H-M    "P 1"
_symmetry_int_tables_number       1

loop_
  _symmetry_equiv_pos_as_xyz
  'x, y, z'

loop_
  _atom_site_label
  _atom_site_occupancy
  _atom_site_fract_x
  _atom_site_fract_y
  _atom_site_fract_z
  _atom_site_thermal_displace_type
  _atom_site_B_iso_or_equiv
  _atom_site_type_symbol
  N1       1.0000 0.87510  0.41420  0.74262  Biso   1.000  N
  N2       1.0000 0.93490  0.34590  0.84777  Biso   1.000  N
  N3       1.0000 0.12490  0.91420  0.25738  Biso   1.000  N
  N4       1.0000 0.06510  0.84590  0.15223  Biso   1.000  N
  N5       1.0000 0.12490  0.58580  0.25738  Biso   1.000  N
  N6       1.0000 0.06510  0.65410  0.15223  Biso   1.000  N
  N7       1.0000 0.87510  0.08580  0.74262  Biso   1.000  N
  N8       1.0000 0.93490  0.15410  0.84777  Biso   1.000  N
  Co1      1.0000 0.13120  0.25000  0.26600  Biso   1.000  Co
  C1       1.0000 0.39370  0.25000  0.34160  Biso   1.000  C
  C2       1.0000 0.55210  0.25000  0.39150  Biso   1.000  C
  C3       1.0000 0.63020  0.25000  0.32280  Biso   1.000  C
  H1       1.0000 0.58420  0.25000  0.24520  Biso   1.000  H
  C4       1.0000 0.77730  0.25000  0.37000  Biso   1.000  C
  C5       1.0000 0.84570  0.25000  0.48640  Biso   1.000  C
  H2       1.0000 0.94390  0.25000  0.51810  Biso   1.000  H
  C6       1.0000 0.76760  0.25000  0.55540  Biso   1.000  C
  C7       1.0000 0.62070  0.25000  0.50800  Biso   1.000  C
  H3       1.0000 0.56830  0.25000  0.55400  Biso   1.000  H
  C8       1.0000 0.86300  0.25000  0.29530  Biso   1.000  C
  C9       1.0000 0.83960  0.25000  0.67930  Biso   1.000  C
  O1       1.0000 0.33060  0.25000  0.23630  Biso   1.000  O
  O2       1.0000 0.32460  0.25000  0.40460  Biso   1.000  O
  O3       1.0000 0.80080  0.25000  0.19240  Biso   1.000  O
  O4       1.0000 0.99400  0.25000  0.34400  Biso   1.000  O
  O5       1.0000 0.00520  0.25000  0.09537  Biso   1.000  O
  H4       1.0000 0.93900  0.25000  0.10800  Biso   1.000  H
  Co2      1.0000 0.86880  0.75000  0.73400  Biso   1.000  Co
  C10      1.0000 0.60630  0.75000  0.65840  Biso   1.000  C
  C11      1.0000 0.44790  0.75000  0.60850  Biso   1.000  C
  C12      1.0000 0.36980  0.75000  0.67720  Biso   1.000  C
  H5       1.0000 0.41580  0.75000  0.75480  Biso   1.000  H
  C13      1.0000 0.22270  0.75000  0.63000  Biso   1.000  C
  C14      1.0000 0.15430  0.75000  0.51360  Biso   1.000  C
  H6       1.0000 0.05610  0.75000  0.48190  Biso   1.000  H
  C15      1.0000 0.23240  0.75000  0.44460  Biso   1.000  C
  C16      1.0000 0.37930  0.75000  0.49200  Biso   1.000  C
  H7       1.0000 0.43170  0.75000  0.44600  Biso   1.000  H
  C17      1.0000 0.13700  0.75000  0.70470  Biso   1.000  C
  C18      1.0000 0.16040  0.75000  0.32070  Biso   1.000  C
  O6       1.0000 0.66940  0.75000  0.76370  Biso   1.000  O
  O7       1.0000 0.67540  0.75000  0.59540  Biso   1.000  O
  O8       1.0000 0.19920  0.75000  0.80760  Biso   1.000  O
  O9       1.0000 0.00600  0.75000  0.65600  Biso   1.000  O
  O10      1.0000 0.99480  0.75000  0.90463  Biso   1.000  O
  H8       1.0000 0.06100  0.75000  0.89200  Biso   1.000  H
  Co3      1.0000 0.00000  0.50000  0.00000  Biso   1.000  Co
  Co4      1.0000 0.00000  0.00000  0.00000  Biso   1.000  Co
