data_image0
_cell_length_a       34.0297
_cell_length_b       34.0297
_cell_length_c       8.3643
_cell_angle_alpha    90
_cell_angle_beta     90
_cell_angle_gamma    120

_symmetry_space_group_name_H-M    "P 1"
_symmetry_int_tables_number       1

loop_
  _symmetry_equiv_pos_as_xyz
  'x, y, z'

loop_
  _atom_site_label
  _atom_site_occupancy
  _atom_site_fract_x
  _atom_site_fract_y
  _atom_site_fract_z
  _atom_site_thermal_displace_type
  _atom_site_B_iso_or_equiv
  _atom_site_type_symbol
  Ag1      1.0000 0.14786  0.32077  0.50677  Biso   1.000  Ag
  O1       1.0000 0.33501  0.32789  0.77960  Biso   1.000  O
  N1       1.0000 0.20660  0.33997  0.66160  Biso   1.000  N
  N2       1.0000 0.27824  0.19639  0.61130  Biso   1.000  N
  C1       1.0000 0.22036  0.37545  0.76080  Biso   1.000  C
  H1       1.0000 0.20390  0.39130  0.76130  Biso   1.000  H
  C2       1.0000 0.25715  0.39023  0.86230  Biso   1.000  C
  H2       1.0000 0.26540  0.41530  0.93150  Biso   1.000  H
  C3       1.0000 0.28159  0.36796  0.86120  Biso   1.000  C
  H3       1.0000 0.30770  0.37800  0.92670  Biso   1.000  H
  C4       1.0000 0.26699  0.33006  0.76110  Biso   1.000  C
  C5       1.0000 0.22959  0.31716  0.66500  Biso   1.000  C
  H4       1.0000 0.21960  0.29120  0.59860  Biso   1.000  H
  C6       1.0000 0.29437  0.30682  0.75580  Biso   1.000  C
  C7       1.0000 0.27121  0.25724  0.72390  Biso   1.000  C
  C8       1.0000 0.22811  0.22701  0.78080  Biso   1.000  C
  H5       1.0000 0.21090  0.23740  0.83820  Biso   1.000  H
  C9       1.0000 0.21080  0.18096  0.75120  Biso   1.000  C
  H6       1.0000 0.18150  0.15920  0.78870  Biso   1.000  H
  C10      1.0000 0.23688  0.16719  0.66660  Biso   1.000  C
  H7       1.0000 0.22480  0.13570  0.64710  Biso   1.000  H
  C11      1.0000 0.29508  0.24043  0.64060  Biso   1.000  C
  H8       1.0000 0.32470  0.26130  0.60290  Biso   1.000  H
  Ag2      1.0000 0.81452  0.65410  0.84010  Biso   1.000  Ag
  O2       1.0000 0.00168  0.66122  0.11293  Biso   1.000  O
  N3       1.0000 0.87327  0.67330  0.99493  Biso   1.000  N
  N4       1.0000 0.94491  0.52972  0.94463  Biso   1.000  N
  C12      1.0000 0.88703  0.70878  0.09413  Biso   1.000  C
  H9       1.0000 0.87057  0.72463  0.09463  Biso   1.000  H
  C13      1.0000 0.92382  0.72356  0.19563  Biso   1.000  C
  H10      1.0000 0.93207  0.74863  0.26483  Biso   1.000  H
  C14      1.0000 0.94826  0.70129  0.19453  Biso   1.000  C
  H11      1.0000 0.97437  0.71133  0.26003  Biso   1.000  H
  C15      1.0000 0.93366  0.66339  0.09443  Biso   1.000  C
  C16      1.0000 0.89626  0.65049  0.99833  Biso   1.000  C
  H12      1.0000 0.88627  0.62453  0.93193  Biso   1.000  H
  C17      1.0000 0.96104  0.64015  0.08913  Biso   1.000  C
  C18      1.0000 0.93788  0.59057  0.05723  Biso   1.000  C
  C19      1.0000 0.89478  0.56034  0.11413  Biso   1.000  C
  H13      1.0000 0.87757  0.57073  0.17153  Biso   1.000  H
  C20      1.0000 0.87747  0.51429  0.08453  Biso   1.000  C
  H14      1.0000 0.84817  0.49253  0.12203  Biso   1.000  H
  C21      1.0000 0.90355  0.50052  0.99993  Biso   1.000  C
  H15      1.0000 0.89147  0.46903  0.98043  Biso   1.000  H
  C22      1.0000 0.96175  0.57376  0.97393  Biso   1.000  C
  H16      1.0000 0.99137  0.59463  0.93623  Biso   1.000  H
  Ag3      1.0000 0.48119  0.98744  0.17344  Biso   1.000  Ag
  O3       1.0000 0.66834  0.99456  0.44627  Biso   1.000  O
  N5       1.0000 0.53993  0.00664  0.32827  Biso   1.000  N
  N6       1.0000 0.61157  0.86306  0.27797  Biso   1.000  N
  C23      1.0000 0.55369  0.04212  0.42747  Biso   1.000  C
  H17      1.0000 0.53723  0.05797  0.42797  Biso   1.000  H
  C24      1.0000 0.59048  0.05690  0.52897  Biso   1.000  C
  H18      1.0000 0.59873  0.08197  0.59817  Biso   1.000  H
  C25      1.0000 0.61492  0.03463  0.52787  Biso   1.000  C
  H19      1.0000 0.64103  0.04467  0.59337  Biso   1.000  H
  C26      1.0000 0.60032  0.99673  0.42777  Biso   1.000  C
  C27      1.0000 0.56292  0.98383  0.33167  Biso   1.000  C
  H20      1.0000 0.55293  0.95787  0.26527  Biso   1.000  H
  C28      1.0000 0.62770  0.97349  0.42247  Biso   1.000  C
  C29      1.0000 0.60454  0.92391  0.39057  Biso   1.000  C
  C30      1.0000 0.56144  0.89368  0.44747  Biso   1.000  C
  H21      1.0000 0.54423  0.90407  0.50487  Biso   1.000  H
  C31      1.0000 0.54413  0.84763  0.41787  Biso   1.000  C
  H22      1.0000 0.51483  0.82587  0.45537  Biso   1.000  H
  C32      1.0000 0.57021  0.83386  0.33327  Biso   1.000  C
  H23      1.0000 0.55813  0.80237  0.31377  Biso   1.000  H
  C33      1.0000 0.62841  0.90710  0.30727  Biso   1.000  C
  H24      1.0000 0.65803  0.92797  0.26957  Biso   1.000  H
  Ag4      1.0000 0.67923  0.82709  0.50677  Biso   1.000  Ag
  O4       1.0000 0.67211  0.00712  0.77960  Biso   1.000  O
  N7       1.0000 0.66003  0.86663  0.66160  Biso   1.000  N
  N8       1.0000 0.80361  0.08185  0.61130  Biso   1.000  N
  C34      1.0000 0.62455  0.84491  0.76080  Biso   1.000  C
  H25      1.0000 0.60870  0.81260  0.76130  Biso   1.000  H
  C35      1.0000 0.60977  0.86692  0.86230  Biso   1.000  C
  H26      1.0000 0.58470  0.85010  0.93150  Biso   1.000  H
  C36      1.0000 0.63204  0.91363  0.86120  Biso   1.000  C
  H27      1.0000 0.62200  0.92970  0.92670  Biso   1.000  H
  C37      1.0000 0.66994  0.93693  0.76110  Biso   1.000  C
  C38      1.0000 0.68284  0.91243  0.66500  Biso   1.000  C
  H28      1.0000 0.70880  0.92840  0.59860  Biso   1.000  H
  C39      1.0000 0.69318  0.98755  0.75580  Biso   1.000  C
  C40      1.0000 0.74276  0.01397  0.72390  Biso   1.000  C
  C41      1.0000 0.77299  0.00110  0.78080  Biso   1.000  C
  H29      1.0000 0.76260  0.97350  0.83820  Biso   1.000  H
  C42      1.0000 0.81904  0.02984  0.75120  Biso   1.000  C
  H30      1.0000 0.84080  0.02230  0.78870  Biso   1.000  H
  C43      1.0000 0.83281  0.06969  0.66660  Biso   1.000  C
  H31      1.0000 0.86430  0.08910  0.64710  Biso   1.000  H
  C44      1.0000 0.75957  0.05465  0.64060  Biso   1.000  C
  H32      1.0000 0.73870  0.06340  0.60290  Biso   1.000  H
  Ag5      1.0000 0.34590  0.16042  0.84010  Biso   1.000  Ag
  O5       1.0000 0.33878  0.34045  0.11293  Biso   1.000  O
  N9       1.0000 0.32670  0.19996  0.99493  Biso   1.000  N
  N10      1.0000 0.47028  0.41518  0.94463  Biso   1.000  N
  C45      1.0000 0.29122  0.17824  0.09413  Biso   1.000  C
  H33      1.0000 0.27537  0.14593  0.09463  Biso   1.000  H
  C46      1.0000 0.27644  0.20025  0.19563  Biso   1.000  C
  H34      1.0000 0.25137  0.18343  0.26483  Biso   1.000  H
  C47      1.0000 0.29871  0.24696  0.19453  Biso   1.000  C
  H35      1.0000 0.28867  0.26303  0.26003  Biso   1.000  H
  C48      1.0000 0.33661  0.27026  0.09443  Biso   1.000  C
  C49      1.0000 0.34951  0.24576  0.99833  Biso   1.000  C
  H36      1.0000 0.37547  0.26173  0.93193  Biso   1.000  H
  C50      1.0000 0.35985  0.32088  0.08913  Biso   1.000  C
  C51      1.0000 0.40943  0.34730  0.05723  Biso   1.000  C
  C52      1.0000 0.43966  0.33443  0.11413  Biso   1.000  C
  H37      1.0000 0.42927  0.30683  0.17153  Biso   1.000  H
  C53      1.0000 0.48571  0.36317  0.08453  Biso   1.000  C
  H38      1.0000 0.50747  0.35563  0.12203  Biso   1.000  H
  C54      1.0000 0.49948  0.40302  0.99993  Biso   1.000  C
  H39      1.0000 0.53097  0.42243  0.98043  Biso   1.000  H
  C55      1.0000 0.42624  0.38798  0.97393  Biso   1.000  C
  H40      1.0000 0.40537  0.39673  0.93623  Biso   1.000  H
  Ag6      1.0000 0.01256  0.49375  0.17344  Biso   1.000  Ag
  O6       1.0000 0.00544  0.67379  0.44627  Biso   1.000  O
  N11      1.0000 0.99336  0.53330  0.32827  Biso   1.000  N
  N12      1.0000 0.13694  0.74852  0.27797  Biso   1.000  N
  C56      1.0000 0.95788  0.51158  0.42747  Biso   1.000  C
  H41      1.0000 0.94203  0.47927  0.42797  Biso   1.000  H
  C57      1.0000 0.94310  0.53359  0.52897  Biso   1.000  C
  H42      1.0000 0.91803  0.51677  0.59817  Biso   1.000  H
  C58      1.0000 0.96537  0.58030  0.52787  Biso   1.000  C
  H43      1.0000 0.95533  0.59637  0.59337  Biso   1.000  H
  C59      1.0000 0.00327  0.60360  0.42777  Biso   1.000  C
  C60      1.0000 0.01617  0.57910  0.33167  Biso   1.000  C
  H44      1.0000 0.04213  0.59507  0.26527  Biso   1.000  H
  C61      1.0000 0.02651  0.65422  0.42247  Biso   1.000  C
  C62      1.0000 0.07609  0.68064  0.39057  Biso   1.000  C
  C63      1.0000 0.10632  0.66777  0.44747  Biso   1.000  C
  H45      1.0000 0.09593  0.64017  0.50487  Biso   1.000  H
  C64      1.0000 0.15237  0.69651  0.41787  Biso   1.000  C
  H46      1.0000 0.17413  0.68897  0.45537  Biso   1.000  H
  C65      1.0000 0.16614  0.73636  0.33327  Biso   1.000  C
  H47      1.0000 0.19763  0.75577  0.31377  Biso   1.000  H
  C66      1.0000 0.09290  0.72132  0.30727  Biso   1.000  C
  H48      1.0000 0.07203  0.73007  0.26957  Biso   1.000  H
  Ag7      1.0000 0.17291  0.85214  0.50677  Biso   1.000  Ag
  O7       1.0000 0.99288  0.66499  0.77960  Biso   1.000  O
  N13      1.0000 0.13337  0.79340  0.66160  Biso   1.000  N
  N14      1.0000 0.91815  0.72176  0.61130  Biso   1.000  N
  C67      1.0000 0.15509  0.77964  0.76080  Biso   1.000  C
  H49      1.0000 0.18740  0.79610  0.76130  Biso   1.000  H
  C68      1.0000 0.13308  0.74285  0.86230  Biso   1.000  C
  H50      1.0000 0.14990  0.73460  0.93150  Biso   1.000  H
  C69      1.0000 0.08637  0.71841  0.86120  Biso   1.000  C
  H51      1.0000 0.07030  0.69230  0.92670  Biso   1.000  H
  C70      1.0000 0.06307  0.73301  0.76110  Biso   1.000  C
  C71      1.0000 0.08757  0.77041  0.66500  Biso   1.000  C
  H52      1.0000 0.07160  0.78040  0.59860  Biso   1.000  H
  C72      1.0000 0.01245  0.70563  0.75580  Biso   1.000  C
  C73      1.0000 0.98603  0.72879  0.72390  Biso   1.000  C
  C74      1.0000 0.99890  0.77189  0.78080  Biso   1.000  C
  H53      1.0000 0.02650  0.78910  0.83820  Biso   1.000  H
  C75      1.0000 0.97016  0.78920  0.75120  Biso   1.000  C
  H54      1.0000 0.97770  0.81850  0.78870  Biso   1.000  H
  C76      1.0000 0.93031  0.76312  0.66660  Biso   1.000  C
  H55      1.0000 0.91090  0.77520  0.64710  Biso   1.000  H
  C77      1.0000 0.94535  0.70492  0.64060  Biso   1.000  C
  H56      1.0000 0.93660  0.67530  0.60290  Biso   1.000  H
  Ag8      1.0000 0.83958  0.18548  0.84010  Biso   1.000  Ag
  O8       1.0000 0.65955  0.99832  0.11293  Biso   1.000  O
  N15      1.0000 0.80004  0.12673  0.99493  Biso   1.000  N
  N16      1.0000 0.58482  0.05509  0.94463  Biso   1.000  N
  C78      1.0000 0.82176  0.11297  0.09413  Biso   1.000  C
  H57      1.0000 0.85407  0.12943  0.09463  Biso   1.000  H
  C79      1.0000 0.79975  0.07618  0.19563  Biso   1.000  C
  H58      1.0000 0.81657  0.06793  0.26483  Biso   1.000  H
  C80      1.0000 0.75304  0.05174  0.19453  Biso   1.000  C
  H59      1.0000 0.73697  0.02563  0.26003  Biso   1.000  H
  C81      1.0000 0.72974  0.06634  0.09443  Biso   1.000  C
  C82      1.0000 0.75424  0.10374  0.99833  Biso   1.000  C
  H60      1.0000 0.73827  0.11373  0.93193  Biso   1.000  H
  C83      1.0000 0.67912  0.03896  0.08913  Biso   1.000  C
  C84      1.0000 0.65270  0.06212  0.05723  Biso   1.000  C
  C85      1.0000 0.66557  0.10522  0.11413  Biso   1.000  C
  H61      1.0000 0.69317  0.12243  0.17153  Biso   1.000  H
  C86      1.0000 0.63683  0.12253  0.08453  Biso   1.000  C
  H62      1.0000 0.64437  0.15183  0.12203  Biso   1.000  H
  C87      1.0000 0.59698  0.09645  0.99993  Biso   1.000  C
  H63      1.0000 0.57757  0.10853  0.98043  Biso   1.000  H
  C88      1.0000 0.61202  0.03825  0.97393  Biso   1.000  C
  H64      1.0000 0.60327  0.00863  0.93623  Biso   1.000  H
  Ag9      1.0000 0.50625  0.51881  0.17344  Biso   1.000  Ag
  O9       1.0000 0.32621  0.33166  0.44627  Biso   1.000  O
  N17      1.0000 0.46670  0.46007  0.32827  Biso   1.000  N
  N18      1.0000 0.25148  0.38843  0.27797  Biso   1.000  N
  C89      1.0000 0.48842  0.44631  0.42747  Biso   1.000  C
  H65      1.0000 0.52073  0.46277  0.42797  Biso   1.000  H
  C90      1.0000 0.46641  0.40952  0.52897  Biso   1.000  C
  H66      1.0000 0.48323  0.40127  0.59817  Biso   1.000  H
  C91      1.0000 0.41970  0.38508  0.52787  Biso   1.000  C
  H67      1.0000 0.40363  0.35897  0.59337  Biso   1.000  H
  C92      1.0000 0.39640  0.39968  0.42777  Biso   1.000  C
  C93      1.0000 0.42090  0.43708  0.33167  Biso   1.000  C
  H68      1.0000 0.40493  0.44707  0.26527  Biso   1.000  H
  C94      1.0000 0.34578  0.37230  0.42247  Biso   1.000  C
  C95      1.0000 0.31936  0.39546  0.39057  Biso   1.000  C
  C96      1.0000 0.33223  0.43856  0.44747  Biso   1.000  C
  H69      1.0000 0.35983  0.45577  0.50487  Biso   1.000  H
  C97      1.0000 0.30349  0.45587  0.41787  Biso   1.000  C
  H70      1.0000 0.31103  0.48517  0.45537  Biso   1.000  H
  C98      1.0000 0.26364  0.42979  0.33327  Biso   1.000  C
  H71      1.0000 0.24423  0.44187  0.31377  Biso   1.000  H
  C99      1.0000 0.27868  0.37159  0.30727  Biso   1.000  C
  H72      1.0000 0.26993  0.34197  0.26957  Biso   1.000  H
  Ag10     1.0000 0.85214  0.67923  0.49323  Biso   1.000  Ag
  O10      1.0000 0.66499  0.67211  0.22040  Biso   1.000  O
  N19      1.0000 0.79340  0.66003  0.33840  Biso   1.000  N
  N20      1.0000 0.72176  0.80361  0.38870  Biso   1.000  N
  C100     1.0000 0.77964  0.62455  0.23920  Biso   1.000  C
  H73      1.0000 0.79610  0.60870  0.23870  Biso   1.000  H
  C101     1.0000 0.74285  0.60977  0.13770  Biso   1.000  C
  H74      1.0000 0.73460  0.58470  0.06850  Biso   1.000  H
  C102     1.0000 0.71841  0.63204  0.13880  Biso   1.000  C
  H75      1.0000 0.69230  0.62200  0.07330  Biso   1.000  H
  C103     1.0000 0.73301  0.66994  0.23890  Biso   1.000  C
  C104     1.0000 0.77041  0.68284  0.33500  Biso   1.000  C
  H76      1.0000 0.78040  0.70880  0.40140  Biso   1.000  H
  C105     1.0000 0.70563  0.69318  0.24420  Biso   1.000  C
  C106     1.0000 0.72879  0.74276  0.27610  Biso   1.000  C
  C107     1.0000 0.77189  0.77299  0.21920  Biso   1.000  C
  H77      1.0000 0.78910  0.76260  0.16180  Biso   1.000  H
  C108     1.0000 0.78920  0.81904  0.24880  Biso   1.000  C
  H78      1.0000 0.81850  0.84080  0.21130  Biso   1.000  H
  C109     1.0000 0.76312  0.83281  0.33340  Biso   1.000  C
  H79      1.0000 0.77520  0.86430  0.35290  Biso   1.000  H
  C110     1.0000 0.70492  0.75957  0.35940  Biso   1.000  C
  H80      1.0000 0.67530  0.73870  0.39710  Biso   1.000  H
  Ag11     1.0000 0.51881  0.01256  0.82656  Biso   1.000  Ag
  O11      1.0000 0.33166  0.00544  0.55373  Biso   1.000  O
  N21      1.0000 0.46007  0.99336  0.67173  Biso   1.000  N
  N22      1.0000 0.38843  0.13694  0.72203  Biso   1.000  N
  C111     1.0000 0.44631  0.95788  0.57253  Biso   1.000  C
  H81      1.0000 0.46277  0.94203  0.57203  Biso   1.000  H
  C112     1.0000 0.40952  0.94310  0.47103  Biso   1.000  C
  H82      1.0000 0.40127  0.91803  0.40183  Biso   1.000  H
  C113     1.0000 0.38508  0.96537  0.47213  Biso   1.000  C
  H83      1.0000 0.35897  0.95533  0.40663  Biso   1.000  H
  C114     1.0000 0.39968  0.00327  0.57223  Biso   1.000  C
  C115     1.0000 0.43708  0.01617  0.66833  Biso   1.000  C
  H84      1.0000 0.44707  0.04213  0.73473  Biso   1.000  H
  C116     1.0000 0.37230  0.02651  0.57753  Biso   1.000  C
  C117     1.0000 0.39546  0.07609  0.60943  Biso   1.000  C
  C118     1.0000 0.43856  0.10632  0.55253  Biso   1.000  C
  H85      1.0000 0.45577  0.09593  0.49513  Biso   1.000  H
  C119     1.0000 0.45587  0.15237  0.58213  Biso   1.000  C
  H86      1.0000 0.48517  0.17413  0.54463  Biso   1.000  H
  C120     1.0000 0.42979  0.16614  0.66673  Biso   1.000  C
  H87      1.0000 0.44187  0.19763  0.68623  Biso   1.000  H
  C121     1.0000 0.37159  0.09290  0.69273  Biso   1.000  C
  H88      1.0000 0.34197  0.07203  0.73043  Biso   1.000  H
  Ag12     1.0000 0.18548  0.34590  0.15990  Biso   1.000  Ag
  O12      1.0000 0.99832  0.33878  0.88707  Biso   1.000  O
  N23      1.0000 0.12673  0.32670  0.00507  Biso   1.000  N
  N24      1.0000 0.05509  0.47028  0.05537  Biso   1.000  N
  C122     1.0000 0.11297  0.29122  0.90587  Biso   1.000  C
  H89      1.0000 0.12943  0.27537  0.90537  Biso   1.000  H
  C123     1.0000 0.07618  0.27644  0.80437  Biso   1.000  C
  H90      1.0000 0.06793  0.25137  0.73517  Biso   1.000  H
  C124     1.0000 0.05174  0.29871  0.80547  Biso   1.000  C
  H91      1.0000 0.02563  0.28867  0.73997  Biso   1.000  H
  C125     1.0000 0.06634  0.33661  0.90557  Biso   1.000  C
  C126     1.0000 0.10374  0.34951  0.00167  Biso   1.000  C
  H92      1.0000 0.11373  0.37547  0.06807  Biso   1.000  H
  C127     1.0000 0.03896  0.35985  0.91087  Biso   1.000  C
  C128     1.0000 0.06212  0.40943  0.94277  Biso   1.000  C
  C129     1.0000 0.10522  0.43966  0.88587  Biso   1.000  C
  H93      1.0000 0.12243  0.42927  0.82847  Biso   1.000  H
  C130     1.0000 0.12253  0.48571  0.91547  Biso   1.000  C
  H94      1.0000 0.15183  0.50747  0.87797  Biso   1.000  H
  C131     1.0000 0.09645  0.49948  0.00007  Biso   1.000  C
  H95      1.0000 0.10853  0.53097  0.01957  Biso   1.000  H
  C132     1.0000 0.03825  0.42624  0.02607  Biso   1.000  C
  H96      1.0000 0.00863  0.40537  0.06377  Biso   1.000  H
  Ag13     1.0000 0.32077  0.17291  0.49323  Biso   1.000  Ag
  O13      1.0000 0.32789  0.99288  0.22040  Biso   1.000  O
  N25      1.0000 0.33997  0.13337  0.33840  Biso   1.000  N
  N26      1.0000 0.19639  0.91815  0.38870  Biso   1.000  N
  C133     1.0000 0.37545  0.15509  0.23920  Biso   1.000  C
  H97      1.0000 0.39130  0.18740  0.23870  Biso   1.000  H
  C134     1.0000 0.39023  0.13308  0.13770  Biso   1.000  C
  H98      1.0000 0.41530  0.14990  0.06850  Biso   1.000  H
  C135     1.0000 0.36796  0.08637  0.13880  Biso   1.000  C
  H99      1.0000 0.37800  0.07030  0.07330  Biso   1.000  H
  C136     1.0000 0.33006  0.06307  0.23890  Biso   1.000  C
  C137     1.0000 0.31716  0.08757  0.33500  Biso   1.000  C
  H100     1.0000 0.29120  0.07160  0.40140  Biso   1.000  H
  C138     1.0000 0.30682  0.01245  0.24420  Biso   1.000  C
  C139     1.0000 0.25724  0.98603  0.27610  Biso   1.000  C
  C140     1.0000 0.22701  0.99890  0.21920  Biso   1.000  C
  H101     1.0000 0.23740  0.02650  0.16180  Biso   1.000  H
  C141     1.0000 0.18096  0.97016  0.24880  Biso   1.000  C
  H102     1.0000 0.15920  0.97770  0.21130  Biso   1.000  H
  C142     1.0000 0.16719  0.93031  0.33340  Biso   1.000  C
  H103     1.0000 0.13570  0.91090  0.35290  Biso   1.000  H
  C143     1.0000 0.24043  0.94535  0.35940  Biso   1.000  C
  H104     1.0000 0.26130  0.93660  0.39710  Biso   1.000  H
  Ag14     1.0000 0.98744  0.50625  0.82656  Biso   1.000  Ag
  O14      1.0000 0.99456  0.32621  0.55373  Biso   1.000  O
  N27      1.0000 0.00664  0.46670  0.67173  Biso   1.000  N
  N28      1.0000 0.86306  0.25148  0.72203  Biso   1.000  N
  C144     1.0000 0.04212  0.48842  0.57253  Biso   1.000  C
  H105     1.0000 0.05797  0.52073  0.57203  Biso   1.000  H
  C145     1.0000 0.05690  0.46641  0.47103  Biso   1.000  C
  H106     1.0000 0.08197  0.48323  0.40183  Biso   1.000  H
  C146     1.0000 0.03463  0.41970  0.47213  Biso   1.000  C
  H107     1.0000 0.04467  0.40363  0.40663  Biso   1.000  H
  C147     1.0000 0.99673  0.39640  0.57223  Biso   1.000  C
  C148     1.0000 0.98383  0.42090  0.66833  Biso   1.000  C
  H108     1.0000 0.95787  0.40493  0.73473  Biso   1.000  H
  C149     1.0000 0.97349  0.34578  0.57753  Biso   1.000  C
  C150     1.0000 0.92391  0.31936  0.60943  Biso   1.000  C
  C151     1.0000 0.89368  0.33223  0.55253  Biso   1.000  C
  H109     1.0000 0.90407  0.35983  0.49513  Biso   1.000  H
  C152     1.0000 0.84763  0.30349  0.58213  Biso   1.000  C
  H110     1.0000 0.82587  0.31103  0.54463  Biso   1.000  H
  C153     1.0000 0.83386  0.26364  0.66673  Biso   1.000  C
  H111     1.0000 0.80237  0.24423  0.68623  Biso   1.000  H
  C154     1.0000 0.90710  0.27868  0.69273  Biso   1.000  C
  H112     1.0000 0.92797  0.26993  0.73043  Biso   1.000  H
  Ag15     1.0000 0.65410  0.83958  0.15990  Biso   1.000  Ag
  O15      1.0000 0.66122  0.65955  0.88707  Biso   1.000  O
  N29      1.0000 0.67330  0.80004  0.00507  Biso   1.000  N
  N30      1.0000 0.52972  0.58482  0.05537  Biso   1.000  N
  C155     1.0000 0.70878  0.82176  0.90587  Biso   1.000  C
  H113     1.0000 0.72463  0.85407  0.90537  Biso   1.000  H
  C156     1.0000 0.72356  0.79975  0.80437  Biso   1.000  C
  H114     1.0000 0.74863  0.81657  0.73517  Biso   1.000  H
  C157     1.0000 0.70129  0.75304  0.80547  Biso   1.000  C
  H115     1.0000 0.71133  0.73697  0.73997  Biso   1.000  H
  C158     1.0000 0.66339  0.72974  0.90557  Biso   1.000  C
  C159     1.0000 0.65049  0.75424  0.00167  Biso   1.000  C
  H116     1.0000 0.62453  0.73827  0.06807  Biso   1.000  H
  C160     1.0000 0.64015  0.67912  0.91087  Biso   1.000  C
  C161     1.0000 0.59057  0.65270  0.94277  Biso   1.000  C
  C162     1.0000 0.56034  0.66557  0.88587  Biso   1.000  C
  H117     1.0000 0.57073  0.69317  0.82847  Biso   1.000  H
  C163     1.0000 0.51429  0.63683  0.91547  Biso   1.000  C
  H118     1.0000 0.49253  0.64437  0.87797  Biso   1.000  H
  C164     1.0000 0.50052  0.59698  0.00007  Biso   1.000  C
  H119     1.0000 0.46903  0.57757  0.01957  Biso   1.000  H
  C165     1.0000 0.57376  0.61202  0.02607  Biso   1.000  C
  H120     1.0000 0.59463  0.60327  0.06377  Biso   1.000  H
  Ag16     1.0000 0.82709  0.14786  0.49323  Biso   1.000  Ag
  O16      1.0000 0.00712  0.33501  0.22040  Biso   1.000  O
  N31      1.0000 0.86663  0.20660  0.33840  Biso   1.000  N
  N32      1.0000 0.08185  0.27824  0.38870  Biso   1.000  N
  C166     1.0000 0.84491  0.22036  0.23920  Biso   1.000  C
  H121     1.0000 0.81260  0.20390  0.23870  Biso   1.000  H
  C167     1.0000 0.86692  0.25715  0.13770  Biso   1.000  C
  H122     1.0000 0.85010  0.26540  0.06850  Biso   1.000  H
  C168     1.0000 0.91363  0.28159  0.13880  Biso   1.000  C
  H123     1.0000 0.92970  0.30770  0.07330  Biso   1.000  H
  C169     1.0000 0.93693  0.26699  0.23890  Biso   1.000  C
  C170     1.0000 0.91243  0.22959  0.33500  Biso   1.000  C
  H124     1.0000 0.92840  0.21960  0.40140  Biso   1.000  H
  C171     1.0000 0.98755  0.29437  0.24420  Biso   1.000  C
  C172     1.0000 0.01397  0.27121  0.27610  Biso   1.000  C
  C173     1.0000 0.00110  0.22811  0.21920  Biso   1.000  C
  H125     1.0000 0.97350  0.21090  0.16180  Biso   1.000  H
  C174     1.0000 0.02984  0.21080  0.24880  Biso   1.000  C
  H126     1.0000 0.02230  0.18150  0.21130  Biso   1.000  H
  C175     1.0000 0.06969  0.23688  0.33340  Biso   1.000  C
  H127     1.0000 0.08910  0.22480  0.35290  Biso   1.000  H
  C176     1.0000 0.05465  0.29508  0.35940  Biso   1.000  C
  H128     1.0000 0.06340  0.32470  0.39710  Biso   1.000  H
  Ag17     1.0000 0.49375  0.48119  0.82656  Biso   1.000  Ag
  O17      1.0000 0.67379  0.66834  0.55373  Biso   1.000  O
  N33      1.0000 0.53330  0.53993  0.67173  Biso   1.000  N
  N34      1.0000 0.74852  0.61157  0.72203  Biso   1.000  N
  C177     1.0000 0.51158  0.55369  0.57253  Biso   1.000  C
  H129     1.0000 0.47927  0.53723  0.57203  Biso   1.000  H
  C178     1.0000 0.53359  0.59048  0.47103  Biso   1.000  C
  H130     1.0000 0.51677  0.59873  0.40183  Biso   1.000  H
  C179     1.0000 0.58030  0.61492  0.47213  Biso   1.000  C
  H131     1.0000 0.59637  0.64103  0.40663  Biso   1.000  H
  C180     1.0000 0.60360  0.60032  0.57223  Biso   1.000  C
  C181     1.0000 0.57910  0.56292  0.66833  Biso   1.000  C
  H132     1.0000 0.59507  0.55293  0.73473  Biso   1.000  H
  C182     1.0000 0.65422  0.62770  0.57753  Biso   1.000  C
  C183     1.0000 0.68064  0.60454  0.60943  Biso   1.000  C
  C184     1.0000 0.66777  0.56144  0.55253  Biso   1.000  C
  H133     1.0000 0.64017  0.54423  0.49513  Biso   1.000  H
  C185     1.0000 0.69651  0.54413  0.58213  Biso   1.000  C
  H134     1.0000 0.68897  0.51483  0.54463  Biso   1.000  H
  C186     1.0000 0.73636  0.57021  0.66673  Biso   1.000  C
  H135     1.0000 0.75577  0.55813  0.68623  Biso   1.000  H
  C187     1.0000 0.72132  0.62841  0.69273  Biso   1.000  C
  H136     1.0000 0.73007  0.65803  0.73043  Biso   1.000  H
  Ag18     1.0000 0.16042  0.81452  0.15990  Biso   1.000  Ag
  O18      1.0000 0.34045  0.00168  0.88707  Biso   1.000  O
  N35      1.0000 0.19996  0.87327  0.00507  Biso   1.000  N
  N36      1.0000 0.41518  0.94491  0.05537  Biso   1.000  N
  C188     1.0000 0.17824  0.88703  0.90587  Biso   1.000  C
  H137     1.0000 0.14593  0.87057  0.90537  Biso   1.000  H
  C189     1.0000 0.20025  0.92382  0.80437  Biso   1.000  C
  H138     1.0000 0.18343  0.93207  0.73517  Biso   1.000  H
  C190     1.0000 0.24696  0.94826  0.80547  Biso   1.000  C
  H139     1.0000 0.26303  0.97437  0.73997  Biso   1.000  H
  C191     1.0000 0.27026  0.93366  0.90557  Biso   1.000  C
  C192     1.0000 0.24576  0.89626  0.00167  Biso   1.000  C
  H140     1.0000 0.26173  0.88627  0.06807  Biso   1.000  H
  C193     1.0000 0.32088  0.96104  0.91087  Biso   1.000  C
  C194     1.0000 0.34730  0.93788  0.94277  Biso   1.000  C
  C195     1.0000 0.33443  0.89478  0.88587  Biso   1.000  C
  H141     1.0000 0.30683  0.87757  0.82847  Biso   1.000  H
  C196     1.0000 0.36317  0.87747  0.91547  Biso   1.000  C
  H142     1.0000 0.35563  0.84817  0.87797  Biso   1.000  H
  C197     1.0000 0.40302  0.90355  0.00007  Biso   1.000  C
  H143     1.0000 0.42243  0.89147  0.01957  Biso   1.000  H
  C198     1.0000 0.38798  0.96175  0.02607  Biso   1.000  C
  H144     1.0000 0.39673  0.99137  0.06377  Biso   1.000  H
