data_image0
_cell_length_a       33.856
_cell_length_b       33.856
_cell_length_c       8.4224
_cell_angle_alpha    90
_cell_angle_beta     90
_cell_angle_gamma    120

_symmetry_space_group_name_H-M    "P 1"
_symmetry_int_tables_number       1

loop_
  _symmetry_equiv_pos_as_xyz
  'x, y, z'

loop_
  _atom_site_label
  _atom_site_occupancy
  _atom_site_fract_x
  _atom_site_fract_y
  _atom_site_fract_z
  _atom_site_thermal_displace_type
  _atom_site_B_iso_or_equiv
  _atom_site_type_symbol
  Ag1      1.0000 0.14736  0.32092  0.50424  Biso   1.000  Ag
  O1       1.0000 0.33504  0.32901  0.78640  Biso   1.000  O
  N1       1.0000 0.20620  0.34070  0.65930  Biso   1.000  N
  N2       1.0000 0.27750  0.19610  0.61490  Biso   1.000  N
  C1       1.0000 0.21940  0.37660  0.76170  Biso   1.000  C
  H1       1.0000 0.20290  0.39240  0.76160  Biso   1.000  H
  C2       1.0000 0.25550  0.39060  0.86450  Biso   1.000  C
  H2       1.0000 0.26380  0.41580  0.93330  Biso   1.000  H
  C3       1.0000 0.27920  0.36770  0.86590  Biso   1.000  C
  H3       1.0000 0.30460  0.37740  0.93480  Biso   1.000  H
  C4       1.0000 0.26640  0.33050  0.76700  Biso   1.000  C
  C5       1.0000 0.22940  0.31810  0.66570  Biso   1.000  C
  H4       1.0000 0.22010  0.29250  0.59810  Biso   1.000  H
  C6       1.0000 0.29340  0.30690  0.76290  Biso   1.000  C
  C7       1.0000 0.27030  0.25730  0.72890  Biso   1.000  C
  C8       1.0000 0.22740  0.22680  0.78520  Biso   1.000  C
  H5       1.0000 0.21010  0.23690  0.84360  Biso   1.000  H
  C9       1.0000 0.21030  0.18100  0.75380  Biso   1.000  C
  H6       1.0000 0.18090  0.15910  0.79130  Biso   1.000  H
  C10      1.0000 0.23580  0.16720  0.66870  Biso   1.000  C
  H7       1.0000 0.22320  0.13560  0.64710  Biso   1.000  H
  C11      1.0000 0.29480  0.24100  0.64620  Biso   1.000  C
  H8       1.0000 0.32470  0.26210  0.61040  Biso   1.000  H
  Ag2      1.0000 0.81403  0.65425  0.83757  Biso   1.000  Ag
  O2       1.0000 0.00171  0.66234  0.11973  Biso   1.000  O
  N3       1.0000 0.87287  0.67403  0.99263  Biso   1.000  N
  N4       1.0000 0.94417  0.52943  0.94823  Biso   1.000  N
  C12      1.0000 0.88607  0.70993  0.09503  Biso   1.000  C
  H9       1.0000 0.86957  0.72573  0.09493  Biso   1.000  H
  C13      1.0000 0.92217  0.72393  0.19783  Biso   1.000  C
  H10      1.0000 0.93047  0.74913  0.26663  Biso   1.000  H
  C14      1.0000 0.94587  0.70103  0.19923  Biso   1.000  C
  H11      1.0000 0.97127  0.71073  0.26813  Biso   1.000  H
  C15      1.0000 0.93307  0.66383  0.10033  Biso   1.000  C
  C16      1.0000 0.89607  0.65143  0.99903  Biso   1.000  C
  H12      1.0000 0.88677  0.62583  0.93143  Biso   1.000  H
  C17      1.0000 0.96007  0.64023  0.09623  Biso   1.000  C
  C18      1.0000 0.93697  0.59063  0.06223  Biso   1.000  C
  C19      1.0000 0.89407  0.56013  0.11853  Biso   1.000  C
  H13      1.0000 0.87677  0.57023  0.17693  Biso   1.000  H
  C20      1.0000 0.87697  0.51433  0.08713  Biso   1.000  C
  H14      1.0000 0.84757  0.49243  0.12463  Biso   1.000  H
  C21      1.0000 0.90247  0.50053  0.00203  Biso   1.000  C
  H15      1.0000 0.88987  0.46893  0.98043  Biso   1.000  H
  C22      1.0000 0.96147  0.57433  0.97953  Biso   1.000  C
  H16      1.0000 0.99137  0.59543  0.94373  Biso   1.000  H
  Ag3      1.0000 0.48069  0.98759  0.17091  Biso   1.000  Ag
  O3       1.0000 0.66837  0.99568  0.45307  Biso   1.000  O
  N5       1.0000 0.53953  0.00737  0.32597  Biso   1.000  N
  N6       1.0000 0.61083  0.86277  0.28157  Biso   1.000  N
  C23      1.0000 0.55273  0.04327  0.42837  Biso   1.000  C
  H17      1.0000 0.53623  0.05907  0.42827  Biso   1.000  H
  C24      1.0000 0.58883  0.05727  0.53117  Biso   1.000  C
  H18      1.0000 0.59713  0.08247  0.59997  Biso   1.000  H
  C25      1.0000 0.61253  0.03437  0.53257  Biso   1.000  C
  H19      1.0000 0.63793  0.04407  0.60147  Biso   1.000  H
  C26      1.0000 0.59973  0.99717  0.43367  Biso   1.000  C
  C27      1.0000 0.56273  0.98477  0.33237  Biso   1.000  C
  H20      1.0000 0.55343  0.95917  0.26477  Biso   1.000  H
  C28      1.0000 0.62673  0.97357  0.42957  Biso   1.000  C
  C29      1.0000 0.60363  0.92397  0.39557  Biso   1.000  C
  C30      1.0000 0.56073  0.89347  0.45187  Biso   1.000  C
  H21      1.0000 0.54343  0.90357  0.51027  Biso   1.000  H
  C31      1.0000 0.54363  0.84767  0.42047  Biso   1.000  C
  H22      1.0000 0.51423  0.82577  0.45797  Biso   1.000  H
  C32      1.0000 0.56913  0.83387  0.33537  Biso   1.000  C
  H23      1.0000 0.55653  0.80227  0.31377  Biso   1.000  H
  C33      1.0000 0.62813  0.90767  0.31287  Biso   1.000  C
  H24      1.0000 0.65803  0.92877  0.27707  Biso   1.000  H
  Ag4      1.0000 0.67908  0.82644  0.50424  Biso   1.000  Ag
  O4       1.0000 0.67099  0.00603  0.78640  Biso   1.000  O
  N7       1.0000 0.65930  0.86550  0.65930  Biso   1.000  N
  N8       1.0000 0.80390  0.08140  0.61490  Biso   1.000  N
  C34      1.0000 0.62340  0.84280  0.76170  Biso   1.000  C
  H25      1.0000 0.60760  0.81050  0.76160  Biso   1.000  H
  C35      1.0000 0.60940  0.86490  0.86450  Biso   1.000  C
  H26      1.0000 0.58420  0.84800  0.93330  Biso   1.000  H
  C36      1.0000 0.63230  0.91150  0.86590  Biso   1.000  C
  H27      1.0000 0.62260  0.92720  0.93480  Biso   1.000  H
  C37      1.0000 0.66950  0.93590  0.76700  Biso   1.000  C
  C38      1.0000 0.68190  0.91130  0.66570  Biso   1.000  C
  H28      1.0000 0.70750  0.92760  0.59810  Biso   1.000  H
  C39      1.0000 0.69310  0.98650  0.76290  Biso   1.000  C
  C40      1.0000 0.74270  0.01300  0.72890  Biso   1.000  C
  C41      1.0000 0.77320  0.00060  0.78520  Biso   1.000  C
  H29      1.0000 0.76310  0.97320  0.84360  Biso   1.000  H
  C42      1.0000 0.81900  0.02930  0.75380  Biso   1.000  C
  H30      1.0000 0.84090  0.02180  0.79130  Biso   1.000  H
  C43      1.0000 0.83280  0.06860  0.66870  Biso   1.000  C
  H31      1.0000 0.86440  0.08760  0.64710  Biso   1.000  H
  C44      1.0000 0.75900  0.05380  0.64620  Biso   1.000  C
  H32      1.0000 0.73790  0.06260  0.61040  Biso   1.000  H
  Ag5      1.0000 0.34575  0.15977  0.83757  Biso   1.000  Ag
  O5       1.0000 0.33766  0.33936  0.11973  Biso   1.000  O
  N9       1.0000 0.32597  0.19883  0.99263  Biso   1.000  N
  N10      1.0000 0.47057  0.41473  0.94823  Biso   1.000  N
  C45      1.0000 0.29007  0.17613  0.09503  Biso   1.000  C
  H33      1.0000 0.27427  0.14383  0.09493  Biso   1.000  H
  C46      1.0000 0.27607  0.19823  0.19783  Biso   1.000  C
  H34      1.0000 0.25087  0.18133  0.26663  Biso   1.000  H
  C47      1.0000 0.29897  0.24483  0.19923  Biso   1.000  C
  H35      1.0000 0.28927  0.26053  0.26813  Biso   1.000  H
  C48      1.0000 0.33617  0.26923  0.10033  Biso   1.000  C
  C49      1.0000 0.34857  0.24463  0.99903  Biso   1.000  C
  H36      1.0000 0.37417  0.26093  0.93143  Biso   1.000  H
  C50      1.0000 0.35977  0.31983  0.09623  Biso   1.000  C
  C51      1.0000 0.40937  0.34633  0.06223  Biso   1.000  C
  C52      1.0000 0.43987  0.33393  0.11853  Biso   1.000  C
  H37      1.0000 0.42977  0.30653  0.17693  Biso   1.000  H
  C53      1.0000 0.48567  0.36263  0.08713  Biso   1.000  C
  H38      1.0000 0.50757  0.35513  0.12463  Biso   1.000  H
  C54      1.0000 0.49947  0.40193  0.00203  Biso   1.000  C
  H39      1.0000 0.53107  0.42093  0.98043  Biso   1.000  H
  C55      1.0000 0.42567  0.38713  0.97953  Biso   1.000  C
  H40      1.0000 0.40457  0.39593  0.94373  Biso   1.000  H
  Ag6      1.0000 0.01241  0.49311  0.17091  Biso   1.000  Ag
  O6       1.0000 0.00432  0.67270  0.45307  Biso   1.000  O
  N11      1.0000 0.99263  0.53217  0.32597  Biso   1.000  N
  N12      1.0000 0.13723  0.74807  0.28157  Biso   1.000  N
  C56      1.0000 0.95673  0.50947  0.42837  Biso   1.000  C
  H41      1.0000 0.94093  0.47717  0.42827  Biso   1.000  H
  C57      1.0000 0.94273  0.53157  0.53117  Biso   1.000  C
  H42      1.0000 0.91753  0.51467  0.59997  Biso   1.000  H
  C58      1.0000 0.96563  0.57817  0.53257  Biso   1.000  C
  H43      1.0000 0.95593  0.59387  0.60147  Biso   1.000  H
  C59      1.0000 0.00283  0.60257  0.43367  Biso   1.000  C
  C60      1.0000 0.01523  0.57797  0.33237  Biso   1.000  C
  H44      1.0000 0.04083  0.59427  0.26477  Biso   1.000  H
  C61      1.0000 0.02643  0.65317  0.42957  Biso   1.000  C
  C62      1.0000 0.07603  0.67967  0.39557  Biso   1.000  C
  C63      1.0000 0.10653  0.66727  0.45187  Biso   1.000  C
  H45      1.0000 0.09643  0.63987  0.51027  Biso   1.000  H
  C64      1.0000 0.15233  0.69597  0.42047  Biso   1.000  C
  H46      1.0000 0.17423  0.68847  0.45797  Biso   1.000  H
  C65      1.0000 0.16613  0.73527  0.33537  Biso   1.000  C
  H47      1.0000 0.19773  0.75427  0.31377  Biso   1.000  H
  C66      1.0000 0.09233  0.72047  0.31287  Biso   1.000  C
  H48      1.0000 0.07123  0.72927  0.27707  Biso   1.000  H
  Ag7      1.0000 0.17356  0.85264  0.50424  Biso   1.000  Ag
  O7       1.0000 0.99397  0.66496  0.78640  Biso   1.000  O
  N13      1.0000 0.13450  0.79380  0.65930  Biso   1.000  N
  N14      1.0000 0.91860  0.72250  0.61490  Biso   1.000  N
  C67      1.0000 0.15720  0.78060  0.76170  Biso   1.000  C
  H49      1.0000 0.18950  0.79710  0.76160  Biso   1.000  H
  C68      1.0000 0.13510  0.74450  0.86450  Biso   1.000  C
  H50      1.0000 0.15200  0.73620  0.93330  Biso   1.000  H
  C69      1.0000 0.08850  0.72080  0.86590  Biso   1.000  C
  H51      1.0000 0.07280  0.69540  0.93480  Biso   1.000  H
  C70      1.0000 0.06410  0.73360  0.76700  Biso   1.000  C
  C71      1.0000 0.08870  0.77060  0.66570  Biso   1.000  C
  H52      1.0000 0.07240  0.77990  0.59810  Biso   1.000  H
  C72      1.0000 0.01350  0.70660  0.76290  Biso   1.000  C
  C73      1.0000 0.98700  0.72970  0.72890  Biso   1.000  C
  C74      1.0000 0.99940  0.77260  0.78520  Biso   1.000  C
  H53      1.0000 0.02680  0.78990  0.84360  Biso   1.000  H
  C75      1.0000 0.97070  0.78970  0.75380  Biso   1.000  C
  H54      1.0000 0.97820  0.81910  0.79130  Biso   1.000  H
  C76      1.0000 0.93140  0.76420  0.66870  Biso   1.000  C
  H55      1.0000 0.91240  0.77680  0.64710  Biso   1.000  H
  C77      1.0000 0.94620  0.70520  0.64620  Biso   1.000  C
  H56      1.0000 0.93740  0.67530  0.61040  Biso   1.000  H
  Ag8      1.0000 0.84023  0.18597  0.83757  Biso   1.000  Ag
  O8       1.0000 0.66064  0.99829  0.11973  Biso   1.000  O
  N15      1.0000 0.80117  0.12713  0.99263  Biso   1.000  N
  N16      1.0000 0.58527  0.05583  0.94823  Biso   1.000  N
  C78      1.0000 0.82387  0.11393  0.09503  Biso   1.000  C
  H57      1.0000 0.85617  0.13043  0.09493  Biso   1.000  H
  C79      1.0000 0.80177  0.07783  0.19783  Biso   1.000  C
  H58      1.0000 0.81867  0.06953  0.26663  Biso   1.000  H
  C80      1.0000 0.75517  0.05413  0.19923  Biso   1.000  C
  H59      1.0000 0.73947  0.02873  0.26813  Biso   1.000  H
  C81      1.0000 0.73077  0.06693  0.10033  Biso   1.000  C
  C82      1.0000 0.75537  0.10393  0.99903  Biso   1.000  C
  H60      1.0000 0.73907  0.11323  0.93143  Biso   1.000  H
  C83      1.0000 0.68017  0.03993  0.09623  Biso   1.000  C
  C84      1.0000 0.65367  0.06303  0.06223  Biso   1.000  C
  C85      1.0000 0.66607  0.10593  0.11853  Biso   1.000  C
  H61      1.0000 0.69347  0.12323  0.17693  Biso   1.000  H
  C86      1.0000 0.63737  0.12303  0.08713  Biso   1.000  C
  H62      1.0000 0.64487  0.15243  0.12463  Biso   1.000  H
  C87      1.0000 0.59807  0.09753  0.00203  Biso   1.000  C
  H63      1.0000 0.57907  0.11013  0.98043  Biso   1.000  H
  C88      1.0000 0.61287  0.03853  0.97953  Biso   1.000  C
  H64      1.0000 0.60407  0.00863  0.94373  Biso   1.000  H
  Ag9      1.0000 0.50689  0.51931  0.17091  Biso   1.000  Ag
  O9       1.0000 0.32730  0.33163  0.45307  Biso   1.000  O
  N17      1.0000 0.46783  0.46047  0.32597  Biso   1.000  N
  N18      1.0000 0.25193  0.38917  0.28157  Biso   1.000  N
  C89      1.0000 0.49053  0.44727  0.42837  Biso   1.000  C
  H65      1.0000 0.52283  0.46377  0.42827  Biso   1.000  H
  C90      1.0000 0.46843  0.41117  0.53117  Biso   1.000  C
  H66      1.0000 0.48533  0.40287  0.59997  Biso   1.000  H
  C91      1.0000 0.42183  0.38747  0.53257  Biso   1.000  C
  H67      1.0000 0.40613  0.36207  0.60147  Biso   1.000  H
  C92      1.0000 0.39743  0.40027  0.43367  Biso   1.000  C
  C93      1.0000 0.42203  0.43727  0.33237  Biso   1.000  C
  H68      1.0000 0.40573  0.44657  0.26477  Biso   1.000  H
  C94      1.0000 0.34683  0.37327  0.42957  Biso   1.000  C
  C95      1.0000 0.32033  0.39637  0.39557  Biso   1.000  C
  C96      1.0000 0.33273  0.43927  0.45187  Biso   1.000  C
  H69      1.0000 0.36013  0.45657  0.51027  Biso   1.000  H
  C97      1.0000 0.30403  0.45637  0.42047  Biso   1.000  C
  H70      1.0000 0.31153  0.48577  0.45797  Biso   1.000  H
  C98      1.0000 0.26473  0.43087  0.33537  Biso   1.000  C
  H71      1.0000 0.24573  0.44347  0.31377  Biso   1.000  H
  C99      1.0000 0.27953  0.37187  0.31287  Biso   1.000  C
  H72      1.0000 0.27073  0.34197  0.27707  Biso   1.000  H
  Ag10     1.0000 0.85264  0.67908  0.49576  Biso   1.000  Ag
  O10      1.0000 0.66496  0.67099  0.21360  Biso   1.000  O
  N19      1.0000 0.79380  0.65930  0.34070  Biso   1.000  N
  N20      1.0000 0.72250  0.80390  0.38510  Biso   1.000  N
  C100     1.0000 0.78060  0.62340  0.23830  Biso   1.000  C
  H73      1.0000 0.79710  0.60760  0.23840  Biso   1.000  H
  C101     1.0000 0.74450  0.60940  0.13550  Biso   1.000  C
  H74      1.0000 0.73620  0.58420  0.06670  Biso   1.000  H
  C102     1.0000 0.72080  0.63230  0.13410  Biso   1.000  C
  H75      1.0000 0.69540  0.62260  0.06520  Biso   1.000  H
  C103     1.0000 0.73360  0.66950  0.23300  Biso   1.000  C
  C104     1.0000 0.77060  0.68190  0.33430  Biso   1.000  C
  H76      1.0000 0.77990  0.70750  0.40190  Biso   1.000  H
  C105     1.0000 0.70660  0.69310  0.23710  Biso   1.000  C
  C106     1.0000 0.72970  0.74270  0.27110  Biso   1.000  C
  C107     1.0000 0.77260  0.77320  0.21480  Biso   1.000  C
  H77      1.0000 0.78990  0.76310  0.15640  Biso   1.000  H
  C108     1.0000 0.78970  0.81900  0.24620  Biso   1.000  C
  H78      1.0000 0.81910  0.84090  0.20870  Biso   1.000  H
  C109     1.0000 0.76420  0.83280  0.33130  Biso   1.000  C
  H79      1.0000 0.77680  0.86440  0.35290  Biso   1.000  H
  C110     1.0000 0.70520  0.75900  0.35380  Biso   1.000  C
  H80      1.0000 0.67530  0.73790  0.38960  Biso   1.000  H
  Ag11     1.0000 0.51931  0.01241  0.82909  Biso   1.000  Ag
  O11      1.0000 0.33163  0.00432  0.54693  Biso   1.000  O
  N21      1.0000 0.46047  0.99263  0.67403  Biso   1.000  N
  N22      1.0000 0.38917  0.13723  0.71843  Biso   1.000  N
  C111     1.0000 0.44727  0.95673  0.57163  Biso   1.000  C
  H81      1.0000 0.46377  0.94093  0.57173  Biso   1.000  H
  C112     1.0000 0.41117  0.94273  0.46883  Biso   1.000  C
  H82      1.0000 0.40287  0.91753  0.40003  Biso   1.000  H
  C113     1.0000 0.38747  0.96563  0.46743  Biso   1.000  C
  H83      1.0000 0.36207  0.95593  0.39853  Biso   1.000  H
  C114     1.0000 0.40027  0.00283  0.56633  Biso   1.000  C
  C115     1.0000 0.43727  0.01523  0.66763  Biso   1.000  C
  H84      1.0000 0.44657  0.04083  0.73523  Biso   1.000  H
  C116     1.0000 0.37327  0.02643  0.57043  Biso   1.000  C
  C117     1.0000 0.39637  0.07603  0.60443  Biso   1.000  C
  C118     1.0000 0.43927  0.10653  0.54813  Biso   1.000  C
  H85      1.0000 0.45657  0.09643  0.48973  Biso   1.000  H
  C119     1.0000 0.45637  0.15233  0.57953  Biso   1.000  C
  H86      1.0000 0.48577  0.17423  0.54203  Biso   1.000  H
  C120     1.0000 0.43087  0.16613  0.66463  Biso   1.000  C
  H87      1.0000 0.44347  0.19773  0.68623  Biso   1.000  H
  C121     1.0000 0.37187  0.09233  0.68713  Biso   1.000  C
  H88      1.0000 0.34197  0.07123  0.72293  Biso   1.000  H
  Ag12     1.0000 0.18597  0.34575  0.16243  Biso   1.000  Ag
  O12      1.0000 0.99829  0.33766  0.88027  Biso   1.000  O
  N23      1.0000 0.12713  0.32597  0.00737  Biso   1.000  N
  N24      1.0000 0.05583  0.47057  0.05177  Biso   1.000  N
  C122     1.0000 0.11393  0.29007  0.90497  Biso   1.000  C
  H89      1.0000 0.13043  0.27427  0.90507  Biso   1.000  H
  C123     1.0000 0.07783  0.27607  0.80217  Biso   1.000  C
  H90      1.0000 0.06953  0.25087  0.73337  Biso   1.000  H
  C124     1.0000 0.05413  0.29897  0.80077  Biso   1.000  C
  H91      1.0000 0.02873  0.28927  0.73187  Biso   1.000  H
  C125     1.0000 0.06693  0.33617  0.89967  Biso   1.000  C
  C126     1.0000 0.10393  0.34857  0.00097  Biso   1.000  C
  H92      1.0000 0.11323  0.37417  0.06857  Biso   1.000  H
  C127     1.0000 0.03993  0.35977  0.90377  Biso   1.000  C
  C128     1.0000 0.06303  0.40937  0.93777  Biso   1.000  C
  C129     1.0000 0.10593  0.43987  0.88147  Biso   1.000  C
  H93      1.0000 0.12323  0.42977  0.82307  Biso   1.000  H
  C130     1.0000 0.12303  0.48567  0.91287  Biso   1.000  C
  H94      1.0000 0.15243  0.50757  0.87537  Biso   1.000  H
  C131     1.0000 0.09753  0.49947  0.99797  Biso   1.000  C
  H95      1.0000 0.11013  0.53107  0.01957  Biso   1.000  H
  C132     1.0000 0.03853  0.42567  0.02047  Biso   1.000  C
  H96      1.0000 0.00863  0.40457  0.05627  Biso   1.000  H
  Ag13     1.0000 0.32092  0.17356  0.49576  Biso   1.000  Ag
  O13      1.0000 0.32901  0.99397  0.21360  Biso   1.000  O
  N25      1.0000 0.34070  0.13450  0.34070  Biso   1.000  N
  N26      1.0000 0.19610  0.91860  0.38510  Biso   1.000  N
  C133     1.0000 0.37660  0.15720  0.23830  Biso   1.000  C
  H97      1.0000 0.39240  0.18950  0.23840  Biso   1.000  H
  C134     1.0000 0.39060  0.13510  0.13550  Biso   1.000  C
  H98      1.0000 0.41580  0.15200  0.06670  Biso   1.000  H
  C135     1.0000 0.36770  0.08850  0.13410  Biso   1.000  C
  H99      1.0000 0.37740  0.07280  0.06520  Biso   1.000  H
  C136     1.0000 0.33050  0.06410  0.23300  Biso   1.000  C
  C137     1.0000 0.31810  0.08870  0.33430  Biso   1.000  C
  H100     1.0000 0.29250  0.07240  0.40190  Biso   1.000  H
  C138     1.0000 0.30690  0.01350  0.23710  Biso   1.000  C
  C139     1.0000 0.25730  0.98700  0.27110  Biso   1.000  C
  C140     1.0000 0.22680  0.99940  0.21480  Biso   1.000  C
  H101     1.0000 0.23690  0.02680  0.15640  Biso   1.000  H
  C141     1.0000 0.18100  0.97070  0.24620  Biso   1.000  C
  H102     1.0000 0.15910  0.97820  0.20870  Biso   1.000  H
  C142     1.0000 0.16720  0.93140  0.33130  Biso   1.000  C
  H103     1.0000 0.13560  0.91240  0.35290  Biso   1.000  H
  C143     1.0000 0.24100  0.94620  0.35380  Biso   1.000  C
  H104     1.0000 0.26210  0.93740  0.38960  Biso   1.000  H
  Ag14     1.0000 0.98759  0.50689  0.82909  Biso   1.000  Ag
  O14      1.0000 0.99568  0.32730  0.54693  Biso   1.000  O
  N27      1.0000 0.00737  0.46783  0.67403  Biso   1.000  N
  N28      1.0000 0.86277  0.25193  0.71843  Biso   1.000  N
  C144     1.0000 0.04327  0.49053  0.57163  Biso   1.000  C
  H105     1.0000 0.05907  0.52283  0.57173  Biso   1.000  H
  C145     1.0000 0.05727  0.46843  0.46883  Biso   1.000  C
  H106     1.0000 0.08247  0.48533  0.40003  Biso   1.000  H
  C146     1.0000 0.03437  0.42183  0.46743  Biso   1.000  C
  H107     1.0000 0.04407  0.40613  0.39853  Biso   1.000  H
  C147     1.0000 0.99717  0.39743  0.56633  Biso   1.000  C
  C148     1.0000 0.98477  0.42203  0.66763  Biso   1.000  C
  H108     1.0000 0.95917  0.40573  0.73523  Biso   1.000  H
  C149     1.0000 0.97357  0.34683  0.57043  Biso   1.000  C
  C150     1.0000 0.92397  0.32033  0.60443  Biso   1.000  C
  C151     1.0000 0.89347  0.33273  0.54813  Biso   1.000  C
  H109     1.0000 0.90357  0.36013  0.48973  Biso   1.000  H
  C152     1.0000 0.84767  0.30403  0.57953  Biso   1.000  C
  H110     1.0000 0.82577  0.31153  0.54203  Biso   1.000  H
  C153     1.0000 0.83387  0.26473  0.66463  Biso   1.000  C
  H111     1.0000 0.80227  0.24573  0.68623  Biso   1.000  H
  C154     1.0000 0.90767  0.27953  0.68713  Biso   1.000  C
  H112     1.0000 0.92877  0.27073  0.72293  Biso   1.000  H
  Ag15     1.0000 0.65425  0.84023  0.16243  Biso   1.000  Ag
  O15      1.0000 0.66234  0.66064  0.88027  Biso   1.000  O
  N29      1.0000 0.67403  0.80117  0.00737  Biso   1.000  N
  N30      1.0000 0.52943  0.58527  0.05177  Biso   1.000  N
  C155     1.0000 0.70993  0.82387  0.90497  Biso   1.000  C
  H113     1.0000 0.72573  0.85617  0.90507  Biso   1.000  H
  C156     1.0000 0.72393  0.80177  0.80217  Biso   1.000  C
  H114     1.0000 0.74913  0.81867  0.73337  Biso   1.000  H
  C157     1.0000 0.70103  0.75517  0.80077  Biso   1.000  C
  H115     1.0000 0.71073  0.73947  0.73187  Biso   1.000  H
  C158     1.0000 0.66383  0.73077  0.89967  Biso   1.000  C
  C159     1.0000 0.65143  0.75537  0.00097  Biso   1.000  C
  H116     1.0000 0.62583  0.73907  0.06857  Biso   1.000  H
  C160     1.0000 0.64023  0.68017  0.90377  Biso   1.000  C
  C161     1.0000 0.59063  0.65367  0.93777  Biso   1.000  C
  C162     1.0000 0.56013  0.66607  0.88147  Biso   1.000  C
  H117     1.0000 0.57023  0.69347  0.82307  Biso   1.000  H
  C163     1.0000 0.51433  0.63737  0.91287  Biso   1.000  C
  H118     1.0000 0.49243  0.64487  0.87537  Biso   1.000  H
  C164     1.0000 0.50053  0.59807  0.99797  Biso   1.000  C
  H119     1.0000 0.46893  0.57907  0.01957  Biso   1.000  H
  C165     1.0000 0.57433  0.61287  0.02047  Biso   1.000  C
  H120     1.0000 0.59543  0.60407  0.05627  Biso   1.000  H
  Ag16     1.0000 0.82644  0.14736  0.49576  Biso   1.000  Ag
  O16      1.0000 0.00603  0.33504  0.21360  Biso   1.000  O
  N31      1.0000 0.86550  0.20620  0.34070  Biso   1.000  N
  N32      1.0000 0.08140  0.27750  0.38510  Biso   1.000  N
  C166     1.0000 0.84280  0.21940  0.23830  Biso   1.000  C
  H121     1.0000 0.81050  0.20290  0.23840  Biso   1.000  H
  C167     1.0000 0.86490  0.25550  0.13550  Biso   1.000  C
  H122     1.0000 0.84800  0.26380  0.06670  Biso   1.000  H
  C168     1.0000 0.91150  0.27920  0.13410  Biso   1.000  C
  H123     1.0000 0.92720  0.30460  0.06520  Biso   1.000  H
  C169     1.0000 0.93590  0.26640  0.23300  Biso   1.000  C
  C170     1.0000 0.91130  0.22940  0.33430  Biso   1.000  C
  H124     1.0000 0.92760  0.22010  0.40190  Biso   1.000  H
  C171     1.0000 0.98650  0.29340  0.23710  Biso   1.000  C
  C172     1.0000 0.01300  0.27030  0.27110  Biso   1.000  C
  C173     1.0000 0.00060  0.22740  0.21480  Biso   1.000  C
  H125     1.0000 0.97320  0.21010  0.15640  Biso   1.000  H
  C174     1.0000 0.02930  0.21030  0.24620  Biso   1.000  C
  H126     1.0000 0.02180  0.18090  0.20870  Biso   1.000  H
  C175     1.0000 0.06860  0.23580  0.33130  Biso   1.000  C
  H127     1.0000 0.08760  0.22320  0.35290  Biso   1.000  H
  C176     1.0000 0.05380  0.29480  0.35380  Biso   1.000  C
  H128     1.0000 0.06260  0.32470  0.38960  Biso   1.000  H
  Ag17     1.0000 0.49311  0.48069  0.82909  Biso   1.000  Ag
  O17      1.0000 0.67270  0.66837  0.54693  Biso   1.000  O
  N33      1.0000 0.53217  0.53953  0.67403  Biso   1.000  N
  N34      1.0000 0.74807  0.61083  0.71843  Biso   1.000  N
  C177     1.0000 0.50947  0.55273  0.57163  Biso   1.000  C
  H129     1.0000 0.47717  0.53623  0.57173  Biso   1.000  H
  C178     1.0000 0.53157  0.58883  0.46883  Biso   1.000  C
  H130     1.0000 0.51467  0.59713  0.40003  Biso   1.000  H
  C179     1.0000 0.57817  0.61253  0.46743  Biso   1.000  C
  H131     1.0000 0.59387  0.63793  0.39853  Biso   1.000  H
  C180     1.0000 0.60257  0.59973  0.56633  Biso   1.000  C
  C181     1.0000 0.57797  0.56273  0.66763  Biso   1.000  C
  H132     1.0000 0.59427  0.55343  0.73523  Biso   1.000  H
  C182     1.0000 0.65317  0.62673  0.57043  Biso   1.000  C
  C183     1.0000 0.67967  0.60363  0.60443  Biso   1.000  C
  C184     1.0000 0.66727  0.56073  0.54813  Biso   1.000  C
  H133     1.0000 0.63987  0.54343  0.48973  Biso   1.000  H
  C185     1.0000 0.69597  0.54363  0.57953  Biso   1.000  C
  H134     1.0000 0.68847  0.51423  0.54203  Biso   1.000  H
  C186     1.0000 0.73527  0.56913  0.66463  Biso   1.000  C
  H135     1.0000 0.75427  0.55653  0.68623  Biso   1.000  H
  C187     1.0000 0.72047  0.62813  0.68713  Biso   1.000  C
  H136     1.0000 0.72927  0.65803  0.72293  Biso   1.000  H
  Ag18     1.0000 0.15977  0.81403  0.16243  Biso   1.000  Ag
  O18      1.0000 0.33936  0.00171  0.88027  Biso   1.000  O
  N35      1.0000 0.19883  0.87287  0.00737  Biso   1.000  N
  N36      1.0000 0.41473  0.94417  0.05177  Biso   1.000  N
  C188     1.0000 0.17613  0.88607  0.90497  Biso   1.000  C
  H137     1.0000 0.14383  0.86957  0.90507  Biso   1.000  H
  C189     1.0000 0.19823  0.92217  0.80217  Biso   1.000  C
  H138     1.0000 0.18133  0.93047  0.73337  Biso   1.000  H
  C190     1.0000 0.24483  0.94587  0.80077  Biso   1.000  C
  H139     1.0000 0.26053  0.97127  0.73187  Biso   1.000  H
  C191     1.0000 0.26923  0.93307  0.89967  Biso   1.000  C
  C192     1.0000 0.24463  0.89607  0.00097  Biso   1.000  C
  H140     1.0000 0.26093  0.88677  0.06857  Biso   1.000  H
  C193     1.0000 0.31983  0.96007  0.90377  Biso   1.000  C
  C194     1.0000 0.34633  0.93697  0.93777  Biso   1.000  C
  C195     1.0000 0.33393  0.89407  0.88147  Biso   1.000  C
  H141     1.0000 0.30653  0.87677  0.82307  Biso   1.000  H
  C196     1.0000 0.36263  0.87697  0.91287  Biso   1.000  C
  H142     1.0000 0.35513  0.84757  0.87537  Biso   1.000  H
  C197     1.0000 0.40193  0.90247  0.99797  Biso   1.000  C
  H143     1.0000 0.42093  0.88987  0.01957  Biso   1.000  H
  C198     1.0000 0.38713  0.96147  0.02047  Biso   1.000  C
  H144     1.0000 0.39593  0.99137  0.05627  Biso   1.000  H
