data_image0
_cell_length_a       34.533
_cell_length_b       34.533
_cell_length_c       8.473
_cell_angle_alpha    90
_cell_angle_beta     90
_cell_angle_gamma    120

_symmetry_space_group_name_H-M    "P 1"
_symmetry_int_tables_number       1

loop_
  _symmetry_equiv_pos_as_xyz
  'x, y, z'

loop_
  _atom_site_label
  _atom_site_occupancy
  _atom_site_fract_x
  _atom_site_fract_y
  _atom_site_fract_z
  _atom_site_thermal_displace_type
  _atom_site_B_iso_or_equiv
  _atom_site_type_symbol
  Ag1      1.0000 0.14518  0.31774  0.50581  Biso   1.000  Ag
  O1       1.0000 0.33328  0.32880  0.75160  Biso   1.000  O
  N1       1.0000 0.20470  0.33780  0.65470  Biso   1.000  N
  N2       1.0000 0.27650  0.19750  0.60360  Biso   1.000  N
  C1       1.0000 0.21810  0.37280  0.75080  Biso   1.000  C
  H1       1.0000 0.20150  0.38740  0.75420  Biso   1.000  H
  C2       1.0000 0.25550  0.38840  0.84560  Biso   1.000  C
  H2       1.0000 0.26380  0.41280  0.91180  Biso   1.000  H
  C3       1.0000 0.28000  0.36750  0.84080  Biso   1.000  C
  H3       1.0000 0.30570  0.37790  0.90160  Biso   1.000  H
  C4       1.0000 0.26600  0.33010  0.74380  Biso   1.000  C
  C5       1.0000 0.22800  0.31710  0.65280  Biso   1.000  C
  H4       1.0000 0.21840  0.29240  0.58710  Biso   1.000  H
  C6       1.0000 0.29280  0.30740  0.73440  Biso   1.000  C
  C7       1.0000 0.27050  0.25850  0.70860  Biso   1.000  C
  C8       1.0000 0.22840  0.22880  0.77440  Biso   1.000  C
  H5       1.0000 0.21250  0.23920  0.83170  Biso   1.000  H
  C9       1.0000 0.21180  0.18400  0.75080  Biso   1.000  C
  H6       1.0000 0.18400  0.16330  0.79160  Biso   1.000  H
  C10      1.0000 0.23650  0.16940  0.66620  Biso   1.000  C
  H7       1.0000 0.22470  0.13890  0.65210  Biso   1.000  H
  C11      1.0000 0.29330  0.24120  0.62860  Biso   1.000  C
  H8       1.0000 0.32170  0.26090  0.59020  Biso   1.000  H
  Ag2      1.0000 0.68226  0.82744  0.50581  Biso   1.000  Ag
  O2       1.0000 0.67120  0.00448  0.75160  Biso   1.000  O
  N3       1.0000 0.66220  0.86690  0.65470  Biso   1.000  N
  N4       1.0000 0.80250  0.07900  0.60360  Biso   1.000  N
  C12      1.0000 0.62720  0.84530  0.75080  Biso   1.000  C
  H9       1.0000 0.61260  0.81410  0.75420  Biso   1.000  H
  C13      1.0000 0.61160  0.86710  0.84560  Biso   1.000  C
  H10      1.0000 0.58720  0.85100  0.91180  Biso   1.000  H
  C14      1.0000 0.63250  0.91250  0.84080  Biso   1.000  C
  H11      1.0000 0.62210  0.92780  0.90160  Biso   1.000  H
  C15      1.0000 0.66990  0.93590  0.74380  Biso   1.000  C
  C16      1.0000 0.68290  0.91090  0.65280  Biso   1.000  C
  H12      1.0000 0.70760  0.92600  0.58710  Biso   1.000  H
  C17      1.0000 0.69260  0.98540  0.73440  Biso   1.000  C
  C18      1.0000 0.74150  0.01200  0.70860  Biso   1.000  C
  C19      1.0000 0.77120  0.99960  0.77440  Biso   1.000  C
  H13      1.0000 0.76080  0.97330  0.83170  Biso   1.000  H
  C20      1.0000 0.81600  0.02780  0.75080  Biso   1.000  C
  H14      1.0000 0.83670  0.02070  0.79160  Biso   1.000  H
  C21      1.0000 0.83060  0.06710  0.66620  Biso   1.000  C
  H15      1.0000 0.86110  0.08580  0.65210  Biso   1.000  H
  C22      1.0000 0.75880  0.05210  0.62860  Biso   1.000  C
  H16      1.0000 0.73910  0.06080  0.59020  Biso   1.000  H
  Ag3      1.0000 0.17256  0.85482  0.50581  Biso   1.000  Ag
  O3       1.0000 0.99552  0.66672  0.75160  Biso   1.000  O
  N5       1.0000 0.13310  0.79530  0.65470  Biso   1.000  N
  N6       1.0000 0.92100  0.72350  0.60360  Biso   1.000  N
  C23      1.0000 0.15470  0.78190  0.75080  Biso   1.000  C
  H17      1.0000 0.18590  0.79850  0.75420  Biso   1.000  H
  C24      1.0000 0.13290  0.74450  0.84560  Biso   1.000  C
  H18      1.0000 0.14900  0.73620  0.91180  Biso   1.000  H
  C25      1.0000 0.08750  0.72000  0.84080  Biso   1.000  C
  H19      1.0000 0.07220  0.69430  0.90160  Biso   1.000  H
  C26      1.0000 0.06410  0.73400  0.74380  Biso   1.000  C
  C27      1.0000 0.08910  0.77200  0.65280  Biso   1.000  C
  H20      1.0000 0.07400  0.78160  0.58710  Biso   1.000  H
  C28      1.0000 0.01460  0.70720  0.73440  Biso   1.000  C
  C29      1.0000 0.98800  0.72950  0.70860  Biso   1.000  C
  C30      1.0000 0.00040  0.77160  0.77440  Biso   1.000  C
  H21      1.0000 0.02670  0.78750  0.83170  Biso   1.000  H
  C31      1.0000 0.97220  0.78820  0.75080  Biso   1.000  C
  H22      1.0000 0.97930  0.81600  0.79160  Biso   1.000  H
  C32      1.0000 0.93290  0.76350  0.66620  Biso   1.000  C
  H23      1.0000 0.91420  0.77530  0.65210  Biso   1.000  H
  C33      1.0000 0.94790  0.70670  0.62860  Biso   1.000  C
  H24      1.0000 0.93920  0.67830  0.59020  Biso   1.000  H
  Ag4      1.0000 0.85482  0.68226  0.49419  Biso   1.000  Ag
  O4       1.0000 0.66672  0.67120  0.24840  Biso   1.000  O
  N7       1.0000 0.79530  0.66220  0.34530  Biso   1.000  N
  N8       1.0000 0.72350  0.80250  0.39640  Biso   1.000  N
  C34      1.0000 0.78190  0.62720  0.24920  Biso   1.000  C
  H25      1.0000 0.79850  0.61260  0.24580  Biso   1.000  H
  C35      1.0000 0.74450  0.61160  0.15440  Biso   1.000  C
  H26      1.0000 0.73620  0.58720  0.08820  Biso   1.000  H
  C36      1.0000 0.72000  0.63250  0.15920  Biso   1.000  C
  H27      1.0000 0.69430  0.62210  0.09840  Biso   1.000  H
  C37      1.0000 0.73400  0.66990  0.25620  Biso   1.000  C
  C38      1.0000 0.77200  0.68290  0.34720  Biso   1.000  C
  H28      1.0000 0.78160  0.70760  0.41290  Biso   1.000  H
  C39      1.0000 0.70720  0.69260  0.26560  Biso   1.000  C
  C40      1.0000 0.72950  0.74150  0.29140  Biso   1.000  C
  C41      1.0000 0.77160  0.77120  0.22560  Biso   1.000  C
  H29      1.0000 0.78750  0.76080  0.16830  Biso   1.000  H
  C42      1.0000 0.78820  0.81600  0.24920  Biso   1.000  C
  H30      1.0000 0.81600  0.83670  0.20840  Biso   1.000  H
  C43      1.0000 0.76350  0.83060  0.33380  Biso   1.000  C
  H31      1.0000 0.77530  0.86110  0.34790  Biso   1.000  H
  C44      1.0000 0.70670  0.75880  0.37140  Biso   1.000  C
  H32      1.0000 0.67830  0.73910  0.40980  Biso   1.000  H
  Ag5      1.0000 0.31774  0.17256  0.49419  Biso   1.000  Ag
  O5       1.0000 0.32880  0.99552  0.24840  Biso   1.000  O
  N9       1.0000 0.33780  0.13310  0.34530  Biso   1.000  N
  N10      1.0000 0.19750  0.92100  0.39640  Biso   1.000  N
  C45      1.0000 0.37280  0.15470  0.24920  Biso   1.000  C
  H33      1.0000 0.38740  0.18590  0.24580  Biso   1.000  H
  C46      1.0000 0.38840  0.13290  0.15440  Biso   1.000  C
  H34      1.0000 0.41280  0.14900  0.08820  Biso   1.000  H
  C47      1.0000 0.36750  0.08750  0.15920  Biso   1.000  C
  H35      1.0000 0.37790  0.07220  0.09840  Biso   1.000  H
  C48      1.0000 0.33010  0.06410  0.25620  Biso   1.000  C
  C49      1.0000 0.31710  0.08910  0.34720  Biso   1.000  C
  H36      1.0000 0.29240  0.07400  0.41290  Biso   1.000  H
  C50      1.0000 0.30740  0.01460  0.26560  Biso   1.000  C
  C51      1.0000 0.25850  0.98800  0.29140  Biso   1.000  C
  C52      1.0000 0.22880  0.00040  0.22560  Biso   1.000  C
  H37      1.0000 0.23920  0.02670  0.16830  Biso   1.000  H
  C53      1.0000 0.18400  0.97220  0.24920  Biso   1.000  C
  H38      1.0000 0.16330  0.97930  0.20840  Biso   1.000  H
  C54      1.0000 0.16940  0.93290  0.33380  Biso   1.000  C
  H39      1.0000 0.13890  0.91420  0.34790  Biso   1.000  H
  C55      1.0000 0.24120  0.94790  0.37140  Biso   1.000  C
  H40      1.0000 0.26090  0.93920  0.40980  Biso   1.000  H
  Ag6      1.0000 0.82744  0.14518  0.49419  Biso   1.000  Ag
  O6       1.0000 0.00448  0.33328  0.24840  Biso   1.000  O
  N11      1.0000 0.86690  0.20470  0.34530  Biso   1.000  N
  N12      1.0000 0.07900  0.27650  0.39640  Biso   1.000  N
  C56      1.0000 0.84530  0.21810  0.24920  Biso   1.000  C
  H41      1.0000 0.81410  0.20150  0.24580  Biso   1.000  H
  C57      1.0000 0.86710  0.25550  0.15440  Biso   1.000  C
  H42      1.0000 0.85100  0.26380  0.08820  Biso   1.000  H
  C58      1.0000 0.91250  0.28000  0.15920  Biso   1.000  C
  H43      1.0000 0.92780  0.30570  0.09840  Biso   1.000  H
  C59      1.0000 0.93590  0.26600  0.25620  Biso   1.000  C
  C60      1.0000 0.91090  0.22800  0.34720  Biso   1.000  C
  H44      1.0000 0.92600  0.21840  0.41290  Biso   1.000  H
  C61      1.0000 0.98540  0.29280  0.26560  Biso   1.000  C
  C62      1.0000 0.01200  0.27050  0.29140  Biso   1.000  C
  C63      1.0000 0.99960  0.22840  0.22560  Biso   1.000  C
  H45      1.0000 0.97330  0.21250  0.16830  Biso   1.000  H
  C64      1.0000 0.02780  0.21180  0.24920  Biso   1.000  C
  H46      1.0000 0.02070  0.18400  0.20840  Biso   1.000  H
  C65      1.0000 0.06710  0.23650  0.33380  Biso   1.000  C
  H47      1.0000 0.08580  0.22470  0.34790  Biso   1.000  H
  C66      1.0000 0.05210  0.29330  0.37140  Biso   1.000  C
  H48      1.0000 0.06080  0.32170  0.40980  Biso   1.000  H
  Ag7      1.0000 0.81185  0.65107  0.83914  Biso   1.000  Ag
  O7       1.0000 0.99995  0.66213  0.08493  Biso   1.000  O
  N13      1.0000 0.87137  0.67113  0.98803  Biso   1.000  N
  N14      1.0000 0.94317  0.53083  0.93693  Biso   1.000  N
  C67      1.0000 0.88477  0.70613  0.08413  Biso   1.000  C
  H49      1.0000 0.86817  0.72073  0.08753  Biso   1.000  H
  C68      1.0000 0.92217  0.72173  0.17893  Biso   1.000  C
  H50      1.0000 0.93047  0.74613  0.24513  Biso   1.000  H
  C69      1.0000 0.94667  0.70083  0.17413  Biso   1.000  C
  H51      1.0000 0.97237  0.71123  0.23493  Biso   1.000  H
  C70      1.0000 0.93267  0.66343  0.07713  Biso   1.000  C
  C71      1.0000 0.89467  0.65043  0.98613  Biso   1.000  C
  H52      1.0000 0.88507  0.62573  0.92043  Biso   1.000  H
  C72      1.0000 0.95947  0.64073  0.06773  Biso   1.000  C
  C73      1.0000 0.93717  0.59183  0.04193  Biso   1.000  C
  C74      1.0000 0.89507  0.56213  0.10773  Biso   1.000  C
  H53      1.0000 0.87917  0.57253  0.16503  Biso   1.000  H
  C75      1.0000 0.87847  0.51733  0.08413  Biso   1.000  C
  H54      1.0000 0.85067  0.49663  0.12493  Biso   1.000  H
  C76      1.0000 0.90317  0.50273  0.99953  Biso   1.000  C
  H55      1.0000 0.89137  0.47223  0.98543  Biso   1.000  H
  C77      1.0000 0.95997  0.57453  0.96193  Biso   1.000  C
  H56      1.0000 0.98837  0.59423  0.92353  Biso   1.000  H
  Ag8      1.0000 0.34893  0.16077  0.83914  Biso   1.000  Ag
  O8       1.0000 0.33787  0.33781  0.08493  Biso   1.000  O
  N15      1.0000 0.32887  0.20023  0.98803  Biso   1.000  N
  N16      1.0000 0.46917  0.41233  0.93693  Biso   1.000  N
  C78      1.0000 0.29387  0.17863  0.08413  Biso   1.000  C
  H57      1.0000 0.27927  0.14743  0.08753  Biso   1.000  H
  C79      1.0000 0.27827  0.20043  0.17893  Biso   1.000  C
  H58      1.0000 0.25387  0.18433  0.24513  Biso   1.000  H
  C80      1.0000 0.29917  0.24583  0.17413  Biso   1.000  C
  H59      1.0000 0.28877  0.26113  0.23493  Biso   1.000  H
  C81      1.0000 0.33657  0.26923  0.07713  Biso   1.000  C
  C82      1.0000 0.34957  0.24423  0.98613  Biso   1.000  C
  H60      1.0000 0.37427  0.25933  0.92043  Biso   1.000  H
  C83      1.0000 0.35927  0.31873  0.06773  Biso   1.000  C
  C84      1.0000 0.40817  0.34533  0.04193  Biso   1.000  C
  C85      1.0000 0.43787  0.33293  0.10773  Biso   1.000  C
  H61      1.0000 0.42747  0.30663  0.16503  Biso   1.000  H
  C86      1.0000 0.48267  0.36113  0.08413  Biso   1.000  C
  H62      1.0000 0.50337  0.35403  0.12493  Biso   1.000  H
  C87      1.0000 0.49727  0.40043  0.99953  Biso   1.000  C
  H63      1.0000 0.52777  0.41913  0.98543  Biso   1.000  H
  C88      1.0000 0.42547  0.38543  0.96193  Biso   1.000  C
  H64      1.0000 0.40577  0.39413  0.92353  Biso   1.000  H
  Ag9      1.0000 0.83923  0.18815  0.83914  Biso   1.000  Ag
  O9       1.0000 0.66219  0.00005  0.08493  Biso   1.000  O
  N17      1.0000 0.79977  0.12863  0.98803  Biso   1.000  N
  N18      1.0000 0.58767  0.05683  0.93693  Biso   1.000  N
  C89      1.0000 0.82137  0.11523  0.08413  Biso   1.000  C
  H65      1.0000 0.85257  0.13183  0.08753  Biso   1.000  H
  C90      1.0000 0.79957  0.07783  0.17893  Biso   1.000  C
  H66      1.0000 0.81567  0.06953  0.24513  Biso   1.000  H
  C91      1.0000 0.75417  0.05333  0.17413  Biso   1.000  C
  H67      1.0000 0.73887  0.02763  0.23493  Biso   1.000  H
  C92      1.0000 0.73077  0.06733  0.07713  Biso   1.000  C
  C93      1.0000 0.75577  0.10533  0.98613  Biso   1.000  C
  H68      1.0000 0.74067  0.11493  0.92043  Biso   1.000  H
  C94      1.0000 0.68127  0.04053  0.06773  Biso   1.000  C
  C95      1.0000 0.65467  0.06283  0.04193  Biso   1.000  C
  C96      1.0000 0.66707  0.10493  0.10773  Biso   1.000  C
  H69      1.0000 0.69337  0.12083  0.16503  Biso   1.000  H
  C97      1.0000 0.63887  0.12153  0.08413  Biso   1.000  C
  H70      1.0000 0.64597  0.14933  0.12493  Biso   1.000  H
  C98      1.0000 0.59957  0.09683  0.99953  Biso   1.000  C
  H71      1.0000 0.58087  0.10863  0.98543  Biso   1.000  H
  C99      1.0000 0.61457  0.04003  0.96193  Biso   1.000  C
  H72      1.0000 0.60587  0.01163  0.92353  Biso   1.000  H
  Ag10     1.0000 0.52149  0.01559  0.82752  Biso   1.000  Ag
  O10      1.0000 0.33339  0.00453  0.58173  Biso   1.000  O
  N19      1.0000 0.46197  0.99553  0.67863  Biso   1.000  N
  N20      1.0000 0.39017  0.13583  0.72973  Biso   1.000  N
  C100     1.0000 0.44857  0.96053  0.58253  Biso   1.000  C
  H73      1.0000 0.46517  0.94593  0.57913  Biso   1.000  H
  C101     1.0000 0.41117  0.94493  0.48773  Biso   1.000  C
  H74      1.0000 0.40287  0.92053  0.42153  Biso   1.000  H
  C102     1.0000 0.38667  0.96583  0.49253  Biso   1.000  C
  H75      1.0000 0.36097  0.95543  0.43173  Biso   1.000  H
  C103     1.0000 0.40067  0.00323  0.58953  Biso   1.000  C
  C104     1.0000 0.43867  0.01623  0.68053  Biso   1.000  C
  H76      1.0000 0.44827  0.04093  0.74623  Biso   1.000  H
  C105     1.0000 0.37387  0.02593  0.59893  Biso   1.000  C
  C106     1.0000 0.39617  0.07483  0.62473  Biso   1.000  C
  C107     1.0000 0.43827  0.10453  0.55893  Biso   1.000  C
  H77      1.0000 0.45417  0.09413  0.50163  Biso   1.000  H
  C108     1.0000 0.45487  0.14933  0.58253  Biso   1.000  C
  H78      1.0000 0.48267  0.17003  0.54173  Biso   1.000  H
  C109     1.0000 0.43017  0.16393  0.66713  Biso   1.000  C
  H79      1.0000 0.44197  0.19443  0.68123  Biso   1.000  H
  C110     1.0000 0.37337  0.09213  0.70473  Biso   1.000  C
  H80      1.0000 0.34497  0.07243  0.74313  Biso   1.000  H
  Ag11     1.0000 0.98441  0.50589  0.82752  Biso   1.000  Ag
  O11      1.0000 0.99547  0.32885  0.58173  Biso   1.000  O
  N21      1.0000 0.00447  0.46643  0.67863  Biso   1.000  N
  N22      1.0000 0.86417  0.25433  0.72973  Biso   1.000  N
  C111     1.0000 0.03947  0.48803  0.58253  Biso   1.000  C
  H81      1.0000 0.05407  0.51923  0.57913  Biso   1.000  H
  C112     1.0000 0.05507  0.46623  0.48773  Biso   1.000  C
  H82      1.0000 0.07947  0.48233  0.42153  Biso   1.000  H
  C113     1.0000 0.03417  0.42083  0.49253  Biso   1.000  C
  H83      1.0000 0.04457  0.40553  0.43173  Biso   1.000  H
  C114     1.0000 0.99677  0.39743  0.58953  Biso   1.000  C
  C115     1.0000 0.98377  0.42243  0.68053  Biso   1.000  C
  H84      1.0000 0.95907  0.40733  0.74623  Biso   1.000  H
  C116     1.0000 0.97407  0.34793  0.59893  Biso   1.000  C
  C117     1.0000 0.92517  0.32133  0.62473  Biso   1.000  C
  C118     1.0000 0.89547  0.33373  0.55893  Biso   1.000  C
  H85      1.0000 0.90587  0.36003  0.50163  Biso   1.000  H
  C119     1.0000 0.85067  0.30553  0.58253  Biso   1.000  C
  H86      1.0000 0.82997  0.31263  0.54173  Biso   1.000  H
  C120     1.0000 0.83607  0.26623  0.66713  Biso   1.000  C
  H87      1.0000 0.80557  0.24753  0.68123  Biso   1.000  H
  C121     1.0000 0.90787  0.28123  0.70473  Biso   1.000  C
  H88      1.0000 0.92757  0.27253  0.74313  Biso   1.000  H
  Ag12     1.0000 0.49411  0.47851  0.82752  Biso   1.000  Ag
  O12      1.0000 0.67115  0.66661  0.58173  Biso   1.000  O
  N23      1.0000 0.53357  0.53803  0.67863  Biso   1.000  N
  N24      1.0000 0.74567  0.60983  0.72973  Biso   1.000  N
  C122     1.0000 0.51197  0.55143  0.58253  Biso   1.000  C
  H89      1.0000 0.48077  0.53483  0.57913  Biso   1.000  H
  C123     1.0000 0.53377  0.58883  0.48773  Biso   1.000  C
  H90      1.0000 0.51767  0.59713  0.42153  Biso   1.000  H
  C124     1.0000 0.57917  0.61333  0.49253  Biso   1.000  C
  H91      1.0000 0.59447  0.63903  0.43173  Biso   1.000  H
  C125     1.0000 0.60257  0.59933  0.58953  Biso   1.000  C
  C126     1.0000 0.57757  0.56133  0.68053  Biso   1.000  C
  H92      1.0000 0.59267  0.55173  0.74623  Biso   1.000  H
  C127     1.0000 0.65207  0.62613  0.59893  Biso   1.000  C
  C128     1.0000 0.67867  0.60383  0.62473  Biso   1.000  C
  C129     1.0000 0.66627  0.56173  0.55893  Biso   1.000  C
  H93      1.0000 0.63997  0.54583  0.50163  Biso   1.000  H
  C130     1.0000 0.69447  0.54513  0.58253  Biso   1.000  C
  H94      1.0000 0.68737  0.51733  0.54173  Biso   1.000  H
  C131     1.0000 0.73377  0.56983  0.66713  Biso   1.000  C
  H95      1.0000 0.75247  0.55803  0.68123  Biso   1.000  H
  C132     1.0000 0.71877  0.62663  0.70473  Biso   1.000  C
  H96      1.0000 0.72747  0.65503  0.74313  Biso   1.000  H
  Ag13     1.0000 0.47851  0.98441  0.17248  Biso   1.000  Ag
  O13      1.0000 0.66661  0.99547  0.41827  Biso   1.000  O
  N25      1.0000 0.53803  0.00447  0.32137  Biso   1.000  N
  N26      1.0000 0.60983  0.86417  0.27027  Biso   1.000  N
  C133     1.0000 0.55143  0.03947  0.41747  Biso   1.000  C
  H97      1.0000 0.53483  0.05407  0.42087  Biso   1.000  H
  C134     1.0000 0.58883  0.05507  0.51227  Biso   1.000  C
  H98      1.0000 0.59713  0.07947  0.57847  Biso   1.000  H
  C135     1.0000 0.61333  0.03417  0.50747  Biso   1.000  C
  H99      1.0000 0.63903  0.04457  0.56827  Biso   1.000  H
  C136     1.0000 0.59933  0.99677  0.41047  Biso   1.000  C
  C137     1.0000 0.56133  0.98377  0.31947  Biso   1.000  C
  H100     1.0000 0.55173  0.95907  0.25377  Biso   1.000  H
  C138     1.0000 0.62613  0.97407  0.40107  Biso   1.000  C
  C139     1.0000 0.60383  0.92517  0.37527  Biso   1.000  C
  C140     1.0000 0.56173  0.89547  0.44107  Biso   1.000  C
  H101     1.0000 0.54583  0.90587  0.49837  Biso   1.000  H
  C141     1.0000 0.54513  0.85067  0.41747  Biso   1.000  C
  H102     1.0000 0.51733  0.82997  0.45827  Biso   1.000  H
  C142     1.0000 0.56983  0.83607  0.33287  Biso   1.000  C
  H103     1.0000 0.55803  0.80557  0.31877  Biso   1.000  H
  C143     1.0000 0.62663  0.90787  0.29527  Biso   1.000  C
  H104     1.0000 0.65503  0.92757  0.25687  Biso   1.000  H
  Ag14     1.0000 0.01559  0.49411  0.17248  Biso   1.000  Ag
  O14      1.0000 0.00453  0.67115  0.41827  Biso   1.000  O
  N27      1.0000 0.99553  0.53357  0.32137  Biso   1.000  N
  N28      1.0000 0.13583  0.74567  0.27027  Biso   1.000  N
  C144     1.0000 0.96053  0.51197  0.41747  Biso   1.000  C
  H105     1.0000 0.94593  0.48077  0.42087  Biso   1.000  H
  C145     1.0000 0.94493  0.53377  0.51227  Biso   1.000  C
  H106     1.0000 0.92053  0.51767  0.57847  Biso   1.000  H
  C146     1.0000 0.96583  0.57917  0.50747  Biso   1.000  C
  H107     1.0000 0.95543  0.59447  0.56827  Biso   1.000  H
  C147     1.0000 0.00323  0.60257  0.41047  Biso   1.000  C
  C148     1.0000 0.01623  0.57757  0.31947  Biso   1.000  C
  H108     1.0000 0.04093  0.59267  0.25377  Biso   1.000  H
  C149     1.0000 0.02593  0.65207  0.40107  Biso   1.000  C
  C150     1.0000 0.07483  0.67867  0.37527  Biso   1.000  C
  C151     1.0000 0.10453  0.66627  0.44107  Biso   1.000  C
  H109     1.0000 0.09413  0.63997  0.49837  Biso   1.000  H
  C152     1.0000 0.14933  0.69447  0.41747  Biso   1.000  C
  H110     1.0000 0.17003  0.68737  0.45827  Biso   1.000  H
  C153     1.0000 0.16393  0.73377  0.33287  Biso   1.000  C
  H111     1.0000 0.19443  0.75247  0.31877  Biso   1.000  H
  C154     1.0000 0.09213  0.71877  0.29527  Biso   1.000  C
  H112     1.0000 0.07243  0.72747  0.25687  Biso   1.000  H
  Ag15     1.0000 0.50589  0.52149  0.17248  Biso   1.000  Ag
  O15      1.0000 0.32885  0.33339  0.41827  Biso   1.000  O
  N29      1.0000 0.46643  0.46197  0.32137  Biso   1.000  N
  N30      1.0000 0.25433  0.39017  0.27027  Biso   1.000  N
  C155     1.0000 0.48803  0.44857  0.41747  Biso   1.000  C
  H113     1.0000 0.51923  0.46517  0.42087  Biso   1.000  H
  C156     1.0000 0.46623  0.41117  0.51227  Biso   1.000  C
  H114     1.0000 0.48233  0.40287  0.57847  Biso   1.000  H
  C157     1.0000 0.42083  0.38667  0.50747  Biso   1.000  C
  H115     1.0000 0.40553  0.36097  0.56827  Biso   1.000  H
  C158     1.0000 0.39743  0.40067  0.41047  Biso   1.000  C
  C159     1.0000 0.42243  0.43867  0.31947  Biso   1.000  C
  H116     1.0000 0.40733  0.44827  0.25377  Biso   1.000  H
  C160     1.0000 0.34793  0.37387  0.40107  Biso   1.000  C
  C161     1.0000 0.32133  0.39617  0.37527  Biso   1.000  C
  C162     1.0000 0.33373  0.43827  0.44107  Biso   1.000  C
  H117     1.0000 0.36003  0.45417  0.49837  Biso   1.000  H
  C163     1.0000 0.30553  0.45487  0.41747  Biso   1.000  C
  H118     1.0000 0.31263  0.48267  0.45827  Biso   1.000  H
  C164     1.0000 0.26623  0.43017  0.33287  Biso   1.000  C
  H119     1.0000 0.24753  0.44197  0.31877  Biso   1.000  H
  C165     1.0000 0.28123  0.37337  0.29527  Biso   1.000  C
  H120     1.0000 0.27253  0.34497  0.25687  Biso   1.000  H
  Ag16     1.0000 0.18815  0.34893  0.16086  Biso   1.000  Ag
  O16      1.0000 0.00005  0.33787  0.91507  Biso   1.000  O
  N31      1.0000 0.12863  0.32887  0.01197  Biso   1.000  N
  N32      1.0000 0.05683  0.46917  0.06307  Biso   1.000  N
  C166     1.0000 0.11523  0.29387  0.91587  Biso   1.000  C
  H121     1.0000 0.13183  0.27927  0.91247  Biso   1.000  H
  C167     1.0000 0.07783  0.27827  0.82107  Biso   1.000  C
  H122     1.0000 0.06953  0.25387  0.75487  Biso   1.000  H
  C168     1.0000 0.05333  0.29917  0.82587  Biso   1.000  C
  H123     1.0000 0.02763  0.28877  0.76507  Biso   1.000  H
  C169     1.0000 0.06733  0.33657  0.92287  Biso   1.000  C
  C170     1.0000 0.10533  0.34957  0.01387  Biso   1.000  C
  H124     1.0000 0.11493  0.37427  0.07957  Biso   1.000  H
  C171     1.0000 0.04053  0.35927  0.93227  Biso   1.000  C
  C172     1.0000 0.06283  0.40817  0.95807  Biso   1.000  C
  C173     1.0000 0.10493  0.43787  0.89227  Biso   1.000  C
  H125     1.0000 0.12083  0.42747  0.83497  Biso   1.000  H
  C174     1.0000 0.12153  0.48267  0.91587  Biso   1.000  C
  H126     1.0000 0.14933  0.50337  0.87507  Biso   1.000  H
  C175     1.0000 0.09683  0.49727  0.00047  Biso   1.000  C
  H127     1.0000 0.10863  0.52777  0.01457  Biso   1.000  H
  C176     1.0000 0.04003  0.42547  0.03807  Biso   1.000  C
  H128     1.0000 0.01163  0.40577  0.07647  Biso   1.000  H
  Ag17     1.0000 0.65107  0.83923  0.16086  Biso   1.000  Ag
  O17      1.0000 0.66213  0.66219  0.91507  Biso   1.000  O
  N33      1.0000 0.67113  0.79977  0.01197  Biso   1.000  N
  N34      1.0000 0.53083  0.58767  0.06307  Biso   1.000  N
  C177     1.0000 0.70613  0.82137  0.91587  Biso   1.000  C
  H129     1.0000 0.72073  0.85257  0.91247  Biso   1.000  H
  C178     1.0000 0.72173  0.79957  0.82107  Biso   1.000  C
  H130     1.0000 0.74613  0.81567  0.75487  Biso   1.000  H
  C179     1.0000 0.70083  0.75417  0.82587  Biso   1.000  C
  H131     1.0000 0.71123  0.73887  0.76507  Biso   1.000  H
  C180     1.0000 0.66343  0.73077  0.92287  Biso   1.000  C
  C181     1.0000 0.65043  0.75577  0.01387  Biso   1.000  C
  H132     1.0000 0.62573  0.74067  0.07957  Biso   1.000  H
  C182     1.0000 0.64073  0.68127  0.93227  Biso   1.000  C
  C183     1.0000 0.59183  0.65467  0.95807  Biso   1.000  C
  C184     1.0000 0.56213  0.66707  0.89227  Biso   1.000  C
  H133     1.0000 0.57253  0.69337  0.83497  Biso   1.000  H
  C185     1.0000 0.51733  0.63887  0.91587  Biso   1.000  C
  H134     1.0000 0.49663  0.64597  0.87507  Biso   1.000  H
  C186     1.0000 0.50273  0.59957  0.00047  Biso   1.000  C
  H135     1.0000 0.47223  0.58087  0.01457  Biso   1.000  H
  C187     1.0000 0.57453  0.61457  0.03807  Biso   1.000  C
  H136     1.0000 0.59423  0.60587  0.07647  Biso   1.000  H
  Ag18     1.0000 0.16077  0.81185  0.16086  Biso   1.000  Ag
  O18      1.0000 0.33781  0.99995  0.91507  Biso   1.000  O
  N35      1.0000 0.20023  0.87137  0.01197  Biso   1.000  N
  N36      1.0000 0.41233  0.94317  0.06307  Biso   1.000  N
  C188     1.0000 0.17863  0.88477  0.91587  Biso   1.000  C
  H137     1.0000 0.14743  0.86817  0.91247  Biso   1.000  H
  C189     1.0000 0.20043  0.92217  0.82107  Biso   1.000  C
  H138     1.0000 0.18433  0.93047  0.75487  Biso   1.000  H
  C190     1.0000 0.24583  0.94667  0.82587  Biso   1.000  C
  H139     1.0000 0.26113  0.97237  0.76507  Biso   1.000  H
  C191     1.0000 0.26923  0.93267  0.92287  Biso   1.000  C
  C192     1.0000 0.24423  0.89467  0.01387  Biso   1.000  C
  H140     1.0000 0.25933  0.88507  0.07957  Biso   1.000  H
  C193     1.0000 0.31873  0.95947  0.93227  Biso   1.000  C
  C194     1.0000 0.34533  0.93717  0.95807  Biso   1.000  C
  C195     1.0000 0.33293  0.89507  0.89227  Biso   1.000  C
  H141     1.0000 0.30663  0.87917  0.83497  Biso   1.000  H
  C196     1.0000 0.36113  0.87847  0.91587  Biso   1.000  C
  H142     1.0000 0.35403  0.85067  0.87507  Biso   1.000  H
  C197     1.0000 0.40043  0.90317  0.00047  Biso   1.000  C
  H143     1.0000 0.41913  0.89137  0.01457  Biso   1.000  H
  C198     1.0000 0.38543  0.95997  0.03807  Biso   1.000  C
  H144     1.0000 0.39413  0.98837  0.07647  Biso   1.000  H
