data_image0
_cell_length_a       34.5619
_cell_length_b       34.5619
_cell_length_c       8.3343
_cell_angle_alpha    90
_cell_angle_beta     90
_cell_angle_gamma    120

_symmetry_space_group_name_H-M    "P 1"
_symmetry_int_tables_number       1

loop_
  _symmetry_equiv_pos_as_xyz
  'x, y, z'

loop_
  _atom_site_label
  _atom_site_occupancy
  _atom_site_fract_x
  _atom_site_fract_y
  _atom_site_fract_z
  _atom_site_thermal_displace_type
  _atom_site_B_iso_or_equiv
  _atom_site_type_symbol
  Ag1      1.0000 0.80738  0.15060  0.83647  Biso   1.000  Ag
  O1       1.0000 0.00200  0.32394  0.01960  Biso   1.000  O
  N1       1.0000 0.86756  0.19000  0.98140  Biso   1.000  N
  N2       1.0000 0.95121  0.40832  0.93960  Biso   1.000  N
  C1       1.0000 0.89270  0.23500  0.96940  Biso   1.000  C
  H1       1.0000 0.88300  0.25050  0.90120  Biso   1.000  H
  C2       1.0000 0.93220  0.25890  0.05410  Biso   1.000  C
  C3       1.0000 0.94600  0.23670  0.15770  Biso   1.000  C
  H2       1.0000 0.97330  0.25250  0.21510  Biso   1.000  H
  C4       1.0000 0.91890  0.19090  0.17510  Biso   1.000  C
  H3       1.0000 0.92670  0.17480  0.24800  Biso   1.000  H
  C5       1.0000 0.88040  0.16910  0.08440  Biso   1.000  C
  H4       1.0000 0.86210  0.13760  0.09600  Biso   1.000  H
  C6       1.0000 0.96200  0.30850  0.03070  Biso   1.000  C
  C7       1.0000 0.96500  0.37840  0.94430  Biso   1.000  C
  H5       1.0000 0.99210  0.38540  0.89120  Biso   1.000  H
  C8       1.0000 0.94180  0.33760  0.02300  Biso   1.000  C
  C9       1.0000 0.90210  0.32720  0.10090  Biso   1.000  C
  H6       1.0000 0.88540  0.29970  0.15630  Biso   1.000  H
  C10      1.0000 0.88760  0.35730  0.09640  Biso   1.000  C
  H7       1.0000 0.86070  0.35100  0.14930  Biso   1.000  H
  C11      1.0000 0.91210  0.39710  0.01480  Biso   1.000  C
  H8       1.0000 0.90110  0.41740  0.01100  Biso   1.000  H
  Ag2      1.0000 0.84940  0.65678  0.83647  Biso   1.000  Ag
  O2       1.0000 0.67606  0.67806  0.01960  Biso   1.000  O
  N3       1.0000 0.81000  0.67756  0.98140  Biso   1.000  N
  N4       1.0000 0.59168  0.54289  0.93960  Biso   1.000  N
  C12      1.0000 0.76500  0.65770  0.96940  Biso   1.000  C
  H9       1.0000 0.74950  0.63250  0.90120  Biso   1.000  H
  C13      1.0000 0.74110  0.67330  0.05410  Biso   1.000  C
  C14      1.0000 0.76330  0.70930  0.15770  Biso   1.000  C
  H10      1.0000 0.74750  0.72080  0.21510  Biso   1.000  H
  C15      1.0000 0.80910  0.72800  0.17510  Biso   1.000  C
  H11      1.0000 0.82520  0.75190  0.24800  Biso   1.000  H
  C16      1.0000 0.83090  0.71130  0.08440  Biso   1.000  C
  H12      1.0000 0.86240  0.72450  0.09600  Biso   1.000  H
  C17      1.0000 0.69150  0.65350  0.03070  Biso   1.000  C
  C18      1.0000 0.62160  0.58660  0.94430  Biso   1.000  C
  H13      1.0000 0.61460  0.60670  0.89120  Biso   1.000  H
  C19      1.0000 0.66240  0.60420  0.02300  Biso   1.000  C
  C20      1.0000 0.67280  0.57490  0.10090  Biso   1.000  C
  H14      1.0000 0.70030  0.58570  0.15630  Biso   1.000  H
  C21      1.0000 0.64270  0.53030  0.09640  Biso   1.000  C
  H15      1.0000 0.64900  0.50970  0.14930  Biso   1.000  H
  C22      1.0000 0.60290  0.51500  0.01480  Biso   1.000  C
  H16      1.0000 0.58260  0.48370  0.01100  Biso   1.000  H
  Ag3      1.0000 0.34322  0.19262  0.83647  Biso   1.000  Ag
  O3       1.0000 0.32194  0.99800  0.01960  Biso   1.000  O
  N5       1.0000 0.32244  0.13244  0.98140  Biso   1.000  N
  N6       1.0000 0.45711  0.04879  0.93960  Biso   1.000  N
  C23      1.0000 0.34230  0.10730  0.96940  Biso   1.000  C
  H17      1.0000 0.36750  0.11700  0.90120  Biso   1.000  H
  C24      1.0000 0.32670  0.06780  0.05410  Biso   1.000  C
  C25      1.0000 0.29070  0.05400  0.15770  Biso   1.000  C
  H18      1.0000 0.27920  0.02670  0.21510  Biso   1.000  H
  C26      1.0000 0.27200  0.08110  0.17510  Biso   1.000  C
  H19      1.0000 0.24810  0.07330  0.24800  Biso   1.000  H
  C27      1.0000 0.28870  0.11960  0.08440  Biso   1.000  C
  H20      1.0000 0.27550  0.13790  0.09600  Biso   1.000  H
  C28      1.0000 0.34650  0.03800  0.03070  Biso   1.000  C
  C29      1.0000 0.41340  0.03500  0.94430  Biso   1.000  C
  H21      1.0000 0.39330  0.00790  0.89120  Biso   1.000  H
  C30      1.0000 0.39580  0.05820  0.02300  Biso   1.000  C
  C31      1.0000 0.42510  0.09790  0.10090  Biso   1.000  C
  H22      1.0000 0.41430  0.11460  0.15630  Biso   1.000  H
  C32      1.0000 0.46970  0.11240  0.09640  Biso   1.000  C
  H23      1.0000 0.49030  0.13930  0.14930  Biso   1.000  H
  C33      1.0000 0.48500  0.08790  0.01480  Biso   1.000  C
  H24      1.0000 0.51630  0.09890  0.01100  Biso   1.000  H
  Ag4      1.0000 0.52596  0.51606  0.83020  Biso   1.000  Ag
  O4       1.0000 0.33133  0.34273  0.64707  Biso   1.000  O
  N7       1.0000 0.46577  0.47667  0.68527  Biso   1.000  N
  N8       1.0000 0.38212  0.25835  0.72707  Biso   1.000  N
  C34      1.0000 0.44063  0.43167  0.69727  Biso   1.000  C
  H25      1.0000 0.45033  0.41617  0.76547  Biso   1.000  H
  C35      1.0000 0.40113  0.40777  0.61257  Biso   1.000  C
  C36      1.0000 0.38733  0.42997  0.50897  Biso   1.000  C
  H26      1.0000 0.36003  0.41417  0.45157  Biso   1.000  H
  C37      1.0000 0.41443  0.47577  0.49157  Biso   1.000  C
  H27      1.0000 0.40663  0.49187  0.41867  Biso   1.000  H
  C38      1.0000 0.45293  0.49757  0.58227  Biso   1.000  C
  H28      1.0000 0.47123  0.52907  0.57067  Biso   1.000  H
  C39      1.0000 0.37133  0.35817  0.63597  Biso   1.000  C
  C40      1.0000 0.36833  0.28827  0.72237  Biso   1.000  C
  H29      1.0000 0.34123  0.28127  0.77547  Biso   1.000  H
  C41      1.0000 0.39153  0.32907  0.64367  Biso   1.000  C
  C42      1.0000 0.43123  0.33947  0.56577  Biso   1.000  C
  H30      1.0000 0.44793  0.36697  0.51037  Biso   1.000  H
  C43      1.0000 0.44573  0.30937  0.57027  Biso   1.000  C
  H31      1.0000 0.47263  0.31567  0.51737  Biso   1.000  H
  C44      1.0000 0.42123  0.26957  0.65187  Biso   1.000  C
  H32      1.0000 0.43223  0.24927  0.65567  Biso   1.000  H
  Ag5      1.0000 0.48394  0.00989  0.83020  Biso   1.000  Ag
  O5       1.0000 0.65727  0.98861  0.64707  Biso   1.000  O
  N9       1.0000 0.52333  0.98911  0.68527  Biso   1.000  N
  N10      1.0000 0.74165  0.12378  0.72707  Biso   1.000  N
  C45      1.0000 0.56833  0.00897  0.69727  Biso   1.000  C
  H33      1.0000 0.58383  0.03417  0.76547  Biso   1.000  H
  C46      1.0000 0.59223  0.99337  0.61257  Biso   1.000  C
  C47      1.0000 0.57003  0.95737  0.50897  Biso   1.000  C
  H34      1.0000 0.58583  0.94587  0.45157  Biso   1.000  H
  C48      1.0000 0.52423  0.93867  0.49157  Biso   1.000  C
  H35      1.0000 0.50813  0.91477  0.41867  Biso   1.000  H
  C49      1.0000 0.50243  0.95537  0.58227  Biso   1.000  C
  H36      1.0000 0.47093  0.94217  0.57067  Biso   1.000  H
  C50      1.0000 0.64183  0.01317  0.63597  Biso   1.000  C
  C51      1.0000 0.71173  0.08007  0.72237  Biso   1.000  C
  H37      1.0000 0.71873  0.05997  0.77547  Biso   1.000  H
  C52      1.0000 0.67093  0.06247  0.64367  Biso   1.000  C
  C53      1.0000 0.66053  0.09177  0.56577  Biso   1.000  C
  H38      1.0000 0.63303  0.08097  0.51037  Biso   1.000  H
  C54      1.0000 0.69063  0.13637  0.57027  Biso   1.000  C
  H39      1.0000 0.68433  0.15697  0.51737  Biso   1.000  H
  C55      1.0000 0.73043  0.15167  0.65187  Biso   1.000  C
  H40      1.0000 0.75073  0.18297  0.65567  Biso   1.000  H
  Ag6      1.0000 0.99011  0.47404  0.83020  Biso   1.000  Ag
  O6       1.0000 0.01139  0.66867  0.64707  Biso   1.000  O
  N11      1.0000 0.01089  0.53423  0.68527  Biso   1.000  N
  N12      1.0000 0.87622  0.61788  0.72707  Biso   1.000  N
  C56      1.0000 0.99103  0.55937  0.69727  Biso   1.000  C
  H41      1.0000 0.96583  0.54967  0.76547  Biso   1.000  H
  C57      1.0000 0.00663  0.59887  0.61257  Biso   1.000  C
  C58      1.0000 0.04263  0.61267  0.50897  Biso   1.000  C
  H42      1.0000 0.05413  0.63997  0.45157  Biso   1.000  H
  C59      1.0000 0.06133  0.58557  0.49157  Biso   1.000  C
  H43      1.0000 0.08523  0.59337  0.41867  Biso   1.000  H
  C60      1.0000 0.04463  0.54707  0.58227  Biso   1.000  C
  H44      1.0000 0.05783  0.52877  0.57067  Biso   1.000  H
  C61      1.0000 0.98683  0.62867  0.63597  Biso   1.000  C
  C62      1.0000 0.91993  0.63167  0.72237  Biso   1.000  C
  H45      1.0000 0.94003  0.65877  0.77547  Biso   1.000  H
  C63      1.0000 0.93753  0.60847  0.64367  Biso   1.000  C
  C64      1.0000 0.90823  0.56877  0.56577  Biso   1.000  C
  H46      1.0000 0.91903  0.55207  0.51037  Biso   1.000  H
  C65      1.0000 0.86363  0.55427  0.57027  Biso   1.000  C
  H47      1.0000 0.84303  0.52737  0.51737  Biso   1.000  H
  C66      1.0000 0.84833  0.57877  0.65187  Biso   1.000  C
  H48      1.0000 0.81703  0.56777  0.65567  Biso   1.000  H
  Ag7      1.0000 0.47404  0.48394  0.16980  Biso   1.000  Ag
  O7       1.0000 0.66867  0.65727  0.35293  Biso   1.000  O
  N13      1.0000 0.53423  0.52333  0.31473  Biso   1.000  N
  N14      1.0000 0.61788  0.74165  0.27293  Biso   1.000  N
  C67      1.0000 0.55937  0.56833  0.30273  Biso   1.000  C
  H49      1.0000 0.54967  0.58383  0.23453  Biso   1.000  H
  C68      1.0000 0.59887  0.59223  0.38743  Biso   1.000  C
  C69      1.0000 0.61267  0.57003  0.49103  Biso   1.000  C
  H50      1.0000 0.63997  0.58583  0.54843  Biso   1.000  H
  C70      1.0000 0.58557  0.52423  0.50843  Biso   1.000  C
  H51      1.0000 0.59337  0.50813  0.58133  Biso   1.000  H
  C71      1.0000 0.54707  0.50243  0.41773  Biso   1.000  C
  H52      1.0000 0.52877  0.47093  0.42933  Biso   1.000  H
  C72      1.0000 0.62867  0.64183  0.36403  Biso   1.000  C
  C73      1.0000 0.63167  0.71173  0.27763  Biso   1.000  C
  H53      1.0000 0.65877  0.71873  0.22453  Biso   1.000  H
  C74      1.0000 0.60847  0.67093  0.35633  Biso   1.000  C
  C75      1.0000 0.56877  0.66053  0.43423  Biso   1.000  C
  H54      1.0000 0.55207  0.63303  0.48963  Biso   1.000  H
  C76      1.0000 0.55427  0.69063  0.42973  Biso   1.000  C
  H55      1.0000 0.52737  0.68433  0.48263  Biso   1.000  H
  C77      1.0000 0.57877  0.73043  0.34813  Biso   1.000  C
  H56      1.0000 0.56777  0.75073  0.34433  Biso   1.000  H
  Ag8      1.0000 0.51606  0.99011  0.16980  Biso   1.000  Ag
  O8       1.0000 0.34273  0.01139  0.35293  Biso   1.000  O
  N15      1.0000 0.47667  0.01089  0.31473  Biso   1.000  N
  N16      1.0000 0.25835  0.87622  0.27293  Biso   1.000  N
  C78      1.0000 0.43167  0.99103  0.30273  Biso   1.000  C
  H57      1.0000 0.41617  0.96583  0.23453  Biso   1.000  H
  C79      1.0000 0.40777  0.00663  0.38743  Biso   1.000  C
  C80      1.0000 0.42997  0.04263  0.49103  Biso   1.000  C
  H58      1.0000 0.41417  0.05413  0.54843  Biso   1.000  H
  C81      1.0000 0.47577  0.06133  0.50843  Biso   1.000  C
  H59      1.0000 0.49187  0.08523  0.58133  Biso   1.000  H
  C82      1.0000 0.49757  0.04463  0.41773  Biso   1.000  C
  H60      1.0000 0.52907  0.05783  0.42933  Biso   1.000  H
  C83      1.0000 0.35817  0.98683  0.36403  Biso   1.000  C
  C84      1.0000 0.28827  0.91993  0.27763  Biso   1.000  C
  H61      1.0000 0.28127  0.94003  0.22453  Biso   1.000  H
  C85      1.0000 0.32907  0.93753  0.35633  Biso   1.000  C
  C86      1.0000 0.33947  0.90823  0.43423  Biso   1.000  C
  H62      1.0000 0.36697  0.91903  0.48963  Biso   1.000  H
  C87      1.0000 0.30937  0.86363  0.42973  Biso   1.000  C
  H63      1.0000 0.31567  0.84303  0.48263  Biso   1.000  H
  C88      1.0000 0.26957  0.84833  0.34813  Biso   1.000  C
  H64      1.0000 0.24927  0.81703  0.34433  Biso   1.000  H
  Ag9      1.0000 0.00989  0.52596  0.16980  Biso   1.000  Ag
  O9       1.0000 0.98861  0.33133  0.35293  Biso   1.000  O
  N17      1.0000 0.98911  0.46577  0.31473  Biso   1.000  N
  N18      1.0000 0.12378  0.38212  0.27293  Biso   1.000  N
  C89      1.0000 0.00897  0.44063  0.30273  Biso   1.000  C
  H65      1.0000 0.03417  0.45033  0.23453  Biso   1.000  H
  C90      1.0000 0.99337  0.40113  0.38743  Biso   1.000  C
  C91      1.0000 0.95737  0.38733  0.49103  Biso   1.000  C
  H66      1.0000 0.94587  0.36003  0.54843  Biso   1.000  H
  C92      1.0000 0.93867  0.41443  0.50843  Biso   1.000  C
  H67      1.0000 0.91477  0.40663  0.58133  Biso   1.000  H
  C93      1.0000 0.95537  0.45293  0.41773  Biso   1.000  C
  H68      1.0000 0.94217  0.47123  0.42933  Biso   1.000  H
  C94      1.0000 0.01317  0.37133  0.36403  Biso   1.000  C
  C95      1.0000 0.08007  0.36833  0.27763  Biso   1.000  C
  H69      1.0000 0.05997  0.34123  0.22453  Biso   1.000  H
  C96      1.0000 0.06247  0.39153  0.35633  Biso   1.000  C
  C97      1.0000 0.09177  0.43123  0.43423  Biso   1.000  C
  H70      1.0000 0.08097  0.44793  0.48963  Biso   1.000  H
  C98      1.0000 0.13637  0.44573  0.42973  Biso   1.000  C
  H71      1.0000 0.15697  0.47263  0.48263  Biso   1.000  H
  C99      1.0000 0.15167  0.42123  0.34813  Biso   1.000  C
  H72      1.0000 0.18297  0.43223  0.34433  Biso   1.000  H
  Ag10     1.0000 0.19262  0.84940  0.16353  Biso   1.000  Ag
  O10      1.0000 0.99800  0.67606  0.98040  Biso   1.000  O
  N19      1.0000 0.13244  0.81000  0.01860  Biso   1.000  N
  N20      1.0000 0.04879  0.59168  0.06040  Biso   1.000  N
  C100     1.0000 0.10730  0.76500  0.03060  Biso   1.000  C
  H73      1.0000 0.11700  0.74950  0.09880  Biso   1.000  H
  C101     1.0000 0.06780  0.74110  0.94590  Biso   1.000  C
  C102     1.0000 0.05400  0.76330  0.84230  Biso   1.000  C
  H74      1.0000 0.02670  0.74750  0.78490  Biso   1.000  H
  C103     1.0000 0.08110  0.80910  0.82490  Biso   1.000  C
  H75      1.0000 0.07330  0.82520  0.75200  Biso   1.000  H
  C104     1.0000 0.11960  0.83090  0.91560  Biso   1.000  C
  H76      1.0000 0.13790  0.86240  0.90400  Biso   1.000  H
  C105     1.0000 0.03800  0.69150  0.96930  Biso   1.000  C
  C106     1.0000 0.03500  0.62160  0.05570  Biso   1.000  C
  H77      1.0000 0.00790  0.61460  0.10880  Biso   1.000  H
  C107     1.0000 0.05820  0.66240  0.97700  Biso   1.000  C
  C108     1.0000 0.09790  0.67280  0.89910  Biso   1.000  C
  H78      1.0000 0.11460  0.70030  0.84370  Biso   1.000  H
  C109     1.0000 0.11240  0.64270  0.90360  Biso   1.000  C
  H79      1.0000 0.13930  0.64900  0.85070  Biso   1.000  H
  C110     1.0000 0.08790  0.60290  0.98520  Biso   1.000  C
  H80      1.0000 0.09890  0.58260  0.98900  Biso   1.000  H
  Ag11     1.0000 0.15060  0.34322  0.16353  Biso   1.000  Ag
  O11      1.0000 0.32394  0.32194  0.98040  Biso   1.000  O
  N21      1.0000 0.19000  0.32244  0.01860  Biso   1.000  N
  N22      1.0000 0.40832  0.45711  0.06040  Biso   1.000  N
  C111     1.0000 0.23500  0.34230  0.03060  Biso   1.000  C
  H81      1.0000 0.25050  0.36750  0.09880  Biso   1.000  H
  C112     1.0000 0.25890  0.32670  0.94590  Biso   1.000  C
  C113     1.0000 0.23670  0.29070  0.84230  Biso   1.000  C
  H82      1.0000 0.25250  0.27920  0.78490  Biso   1.000  H
  C114     1.0000 0.19090  0.27200  0.82490  Biso   1.000  C
  H83      1.0000 0.17480  0.24810  0.75200  Biso   1.000  H
  C115     1.0000 0.16910  0.28870  0.91560  Biso   1.000  C
  H84      1.0000 0.13760  0.27550  0.90400  Biso   1.000  H
  C116     1.0000 0.30850  0.34650  0.96930  Biso   1.000  C
  C117     1.0000 0.37840  0.41340  0.05570  Biso   1.000  C
  H85      1.0000 0.38540  0.39330  0.10880  Biso   1.000  H
  C118     1.0000 0.33760  0.39580  0.97700  Biso   1.000  C
  C119     1.0000 0.32720  0.42510  0.89910  Biso   1.000  C
  H86      1.0000 0.29970  0.41430  0.84370  Biso   1.000  H
  C120     1.0000 0.35730  0.46970  0.90360  Biso   1.000  C
  H87      1.0000 0.35100  0.49030  0.85070  Biso   1.000  H
  C121     1.0000 0.39710  0.48500  0.98520  Biso   1.000  C
  H88      1.0000 0.41740  0.51630  0.98900  Biso   1.000  H
  Ag12     1.0000 0.65678  0.80738  0.16353  Biso   1.000  Ag
  O12      1.0000 0.67806  0.00200  0.98040  Biso   1.000  O
  N23      1.0000 0.67756  0.86756  0.01860  Biso   1.000  N
  N24      1.0000 0.54289  0.95121  0.06040  Biso   1.000  N
  C122     1.0000 0.65770  0.89270  0.03060  Biso   1.000  C
  H89      1.0000 0.63250  0.88300  0.09880  Biso   1.000  H
  C123     1.0000 0.67330  0.93220  0.94590  Biso   1.000  C
  C124     1.0000 0.70930  0.94600  0.84230  Biso   1.000  C
  H90      1.0000 0.72080  0.97330  0.78490  Biso   1.000  H
  C125     1.0000 0.72800  0.91890  0.82490  Biso   1.000  C
  H91      1.0000 0.75190  0.92670  0.75200  Biso   1.000  H
  C126     1.0000 0.71130  0.88040  0.91560  Biso   1.000  C
  H92      1.0000 0.72450  0.86210  0.90400  Biso   1.000  H
  C127     1.0000 0.65350  0.96200  0.96930  Biso   1.000  C
  C128     1.0000 0.58660  0.96500  0.05570  Biso   1.000  C
  H93      1.0000 0.60670  0.99210  0.10880  Biso   1.000  H
  C129     1.0000 0.60420  0.94180  0.97700  Biso   1.000  C
  C130     1.0000 0.57490  0.90210  0.89910  Biso   1.000  C
  H94      1.0000 0.58570  0.88540  0.84370  Biso   1.000  H
  C131     1.0000 0.53030  0.88760  0.90360  Biso   1.000  C
  H95      1.0000 0.50970  0.86070  0.85070  Biso   1.000  H
  C132     1.0000 0.51500  0.91210  0.98520  Biso   1.000  C
  H96      1.0000 0.48370  0.90110  0.98900  Biso   1.000  H
  Ag13     1.0000 0.14071  0.81727  0.50314  Biso   1.000  Ag
  O13      1.0000 0.33533  0.99061  0.68627  Biso   1.000  O
  N25      1.0000 0.20089  0.85667  0.64807  Biso   1.000  N
  N26      1.0000 0.28454  0.07499  0.60627  Biso   1.000  N
  C133     1.0000 0.22603  0.90167  0.63607  Biso   1.000  C
  H97      1.0000 0.21633  0.91717  0.56787  Biso   1.000  H
  C134     1.0000 0.26553  0.92557  0.72077  Biso   1.000  C
  C135     1.0000 0.27933  0.90337  0.82437  Biso   1.000  C
  H98      1.0000 0.30663  0.91917  0.88177  Biso   1.000  H
  C136     1.0000 0.25223  0.85757  0.84177  Biso   1.000  C
  H99      1.0000 0.26003  0.84147  0.91467  Biso   1.000  H
  C137     1.0000 0.21373  0.83577  0.75107  Biso   1.000  C
  H100     1.0000 0.19543  0.80427  0.76267  Biso   1.000  H
  C138     1.0000 0.29533  0.97517  0.69737  Biso   1.000  C
  C139     1.0000 0.29833  0.04507  0.61097  Biso   1.000  C
  H101     1.0000 0.32543  0.05207  0.55787  Biso   1.000  H
  C140     1.0000 0.27513  0.00427  0.68967  Biso   1.000  C
  C141     1.0000 0.23543  0.99387  0.76757  Biso   1.000  C
  H102     1.0000 0.21873  0.96637  0.82297  Biso   1.000  H
  C142     1.0000 0.22093  0.02397  0.76307  Biso   1.000  C
  H103     1.0000 0.19403  0.01767  0.81597  Biso   1.000  H
  C143     1.0000 0.24543  0.06377  0.68147  Biso   1.000  C
  H104     1.0000 0.23443  0.08407  0.67767  Biso   1.000  H
  Ag14     1.0000 0.18273  0.32344  0.50314  Biso   1.000  Ag
  O14      1.0000 0.00939  0.34473  0.68627  Biso   1.000  O
  N27      1.0000 0.14333  0.34423  0.64807  Biso   1.000  N
  N28      1.0000 0.92501  0.20956  0.60627  Biso   1.000  N
  C144     1.0000 0.09833  0.32437  0.63607  Biso   1.000  C
  H105     1.0000 0.08283  0.29917  0.56787  Biso   1.000  H
  C145     1.0000 0.07443  0.33997  0.72077  Biso   1.000  C
  C146     1.0000 0.09663  0.37597  0.82437  Biso   1.000  C
  H106     1.0000 0.08083  0.38747  0.88177  Biso   1.000  H
  C147     1.0000 0.14243  0.39467  0.84177  Biso   1.000  C
  H107     1.0000 0.15853  0.41857  0.91467  Biso   1.000  H
  C148     1.0000 0.16423  0.37797  0.75107  Biso   1.000  C
  H108     1.0000 0.19573  0.39117  0.76267  Biso   1.000  H
  C149     1.0000 0.02483  0.32017  0.69737  Biso   1.000  C
  C150     1.0000 0.95493  0.25327  0.61097  Biso   1.000  C
  H109     1.0000 0.94793  0.27337  0.55787  Biso   1.000  H
  C151     1.0000 0.99573  0.27087  0.68967  Biso   1.000  C
  C152     1.0000 0.00613  0.24157  0.76757  Biso   1.000  C
  H110     1.0000 0.03363  0.25237  0.82297  Biso   1.000  H
  C153     1.0000 0.97603  0.19697  0.76307  Biso   1.000  C
  H111     1.0000 0.98233  0.17637  0.81597  Biso   1.000  H
  C154     1.0000 0.93623  0.18167  0.68147  Biso   1.000  C
  H112     1.0000 0.91593  0.15037  0.67767  Biso   1.000  H
  Ag15     1.0000 0.67656  0.85929  0.50314  Biso   1.000  Ag
  O15      1.0000 0.65527  0.66467  0.68627  Biso   1.000  O
  N29      1.0000 0.65577  0.79911  0.64807  Biso   1.000  N
  N30      1.0000 0.79044  0.71546  0.60627  Biso   1.000  N
  C155     1.0000 0.67563  0.77397  0.63607  Biso   1.000  C
  H113     1.0000 0.70083  0.78367  0.56787  Biso   1.000  H
  C156     1.0000 0.66003  0.73447  0.72077  Biso   1.000  C
  C157     1.0000 0.62403  0.72067  0.82437  Biso   1.000  C
  H114     1.0000 0.61253  0.69337  0.88177  Biso   1.000  H
  C158     1.0000 0.60533  0.74777  0.84177  Biso   1.000  C
  H115     1.0000 0.58143  0.73997  0.91467  Biso   1.000  H
  C159     1.0000 0.62203  0.78627  0.75107  Biso   1.000  C
  H116     1.0000 0.60883  0.80457  0.76267  Biso   1.000  H
  C160     1.0000 0.67983  0.70467  0.69737  Biso   1.000  C
  C161     1.0000 0.74673  0.70167  0.61097  Biso   1.000  C
  H117     1.0000 0.72663  0.67457  0.55787  Biso   1.000  H
  C162     1.0000 0.72913  0.72487  0.68967  Biso   1.000  C
  C163     1.0000 0.75843  0.76457  0.76757  Biso   1.000  C
  H118     1.0000 0.74763  0.78127  0.82297  Biso   1.000  H
  C164     1.0000 0.80303  0.77907  0.76307  Biso   1.000  C
  H119     1.0000 0.82363  0.80597  0.81597  Biso   1.000  H
  C165     1.0000 0.81833  0.75457  0.68147  Biso   1.000  C
  H120     1.0000 0.84963  0.76557  0.67767  Biso   1.000  H
  Ag16     1.0000 0.85929  0.18273  0.49686  Biso   1.000  Ag
  O16      1.0000 0.66467  0.00939  0.31373  Biso   1.000  O
  N31      1.0000 0.79911  0.14333  0.35193  Biso   1.000  N
  N32      1.0000 0.71546  0.92501  0.39373  Biso   1.000  N
  C166     1.0000 0.77397  0.09833  0.36393  Biso   1.000  C
  H121     1.0000 0.78367  0.08283  0.43213  Biso   1.000  H
  C167     1.0000 0.73447  0.07443  0.27923  Biso   1.000  C
  C168     1.0000 0.72067  0.09663  0.17563  Biso   1.000  C
  H122     1.0000 0.69337  0.08083  0.11823  Biso   1.000  H
  C169     1.0000 0.74777  0.14243  0.15823  Biso   1.000  C
  H123     1.0000 0.73997  0.15853  0.08533  Biso   1.000  H
  C170     1.0000 0.78627  0.16423  0.24893  Biso   1.000  C
  H124     1.0000 0.80457  0.19573  0.23733  Biso   1.000  H
  C171     1.0000 0.70467  0.02483  0.30263  Biso   1.000  C
  C172     1.0000 0.70167  0.95493  0.38903  Biso   1.000  C
  H125     1.0000 0.67457  0.94793  0.44213  Biso   1.000  H
  C173     1.0000 0.72487  0.99573  0.31033  Biso   1.000  C
  C174     1.0000 0.76457  0.00613  0.23243  Biso   1.000  C
  H126     1.0000 0.78127  0.03363  0.17703  Biso   1.000  H
  C175     1.0000 0.77907  0.97603  0.23693  Biso   1.000  C
  H127     1.0000 0.80597  0.98233  0.18403  Biso   1.000  H
  C176     1.0000 0.75457  0.93623  0.31853  Biso   1.000  C
  H128     1.0000 0.76557  0.91593  0.32233  Biso   1.000  H
  Ag17     1.0000 0.81727  0.67656  0.49686  Biso   1.000  Ag
  O17      1.0000 0.99061  0.65527  0.31373  Biso   1.000  O
  N33      1.0000 0.85667  0.65577  0.35193  Biso   1.000  N
  N34      1.0000 0.07499  0.79044  0.39373  Biso   1.000  N
  C177     1.0000 0.90167  0.67563  0.36393  Biso   1.000  C
  H129     1.0000 0.91717  0.70083  0.43213  Biso   1.000  H
  C178     1.0000 0.92557  0.66003  0.27923  Biso   1.000  C
  C179     1.0000 0.90337  0.62403  0.17563  Biso   1.000  C
  H130     1.0000 0.91917  0.61253  0.11823  Biso   1.000  H
  C180     1.0000 0.85757  0.60533  0.15823  Biso   1.000  C
  H131     1.0000 0.84147  0.58143  0.08533  Biso   1.000  H
  C181     1.0000 0.83577  0.62203  0.24893  Biso   1.000  C
  H132     1.0000 0.80427  0.60883  0.23733  Biso   1.000  H
  C182     1.0000 0.97517  0.67983  0.30263  Biso   1.000  C
  C183     1.0000 0.04507  0.74673  0.38903  Biso   1.000  C
  H133     1.0000 0.05207  0.72663  0.44213  Biso   1.000  H
  C184     1.0000 0.00427  0.72913  0.31033  Biso   1.000  C
  C185     1.0000 0.99387  0.75843  0.23243  Biso   1.000  C
  H134     1.0000 0.96637  0.74763  0.17703  Biso   1.000  H
  C186     1.0000 0.02397  0.80303  0.23693  Biso   1.000  C
  H135     1.0000 0.01767  0.82363  0.18403  Biso   1.000  H
  C187     1.0000 0.06377  0.81833  0.31853  Biso   1.000  C
  H136     1.0000 0.08407  0.84963  0.32233  Biso   1.000  H
  Ag18     1.0000 0.32344  0.14071  0.49686  Biso   1.000  Ag
  O18      1.0000 0.34473  0.33533  0.31373  Biso   1.000  O
  N35      1.0000 0.34423  0.20089  0.35193  Biso   1.000  N
  N36      1.0000 0.20956  0.28454  0.39373  Biso   1.000  N
  C188     1.0000 0.32437  0.22603  0.36393  Biso   1.000  C
  H137     1.0000 0.29917  0.21633  0.43213  Biso   1.000  H
  C189     1.0000 0.33997  0.26553  0.27923  Biso   1.000  C
  C190     1.0000 0.37597  0.27933  0.17563  Biso   1.000  C
  H138     1.0000 0.38747  0.30663  0.11823  Biso   1.000  H
  C191     1.0000 0.39467  0.25223  0.15823  Biso   1.000  C
  H139     1.0000 0.41857  0.26003  0.08533  Biso   1.000  H
  C192     1.0000 0.37797  0.21373  0.24893  Biso   1.000  C
  H140     1.0000 0.39117  0.19543  0.23733  Biso   1.000  H
  C193     1.0000 0.32017  0.29533  0.30263  Biso   1.000  C
  C194     1.0000 0.25327  0.29833  0.38903  Biso   1.000  C
  H141     1.0000 0.27337  0.32543  0.44213  Biso   1.000  H
  C195     1.0000 0.27087  0.27513  0.31033  Biso   1.000  C
  C196     1.0000 0.24157  0.23543  0.23243  Biso   1.000  C
  H142     1.0000 0.25237  0.21873  0.17703  Biso   1.000  H
  C197     1.0000 0.19697  0.22093  0.23693  Biso   1.000  C
  H143     1.0000 0.17637  0.19403  0.18403  Biso   1.000  H
  C198     1.0000 0.18167  0.24543  0.31853  Biso   1.000  C
  H144     1.0000 0.15037  0.23443  0.32233  Biso   1.000  H
