data_FUTDII_clean
_audit_creation_date              2014-07-02
_audit_creation_method            'Materials Studio'
_symmetry_space_group_name_H-M    'P1'
_symmetry_Int_Tables_number       1
_symmetry_cell_setting            triclinic
loop_
_symmetry_equiv_pos_as_xyz
  x,y,z
_cell_length_a                    16.5413
_cell_length_b                    16.5957
_cell_length_c                    16.5957
_cell_angle_alpha                 70.4625
_cell_angle_beta                  70.5951
_cell_angle_gamma                 109.4050
loop_
_atom_site_label
_atom_site_type_symbol
_atom_site_fract_x
_atom_site_fract_y
_atom_site_fract_z
_atom_site_U_iso_or_equiv
_atom_site_adp_type
_atom_site_occupancy
Fe1    Fe    0.07241   0.59857   0.40143   0.01267  Uiso   1.00
Fe2    Fe    0.47384   0.40143   0.00000   0.01267  Uiso   1.00
Fe3    Fe    0.47384   1.00000   0.59857   0.01267  Uiso   1.00
Fe4    Fe    0.52616   0.00000   0.40143   0.01267  Uiso   1.00
Fe5    Fe    0.52616   0.59857  -0.00000   0.01267  Uiso   1.00
Fe6    Fe    0.92759   0.40143   0.59857   0.01267  Uiso   1.00
H1     H     0.96910   0.50360   0.23250   0.01267  Uiso   1.00
H2     H     0.04000   0.36230   0.17400   0.01267  Uiso   1.00
H3     H     0.17040   0.35010   0.07300   0.01267  Uiso   1.00
H4     H     0.20160   0.23250   0.26390   0.01267  Uiso   1.00
H5     H     0.21400   0.17400   0.46370   0.01267  Uiso   1.00
H6     H     0.24340   0.07300   0.57690   0.01267  Uiso   1.00
H7     H     0.46550   0.26390   0.50360   0.01267  Uiso   1.00
H8     H     0.67770   0.46370   0.36230   0.01267  Uiso   1.00
H9     H     0.82030   0.57690   0.35010   0.01267  Uiso   1.00
H10    H     0.79840   0.26390   0.23250   0.01267  Uiso   1.00
H11    H     0.78600   0.46370   0.17400   0.01267  Uiso   1.00
H12    H     0.75660   0.57690   0.07300   0.01267  Uiso   1.00
H13    H     0.53450   0.50360   0.26390   0.01267  Uiso   1.00
H14    H     0.32230   0.36230   0.46370   0.01267  Uiso   1.00
H15    H     0.17970   0.35010   0.57690   0.01267  Uiso   1.00
H16    H     0.03090   0.23250   0.50360   0.01267  Uiso   1.00
H17    H     0.96000   0.17400   0.36230   0.01267  Uiso   1.00
H18    H     0.82960   0.07300   0.35010   0.01267  Uiso   1.00
H19    H     0.03090   0.49640   0.76750   0.01267  Uiso   1.00
H20    H     0.96000   0.63770   0.82600   0.01267  Uiso   1.00
H21    H     0.82960   0.64990   0.92700   0.01267  Uiso   1.00
H22    H     0.79840   0.76750   0.73610   0.01267  Uiso   1.00
H23    H     0.78600   0.82600   0.53630   0.01267  Uiso   1.00
H24    H     0.75660   0.92700   0.42310   0.01267  Uiso   1.00
H25    H     0.53450   0.73610   0.49640   0.01267  Uiso   1.00
H26    H     0.32230   0.53630   0.63770   0.01267  Uiso   1.00
H27    H     0.17970   0.42310   0.64990   0.01267  Uiso   1.00
H28    H     0.20160   0.73610   0.76750   0.01267  Uiso   1.00
H29    H     0.21400   0.53630   0.82600   0.01267  Uiso   1.00
H30    H     0.24340   0.42310   0.92700   0.01267  Uiso   1.00
H31    H     0.46550   0.49640   0.73610   0.01267  Uiso   1.00
H32    H     0.67770   0.63770   0.53630   0.01267  Uiso   1.00
H33    H     0.82030   0.64990   0.42310   0.01267  Uiso   1.00
H34    H     0.96910   0.76750   0.49640   0.01267  Uiso   1.00
H35    H     0.04000   0.82600   0.63770   0.01267  Uiso   1.00
H36    H     0.17040   0.92700   0.64990   0.01267  Uiso   1.00
H37    H     0.75460   0.25460   0.49080   0.01267  Uiso   1.00
H38    H     0.24540   0.49080   0.25460   0.01267  Uiso   1.00
H39    H     0.50000   0.25460   0.25460   0.01267  Uiso   1.00
H40    H     0.24540   0.74540   0.50920   0.01267  Uiso   1.00
H41    H     0.75460   0.50920   0.74540   0.01267  Uiso   1.00
H42    H     0.50000   0.74540   0.74540   0.01267  Uiso   1.00
C1     C     0.90490   0.43080   0.42340   0.01267  Uiso   1.00
C2     C     0.87090   0.38500   0.36920   0.01267  Uiso   1.00
C3     C     0.91820   0.43660   0.26720   0.01267  Uiso   1.00
C4     C     0.03450   0.44650   0.05360   0.01267  Uiso   1.00
C5     C     0.06830   0.39360   0.10420   0.01267  Uiso   1.00
C6     C     0.14910   0.39110   0.04170   0.01267  Uiso   1.00
C7     C     0.32830   0.42340   0.14580   0.01267  Uiso   1.00
C8     C     0.24010   0.36920   0.24580   0.01267  Uiso   1.00
C9     C     0.18540   0.26720   0.29620   0.01267  Uiso   1.00
C10    C     0.08810   0.05360   0.49990   0.01267  Uiso   1.00
C11    C     0.17250   0.10420   0.50220   0.01267  Uiso   1.00
C12    C     0.19080   0.04170   0.56720   0.01267  Uiso   1.00
C13    C     0.47410   0.14580   0.43080   0.01267  Uiso   1.00
C14    C     0.48590   0.24580   0.38500   0.01267  Uiso   1.00
C15    C     0.48160   0.29620   0.43660   0.01267  Uiso   1.00
C16    C     0.58800   0.49990   0.44650   0.01267  Uiso   1.00
C17    C     0.67470   0.50220   0.39360   0.01267  Uiso   1.00
C18    C     0.75800   0.56720   0.39110   0.01267  Uiso   1.00
C19    C     0.67170   0.14580   0.42340   0.01267  Uiso   1.00
C20    C     0.75990   0.24580   0.36920   0.01267  Uiso   1.00
C21    C     0.81460   0.29620   0.26720   0.01267  Uiso   1.00
C22    C     0.91190   0.49990   0.05360   0.01267  Uiso   1.00
C23    C     0.82750   0.50220   0.10420   0.01267  Uiso   1.00
C24    C     0.80920   0.56720   0.04170   0.01267  Uiso   1.00
C25    C     0.52590   0.43080   0.14580   0.01267  Uiso   1.00
C26    C     0.51410   0.38500   0.24580   0.01267  Uiso   1.00
C27    C     0.51840   0.43660   0.29620   0.01267  Uiso   1.00
C28    C     0.41200   0.44650   0.49990   0.01267  Uiso   1.00
C29    C     0.32530   0.39360   0.50220   0.01267  Uiso   1.00
C30    C     0.24200   0.39110   0.56720   0.01267  Uiso   1.00
C31    C     0.09510   0.42340   0.43080   0.01267  Uiso   1.00
C32    C     0.12910   0.36920   0.38500   0.01267  Uiso   1.00
C33    C     0.08180   0.26720   0.43660   0.01267  Uiso   1.00
C34    C     0.96550   0.05360   0.44650   0.01267  Uiso   1.00
C35    C     0.93170   0.10420   0.39360   0.01267  Uiso   1.00
C36    C     0.85090   0.04170   0.39110   0.01267  Uiso   1.00
C37    C     0.09510   0.56920   0.57660   0.01267  Uiso   1.00
C38    C     0.12910   0.61500   0.63080   0.01267  Uiso   1.00
C39    C     0.08180   0.56340   0.73280   0.01267  Uiso   1.00
C40    C     0.96550   0.55350   0.94640   0.01267  Uiso   1.00
C41    C     0.93170   0.60640   0.89580   0.01267  Uiso   1.00
C42    C     0.85090   0.60890   0.95830   0.01267  Uiso   1.00
C43    C     0.67170   0.57660   0.85420   0.01267  Uiso   1.00
C44    C     0.75990   0.63080   0.75420   0.01267  Uiso   1.00
C45    C     0.81460   0.73280   0.70380   0.01267  Uiso   1.00
C46    C     0.91190   0.94640   0.50010   0.01267  Uiso   1.00
C47    C     0.82750   0.89580   0.49780   0.01267  Uiso   1.00
C48    C     0.80920   0.95830   0.43280   0.01267  Uiso   1.00
C49    C     0.52590   0.85420   0.56920   0.01267  Uiso   1.00
C50    C     0.51410   0.75420   0.61500   0.01267  Uiso   1.00
C51    C     0.51840   0.70380   0.56340   0.01267  Uiso   1.00
C52    C     0.41200   0.50010   0.55350   0.01267  Uiso   1.00
C53    C     0.32530   0.49780   0.60640   0.01267  Uiso   1.00
C54    C     0.24200   0.43280   0.60890   0.01267  Uiso   1.00
C55    C     0.32830   0.85420   0.57660   0.01267  Uiso   1.00
C56    C     0.24010   0.75420   0.63080   0.01267  Uiso   1.00
C57    C     0.18540   0.70380   0.73280   0.01267  Uiso   1.00
C58    C     0.08810   0.50010   0.94640   0.01267  Uiso   1.00
C59    C     0.17250   0.49780   0.89580   0.01267  Uiso   1.00
C60    C     0.19080   0.43280   0.95830   0.01267  Uiso   1.00
C61    C     0.47410   0.56920   0.85420   0.01267  Uiso   1.00
C62    C     0.48590   0.61500   0.75420   0.01267  Uiso   1.00
C63    C     0.48160   0.56340   0.70380   0.01267  Uiso   1.00
C64    C     0.58800   0.55350   0.50010   0.01267  Uiso   1.00
C65    C     0.67470   0.60640   0.49780   0.01267  Uiso   1.00
C66    C     0.75800   0.60890   0.43280   0.01267  Uiso   1.00
C67    C     0.90490   0.57660   0.56920   0.01267  Uiso   1.00
C68    C     0.87090   0.63080   0.61500   0.01267  Uiso   1.00
C69    C     0.91820   0.73280   0.56340   0.01267  Uiso   1.00
C70    C     0.03450   0.94640   0.55350   0.01267  Uiso   1.00
C71    C     0.06830   0.89580   0.60640   0.01267  Uiso   1.00
C72    C     0.14910   0.95830   0.60890   0.01267  Uiso   1.00
C73    C     0.78960   0.28960   0.42080   0.01267  Uiso   1.00
C74    C     0.89310   0.39310   0.21380   0.01267  Uiso   1.00
C75    C     0.94850   0.44850   0.10300   0.01267  Uiso   1.00
C76    C     0.21040   0.42080   0.28960   0.01267  Uiso   1.00
C77    C     0.10690   0.21380   0.39310   0.01267  Uiso   1.00
C78    C     0.05150   0.10300   0.44850   0.01267  Uiso   1.00
C79    C     0.50000   0.28960   0.28960   0.01267  Uiso   1.00
C80    C     0.50000   0.39310   0.39310   0.01267  Uiso   1.00
C81    C     0.50000   0.44850   0.44850   0.01267  Uiso   1.00
C82    C     0.21040   0.71040   0.57920   0.01267  Uiso   1.00
C83    C     0.10690   0.60690   0.78620   0.01267  Uiso   1.00
C84    C     0.05150   0.55150   0.89700   0.01267  Uiso   1.00
C85    C     0.78960   0.57920   0.71040   0.01267  Uiso   1.00
C86    C     0.89310   0.78620   0.60690   0.01267  Uiso   1.00
C87    C     0.94850   0.89700   0.55150   0.01267  Uiso   1.00
C88    C     0.50000   0.71040   0.71040   0.01267  Uiso   1.00
C89    C     0.50000   0.60690   0.60690   0.01267  Uiso   1.00
C90    C     0.50000   0.55150   0.55150   0.01267  Uiso   1.00
O1     O     0.97077   0.51909   0.37438   0.01267  Uiso   1.00
O2     O     0.86260   0.37680   0.51640   0.01267  Uiso   1.00
O3     O     0.34515   0.37438   0.10653   0.01267  Uiso   1.00
O4     O     0.37900   0.51640   0.10680   0.01267  Uiso   1.00
O5     O     0.45168   0.10653   0.51909   0.01267  Uiso   1.00
O6     O     0.48580   0.10680   0.37680   0.01267  Uiso   1.00
O7     O     0.65485   0.10653   0.37438   0.01267  Uiso   1.00
O8     O     0.62100   0.10680   0.51640   0.01267  Uiso   1.00
O9     O     0.54832   0.51909   0.10653   0.01267  Uiso   1.00
O10    O     0.51420   0.37680   0.10680   0.01267  Uiso   1.00
O11    O     0.02923   0.37438   0.51909   0.01267  Uiso   1.00
O12    O     0.13740   0.51640   0.37680   0.01267  Uiso   1.00
O13    O     0.02923   0.48091   0.62562   0.01267  Uiso   1.00
O14    O     0.13740   0.62320   0.48360   0.01267  Uiso   1.00
O15    O     0.65485   0.62562   0.89347   0.01267  Uiso   1.00
O16    O     0.62100   0.48360   0.89320   0.01267  Uiso   1.00
O17    O     0.54832   0.89347   0.48091   0.01267  Uiso   1.00
O18    O     0.51420   0.89320   0.62320   0.01267  Uiso   1.00
O19    O     0.34515   0.89347   0.62562   0.01267  Uiso   1.00
O20    O     0.37900   0.89320   0.48360   0.01267  Uiso   1.00
O21    O     0.45168   0.48091   0.89347   0.01267  Uiso   1.00
O22    O     0.48580   0.62320   0.89320   0.01267  Uiso   1.00
O23    O     0.97077   0.62562   0.48091   0.01267  Uiso   1.00
O24    O     0.86260   0.48360   0.62320   0.01267  Uiso   1.00
