data_FUTKEL_clean5b
_audit_creation_date              2014-07-02
_audit_creation_method            'Materials Studio'
_symmetry_space_group_name_H-M    'P1'
_symmetry_Int_Tables_number       1
_symmetry_cell_setting            triclinic
loop_
_symmetry_equiv_pos_as_xyz
  x,y,z
_cell_length_a                    15.2904
_cell_length_b                    15.2904
_cell_length_c                    17.6676
_cell_angle_alpha                 115.6410
_cell_angle_beta                  115.6410
_cell_angle_gamma                 90.0001
loop_
_atom_site_label
_atom_site_type_symbol
_atom_site_fract_x
_atom_site_fract_y
_atom_site_fract_z
_atom_site_U_iso_or_equiv
_atom_site_adp_type
_atom_site_occupancy
Zn1    Zn    0.05586   0.05587   0.11174   0.01267  Uiso   1.00
Zn2    Zn    0.44423   0.44425   0.88846   0.01267  Uiso   1.00
Zn3    Zn    0.94423   0.94421   0.88841   0.01267  Uiso   1.00
Zn4    Zn    0.55569   0.55569   0.11140   0.01267  Uiso   1.00
H1     H     0.01872   0.88929   0.18045   0.01267  Uiso   1.00
H2     H     0.06421   0.86689   0.31822   0.01267  Uiso   1.00
H3     H     0.19205   0.00542   0.25645   0.01267  Uiso   1.00
H4     H     0.28148   0.09097   0.43263   0.01267  Uiso   1.00
H5     H     0.16211   0.29112   0.18070   0.01267  Uiso   1.00
H6     H     0.25430   0.45137   0.31835   0.01267  Uiso   1.00
H7     H     0.06438   0.25101   0.25644   0.01267  Uiso   1.00
H8     H     0.15114   0.34166   0.43261   0.01267  Uiso   1.00
H9     H     0.82375   0.09310   0.12580   0.01267  Uiso   1.00
H10    H     0.74332   0.12856   0.22613   0.01267  Uiso   1.00
H11    H     0.30207   0.03271   0.12604   0.01267  Uiso   1.00
H12    H     0.48281   0.09756   0.22656   0.01267  Uiso   1.00
H13    H     0.33916   0.61042   0.82014   0.01267  Uiso   1.00
H14    H     0.24658   0.63178   0.68179   0.01267  Uiso   1.00
H15    H     0.48111   0.20983   0.82001   0.01267  Uiso   1.00
H16    H     0.43546   0.05026   0.68158   0.01267  Uiso   1.00
H17    H     0.19709   0.40624   0.87346   0.01267  Uiso   1.00
H18    H     0.01624   0.37055   0.77339   0.01267  Uiso   1.00
H19    H     0.24190   0.41827   0.74469   0.01267  Uiso   1.00
H20    H     0.15097   0.33144   0.56825   0.01267  Uiso   1.00
H21    H     0.67655   0.46723   0.87375   0.01267  Uiso   1.00
H22    H     0.75717   0.40276   0.77354   0.01267  Uiso   1.00
H23    H     0.50282   0.32648   0.74469   0.01267  Uiso   1.00
H24    H     0.41730   0.23685   0.56825   0.01267  Uiso   1.00
H25    H     0.96731   0.17654   0.87463   0.01267  Uiso   1.00
H26    H     0.90225   0.25660   0.77397   0.01267  Uiso   1.00
H27    H     0.83041   0.00407   0.74461   0.01267  Uiso   1.00
H28    H     0.73970   0.91853   0.56855   0.01267  Uiso   1.00
H29    H     0.90702   0.69798   0.87432   0.01267  Uiso   1.00
H30    H     0.87148   0.51724   0.77380   0.01267  Uiso   1.00
H31    H     0.91425   0.74057   0.74461   0.01267  Uiso   1.00
H32    H     0.82886   0.65004   0.56855   0.01267  Uiso   1.00
H33    H     0.11043   0.83816   0.81929   0.01267  Uiso   1.00
H34    H     0.13248   0.74541   0.68137   0.01267  Uiso   1.00
H35    H     0.70897   0.98127   0.81914   0.01267  Uiso   1.00
H36    H     0.54913   0.93621   0.68114   0.01267  Uiso   1.00
H37    H     0.59331   0.32333   0.12597   0.01267  Uiso   1.00
H38    H     0.62900   0.24276   0.22622   0.01267  Uiso   1.00
H39    H     0.58439   0.49624   0.25516   0.01267  Uiso   1.00
H40    H     0.66974   0.58181   0.43124   0.01267  Uiso   1.00
H41    H     0.53267   0.80266   0.12620   0.01267  Uiso   1.00
H42    H     0.59721   0.98345   0.22664   0.01267  Uiso   1.00
H43    H     0.67073   0.75891   0.25515   0.01267  Uiso   1.00
H44    H     0.76146   0.84943   0.43122   0.01267  Uiso   1.00
H45    H     0.79013   0.66081   0.17978   0.01267  Uiso   1.00
H46    H     0.95008   0.75294   0.31789   0.01267  Uiso   1.00
H47    H     0.38940   0.51910   0.17956   0.01267  Uiso   1.00
H48    H     0.36776   0.56509   0.31778   0.01267  Uiso   1.00
H49    H     0.73711   0.94634   0.95373   0.01267  Uiso   1.00
H50    H     0.56558   0.96124   0.91180   0.01267  Uiso   1.00
H51    H     0.21678   0.00747   0.95396   0.01267  Uiso   1.00
H52    H     0.34632   0.95061   0.91194   0.01267  Uiso   1.00
H53    H     0.99283   0.26297   0.04690   0.01267  Uiso   1.00
H54    H     0.04992   0.43470   0.08946   0.01267  Uiso   1.00
H55    H     0.05360   0.78345   0.04615   0.01267  Uiso   1.00
H56    H     0.03824   0.65346   0.08751   0.01267  Uiso   1.00
H57    H     0.28280   0.55341   0.04583   0.01267  Uiso   1.00
H58    H     0.15277   0.53838   0.08726   0.01267  Uiso   1.00
H59    H     0.76330   0.49270   0.04658   0.01267  Uiso   1.00
H60    H     0.93515   0.54953   0.08922   0.01267  Uiso   1.00
H61    H     0.44618   0.23681   0.95345   0.01267  Uiso   1.00
H62    H     0.46104   0.06528   0.91171   0.01267  Uiso   1.00
H63    H     0.50735   0.71678   0.95365   0.01267  Uiso   1.00
H64    H     0.45070   0.84648   0.91179   0.01267  Uiso   1.00
C1     C     0.86598   0.79899   0.09854   0.01267  Uiso   1.00
C2     C     0.96216   0.84524   0.17824   0.01267  Uiso   1.00
C3     C     0.99031   0.83060   0.25741   0.01267  Uiso   1.00
C4     C     0.18383   0.07924   0.29575   0.01267  Uiso   1.00
C5     C     0.23483   0.12811   0.39580   0.01267  Uiso   1.00
C6     C     0.23264   0.29958   0.09858   0.01267  Uiso   1.00
C7     C     0.21631   0.33301   0.17837   0.01267  Uiso   1.00
C8     C     0.26729   0.42686   0.25749   0.01267  Uiso   1.00
C9     C     0.11189   0.21649   0.29574   0.01267  Uiso   1.00
C10    C     0.16096   0.26770   0.39580   0.01267  Uiso   1.00
C11    C     0.75908   0.19219   0.06934   0.01267  Uiso   1.00
C12    C     0.77669   0.14577   0.12625   0.01267  Uiso   1.00
C13    C     0.73021   0.16510   0.18291   0.01267  Uiso   1.00
C14    C     0.31027   0.87716   0.06951   0.01267  Uiso   1.00
C15    C     0.34956   0.98048   0.12651   0.01267  Uiso   1.00
C16    C     0.45270   0.01782   0.18328   0.01267  Uiso   1.00
C17    C     0.26786   0.70079   0.90160   0.01267  Uiso   1.00
C18    C     0.28458   0.65429   0.82205   0.01267  Uiso   1.00
C19    C     0.23342   0.66835   0.74254   0.01267  Uiso   1.00
C20    C     0.63386   0.20093   0.90152   0.01267  Uiso   1.00
C21    C     0.53763   0.16792   0.82193   0.01267  Uiso   1.00
C22    C     0.50932   0.07440   0.74235   0.01267  Uiso   1.00
C23    C     0.18934   0.30730   0.93017   0.01267  Uiso   1.00
C24    C     0.14975   0.35357   0.87317   0.01267  Uiso   1.00
C25    C     0.04656   0.33417   0.81672   0.01267  Uiso   1.00
C26    C     0.27955   0.37856   0.70511   0.01267  Uiso   1.00
C27    C     0.22828   0.32950   0.60506   0.01267  Uiso   1.00
C28    C     0.74084   0.62287   0.93022   0.01267  Uiso   1.00
C29    C     0.72348   0.51958   0.87332   0.01267  Uiso   1.00
C30    C     0.77014   0.48248   0.81679   0.01267  Uiso   1.00
C31    C     0.42559   0.32660   0.70511   0.01267  Uiso   1.00
C32    C     0.37680   0.27560   0.60506   0.01267  Uiso   1.00
C33    C     0.12280   0.24076   0.93050   0.01267  Uiso   1.00
C34    C     0.01945   0.22331   0.87383   0.01267  Uiso   1.00
C35    C     0.98201   0.26964   0.81704   0.01267  Uiso   1.00
C36    C     0.82910   0.92636   0.70501   0.01267  Uiso   1.00
C37    C     0.77832   0.87768   0.60496   0.01267  Uiso   1.00
C38    C     0.80764   0.68969   0.93045   0.01267  Uiso   1.00
C39    C     0.85419   0.65044   0.87366   0.01267  Uiso   1.00
C40    C     0.83487   0.54730   0.81695   0.01267  Uiso   1.00
C41    C     0.87596   0.77868   0.70501   0.01267  Uiso   1.00
C42    C     0.82666   0.72729   0.60496   0.01267  Uiso   1.00
C43    C     0.20095   0.76746   0.90136   0.01267  Uiso   1.00
C44    C     0.15453   0.78380   0.82157   0.01267  Uiso   1.00
C45    C     0.16896   0.73254   0.74230   0.01267  Uiso   1.00
C46    C     0.70053   0.13402   0.90128   0.01267  Uiso   1.00
C47    C     0.66719   0.03793   0.82143   0.01267  Uiso   1.00
C48    C     0.57354   0.00997   0.74211   0.01267  Uiso   1.00
C49    C     0.69248   0.25899   0.06953   0.01267  Uiso   1.00
C50    C     0.64608   0.27638   0.12642   0.01267  Uiso   1.00
C51    C     0.66548   0.22977   0.18298   0.01267  Uiso   1.00
C52    C     0.62323   0.57377   0.29477   0.01267  Uiso   1.00
C53    C     0.67251   0.62245   0.39482   0.01267  Uiso   1.00
C54    C     0.37706   0.81055   0.06970   0.01267  Uiso   1.00
C55    C     0.48035   0.85005   0.12667   0.01267  Uiso   1.00
C56    C     0.51749   0.95320   0.18333   0.01267  Uiso   1.00
C57    C     0.67150   0.72099   0.29476   0.01267  Uiso   1.00
C58    C     0.72228   0.77237   0.39482   0.01267  Uiso   1.00
C59    C     0.79907   0.73208   0.09830   0.01267  Uiso   1.00
C60    C     0.83214   0.71529   0.17782   0.01267  Uiso   1.00
C61    C     0.92584   0.76622   0.25722   0.01267  Uiso   1.00
C62    C     0.29922   0.36625   0.09826   0.01267  Uiso   1.00
C63    C     0.34558   0.46262   0.17770   0.01267  Uiso   1.00
C64    C     0.33138   0.49110   0.25716   0.01267  Uiso   1.00
C65    C     0.22360   0.22360   0.44719   0.01267  Uiso   1.00
C66    C     0.27684   0.27685   0.55367   0.01267  Uiso   1.00
C67    C     0.77665   0.77665   0.55330   0.01267  Uiso   1.00
C68    C     0.72323   0.72324   0.44648   0.01267  Uiso   1.00
C69    C     0.82850   0.80129   0.00229   0.01267  Uiso   1.00
C70    C     0.72358   0.82119   0.97865   0.01267  Uiso   1.00
C71    C     0.89613   0.87708   0.99953   0.01267  Uiso   1.00
C72    C     0.68941   0.89572   0.95500   0.01267  Uiso   1.00
C73    C     0.59140   0.90461   0.93124   0.01267  Uiso   1.00
C74    C     0.17384   0.20103   0.00235   0.01267  Uiso   1.00
C75    C     0.25510   0.15748   0.97869   0.01267  Uiso   1.00
C76    C     0.10344   0.12247   0.99958   0.01267  Uiso   1.00
C77    C     0.26568   0.05933   0.95513   0.01267  Uiso   1.00
C78    C     0.33989   0.02666   0.93132   0.01267  Uiso   1.00
C79    C     0.79896   0.17141   0.99760   0.01267  Uiso   1.00
C80    C     0.84262   0.27639   0.02146   0.01267  Uiso   1.00
C81    C     0.87744   0.10374   0.00032   0.01267  Uiso   1.00
C82    C     0.94094   0.31066   0.04552   0.01267  Uiso   1.00
C83    C     0.97372   0.40877   0.06963   0.01267  Uiso   1.00
C84    C     0.19868   0.82622   0.99761   0.01267  Uiso   1.00
C85    C     0.17870   0.74493   0.02120   0.01267  Uiso   1.00
C86    C     0.12291   0.89660   0.00033   0.01267  Uiso   1.00
C87    C     0.10412   0.73439   0.04478   0.01267  Uiso   1.00
C88    C     0.09500   0.65996   0.06826   0.01267  Uiso   1.00
C89    C     0.32639   0.69888   0.99807   0.01267  Uiso   1.00
C90    C     0.24482   0.67886   0.02133   0.01267  Uiso   1.00
C91    C     0.39704   0.62340   0.00141   0.01267  Uiso   1.00
C92    C     0.23396   0.60416   0.04467   0.01267  Uiso   1.00
C93    C     0.15949   0.59520   0.06814   0.01267  Uiso   1.00
C94    C     0.67170   0.29921   0.99806   0.01267  Uiso   1.00
C95    C     0.77663   0.34258   0.02158   0.01267  Uiso   1.00
C96    C     0.60438   0.37803   0.00141   0.01267  Uiso   1.00
C97    C     0.81098   0.44078   0.04541   0.01267  Uiso   1.00
C98    C     0.90913   0.47341   0.06951   0.01267  Uiso   1.00
C99    C     0.30104   0.32828   0.00175   0.01267  Uiso   1.00
C100   C     0.32106   0.22344   0.97844   0.01267  Uiso   1.00
C101   C     0.37651   0.39559   0.99841   0.01267  Uiso   1.00
C102   C     0.39557   0.18918   0.95480   0.01267  Uiso   1.00
C103   C     0.40446   0.09120   0.93118   0.01267  Uiso   1.00
C104   C     0.70073   0.67351   0.00180   0.01267  Uiso   1.00
C105   C     0.65740   0.75502   0.97847   0.01267  Uiso   1.00
C106   C     0.62192   0.60285   0.99846   0.01267  Uiso   1.00
C107   C     0.55927   0.76569   0.95490   0.01267  Uiso   1.00
C108   C     0.52674   0.84001   0.93122   0.01267  Uiso   1.00
N1     N     0.12387   0.12388   0.24777   0.01267  Uiso   1.00
N2     N     0.37648   0.37649   0.75292   0.01267  Uiso   1.00
N3     N     0.87645   0.87643   0.75284   0.01267  Uiso   1.00
N4     N     0.62346   0.62347   0.24695   0.01267  Uiso   1.00
O1     O     0.96208   0.95051   0.07695   0.01267  Uiso   1.00
O2     O     0.11487   0.12646   0.07698   0.01267  Uiso   1.00
O3     O     0.94928   0.11738   0.07993   0.01267  Uiso   1.00
O4     O     0.13063   0.96254   0.07992   0.01267  Uiso   1.00
O5     O     0.38584   0.54990   0.92423   0.01267  Uiso   1.00
O6     O     0.53842   0.37438   0.92425   0.01267  Uiso   1.00
O7     O     0.36855   0.38157   0.91859   0.01267  Uiso   1.00
O8     O     0.55005   0.53707   0.91863   0.01267  Uiso   1.00
O9     O     0.03761   0.05044   0.91984   0.01267  Uiso   1.00
O10    O     0.88224   0.86937   0.91980   0.01267  Uiso   1.00
O11    O     0.04943   0.88504   0.92302   0.01267  Uiso   1.00
O12    O     0.87364   0.03799   0.92303   0.01267  Uiso   1.00
O13    O     0.61843   0.44991   0.08124   0.01267  Uiso   1.00
O14    O     0.46280   0.63132   0.08123   0.01267  Uiso   1.00
O15    O     0.62556   0.61411   0.07563   0.01267  Uiso   1.00
O16    O     0.45006   0.46150   0.07560   0.01267  Uiso   1.00
