data_image0
_cell_length_a       24.942
_cell_length_b       24.942
_cell_length_c       24.942
_cell_angle_alpha    90
_cell_angle_beta     90
_cell_angle_gamma    90

_symmetry_space_group_name_H-M    "P 1"
_symmetry_int_tables_number       1

loop_
  _symmetry_equiv_pos_as_xyz
  'x, y, z'

loop_
  _atom_site_label
  _atom_site_occupancy
  _atom_site_fract_x
  _atom_site_fract_y
  _atom_site_fract_z
  _atom_site_thermal_displace_type
  _atom_site_B_iso_or_equiv
  _atom_site_type_symbol
  O1       1.0000 0.00958  0.10986  0.09296  Biso   1.000  O
  O2       1.0000 0.96895  0.03320  0.07079  Biso   1.000  O
  O3       1.0000 0.79179  0.19374  0.23711  Biso   1.000  O
  O4       1.0000 0.73898  0.13203  0.19993  Biso   1.000  O
  O5       1.0000 0.78047  0.06184  0.13716  Biso   1.000  O
  C1       1.0000 0.96908  0.07813  0.09209  Biso   1.000  C
  C2       1.0000 0.92052  0.09769  0.12063  Biso   1.000  C
  C3       1.0000 0.92378  0.14352  0.15205  Biso   1.000  C
  H1       1.0000 0.95640  0.16310  0.15400  Biso   1.000  H
  C4       1.0000 0.87942  0.16036  0.18028  Biso   1.000  C
  H2       1.0000 0.88200  0.19090  0.20280  Biso   1.000  H
  C5       1.0000 0.83141  0.13353  0.17627  Biso   1.000  C
  C6       1.0000 0.78372  0.15425  0.20609  Biso   1.000  C
  C7       1.0000 0.82816  0.08835  0.14449  Biso   1.000  C
  C8       1.0000 0.87229  0.07005  0.11694  Biso   1.000  C
  H3       1.0000 0.86980  0.03870  0.09550  Biso   1.000  H
  C9       1.0000 0.10875  0.12173  0.18271  Biso   1.000  C
  H4       1.0000 0.11640  0.08530  0.19640  Biso   1.000  H
  H5       1.0000 0.06970  0.12810  0.18540  Biso   1.000  H
  C10      1.0000 0.13910  0.16360  0.21661  Biso   1.000  C
  H6       1.0000 0.11470  0.19330  0.22650  Biso   1.000  H
  H7       1.0000 0.15250  0.14680  0.25000  Biso   1.000  H
  O6       1.0000 0.86850  0.02140  0.09200  Biso   1.000  O
  O7       1.0000 0.49042  0.89014  0.59296  Biso   1.000  O
  O8       1.0000 0.53105  0.96680  0.57079  Biso   1.000  O
  O9       1.0000 0.70821  0.80626  0.73711  Biso   1.000  O
  O10      1.0000 0.76102  0.86797  0.69993  Biso   1.000  O
  O11      1.0000 0.71953  0.93816  0.63716  Biso   1.000  O
  C11      1.0000 0.53092  0.92187  0.59209  Biso   1.000  C
  C12      1.0000 0.57948  0.90231  0.62063  Biso   1.000  C
  C13      1.0000 0.57622  0.85648  0.65205  Biso   1.000  C
  H8       1.0000 0.54360  0.83690  0.65400  Biso   1.000  H
  C14      1.0000 0.62058  0.83964  0.68028  Biso   1.000  C
  H9       1.0000 0.61800  0.80910  0.70280  Biso   1.000  H
  C15      1.0000 0.66859  0.86647  0.67627  Biso   1.000  C
  C16      1.0000 0.71628  0.84575  0.70609  Biso   1.000  C
  C17      1.0000 0.67184  0.91165  0.64449  Biso   1.000  C
  C18      1.0000 0.62771  0.92995  0.61694  Biso   1.000  C
  H10      1.0000 0.63020  0.96130  0.59550  Biso   1.000  H
  C19      1.0000 0.39125  0.87827  0.68271  Biso   1.000  C
  H11      1.0000 0.38360  0.91470  0.69640  Biso   1.000  H
  H12      1.0000 0.43030  0.87190  0.68540  Biso   1.000  H
  C20      1.0000 0.36090  0.83640  0.71661  Biso   1.000  C
  H13      1.0000 0.38530  0.80670  0.72650  Biso   1.000  H
  H14      1.0000 0.34750  0.85320  0.75000  Biso   1.000  H
  O12      1.0000 0.63150  0.97860  0.59200  Biso   1.000  O
  O13      1.0000 0.99042  0.60986  0.40704  Biso   1.000  O
  O14      1.0000 0.03105  0.53320  0.42921  Biso   1.000  O
  O15      1.0000 0.20821  0.69374  0.26289  Biso   1.000  O
  O16      1.0000 0.26102  0.63203  0.30007  Biso   1.000  O
  O17      1.0000 0.21953  0.56184  0.36284  Biso   1.000  O
  C21      1.0000 0.03092  0.57813  0.40791  Biso   1.000  C
  C22      1.0000 0.07948  0.59769  0.37937  Biso   1.000  C
  C23      1.0000 0.07622  0.64352  0.34795  Biso   1.000  C
  H15      1.0000 0.04360  0.66310  0.34600  Biso   1.000  H
  C24      1.0000 0.12058  0.66036  0.31972  Biso   1.000  C
  H16      1.0000 0.11800  0.69090  0.29720  Biso   1.000  H
  C25      1.0000 0.16859  0.63353  0.32373  Biso   1.000  C
  C26      1.0000 0.21628  0.65425  0.29391  Biso   1.000  C
  C27      1.0000 0.17184  0.58835  0.35551  Biso   1.000  C
  C28      1.0000 0.12771  0.57005  0.38306  Biso   1.000  C
  H17      1.0000 0.13020  0.53870  0.40450  Biso   1.000  H
  C29      1.0000 0.89125  0.62173  0.31729  Biso   1.000  C
  H18      1.0000 0.88360  0.58530  0.30360  Biso   1.000  H
  H19      1.0000 0.93030  0.62810  0.31460  Biso   1.000  H
  C30      1.0000 0.86090  0.66360  0.28339  Biso   1.000  C
  H20      1.0000 0.88530  0.69330  0.27350  Biso   1.000  H
  H21      1.0000 0.84750  0.64680  0.25000  Biso   1.000  H
  O18      1.0000 0.13150  0.52140  0.40800  Biso   1.000  O
  O19      1.0000 0.50958  0.39014  0.90704  Biso   1.000  O
  O20      1.0000 0.46895  0.46680  0.92921  Biso   1.000  O
  O21      1.0000 0.29179  0.30626  0.76289  Biso   1.000  O
  O22      1.0000 0.23898  0.36797  0.80007  Biso   1.000  O
  O23      1.0000 0.28047  0.43816  0.86284  Biso   1.000  O
  C31      1.0000 0.46908  0.42187  0.90791  Biso   1.000  C
  C32      1.0000 0.42052  0.40231  0.87937  Biso   1.000  C
  C33      1.0000 0.42378  0.35648  0.84795  Biso   1.000  C
  H22      1.0000 0.45640  0.33690  0.84600  Biso   1.000  H
  C34      1.0000 0.37942  0.33964  0.81972  Biso   1.000  C
  H23      1.0000 0.38200  0.30910  0.79720  Biso   1.000  H
  C35      1.0000 0.33141  0.36647  0.82373  Biso   1.000  C
  C36      1.0000 0.28372  0.34575  0.79391  Biso   1.000  C
  C37      1.0000 0.32816  0.41165  0.85551  Biso   1.000  C
  C38      1.0000 0.37229  0.42995  0.88306  Biso   1.000  C
  H24      1.0000 0.36980  0.46130  0.90450  Biso   1.000  H
  C39      1.0000 0.60875  0.37827  0.81729  Biso   1.000  C
  H25      1.0000 0.61640  0.41470  0.80360  Biso   1.000  H
  H26      1.0000 0.56970  0.37190  0.81460  Biso   1.000  H
  C40      1.0000 0.63910  0.33640  0.78339  Biso   1.000  C
  H27      1.0000 0.61470  0.30670  0.77350  Biso   1.000  H
  H28      1.0000 0.65250  0.35320  0.75000  Biso   1.000  H
  O24      1.0000 0.36850  0.47860  0.90800  Biso   1.000  O
  O25      1.0000 0.09296  0.00958  0.10986  Biso   1.000  O
  O26      1.0000 0.07079  0.96895  0.03320  Biso   1.000  O
  O27      1.0000 0.23711  0.79179  0.19374  Biso   1.000  O
  O28      1.0000 0.19993  0.73898  0.13203  Biso   1.000  O
  O29      1.0000 0.13716  0.78047  0.06184  Biso   1.000  O
  C41      1.0000 0.09209  0.96908  0.07813  Biso   1.000  C
  C42      1.0000 0.12063  0.92052  0.09769  Biso   1.000  C
  C43      1.0000 0.15205  0.92378  0.14352  Biso   1.000  C
  H29      1.0000 0.15400  0.95640  0.16310  Biso   1.000  H
  C44      1.0000 0.18028  0.87942  0.16036  Biso   1.000  C
  H30      1.0000 0.20280  0.88200  0.19090  Biso   1.000  H
  C45      1.0000 0.17627  0.83141  0.13353  Biso   1.000  C
  C46      1.0000 0.20609  0.78372  0.15425  Biso   1.000  C
  C47      1.0000 0.14449  0.82816  0.08835  Biso   1.000  C
  C48      1.0000 0.11694  0.87229  0.07005  Biso   1.000  C
  H31      1.0000 0.09550  0.86980  0.03870  Biso   1.000  H
  C49      1.0000 0.18271  0.10875  0.12173  Biso   1.000  C
  H32      1.0000 0.19640  0.11640  0.08530  Biso   1.000  H
  H33      1.0000 0.18540  0.06970  0.12810  Biso   1.000  H
  C50      1.0000 0.21661  0.13910  0.16360  Biso   1.000  C
  H34      1.0000 0.22650  0.11470  0.19330  Biso   1.000  H
  H35      1.0000 0.25000  0.15250  0.14680  Biso   1.000  H
  O30      1.0000 0.09200  0.86850  0.02140  Biso   1.000  O
  O31      1.0000 0.59296  0.49042  0.89014  Biso   1.000  O
  O32      1.0000 0.57079  0.53105  0.96680  Biso   1.000  O
  O33      1.0000 0.73711  0.70821  0.80626  Biso   1.000  O
  O34      1.0000 0.69993  0.76102  0.86797  Biso   1.000  O
  O35      1.0000 0.63716  0.71953  0.93816  Biso   1.000  O
  C51      1.0000 0.59209  0.53092  0.92187  Biso   1.000  C
  C52      1.0000 0.62063  0.57948  0.90231  Biso   1.000  C
  C53      1.0000 0.65205  0.57622  0.85648  Biso   1.000  C
  H36      1.0000 0.65400  0.54360  0.83690  Biso   1.000  H
  C54      1.0000 0.68028  0.62058  0.83964  Biso   1.000  C
  H37      1.0000 0.70280  0.61800  0.80910  Biso   1.000  H
  C55      1.0000 0.67627  0.66859  0.86647  Biso   1.000  C
  C56      1.0000 0.70609  0.71628  0.84575  Biso   1.000  C
  C57      1.0000 0.64449  0.67184  0.91165  Biso   1.000  C
  C58      1.0000 0.61694  0.62771  0.92995  Biso   1.000  C
  H38      1.0000 0.59550  0.63020  0.96130  Biso   1.000  H
  C59      1.0000 0.68271  0.39125  0.87827  Biso   1.000  C
  H39      1.0000 0.69640  0.38360  0.91470  Biso   1.000  H
  H40      1.0000 0.68540  0.43030  0.87190  Biso   1.000  H
  C60      1.0000 0.71661  0.36090  0.83640  Biso   1.000  C
  H41      1.0000 0.72650  0.38530  0.80670  Biso   1.000  H
  H42      1.0000 0.75000  0.34750  0.85320  Biso   1.000  H
  O36      1.0000 0.59200  0.63150  0.97860  Biso   1.000  O
  O37      1.0000 0.40704  0.99042  0.60986  Biso   1.000  O
  O38      1.0000 0.42921  0.03105  0.53320  Biso   1.000  O
  O39      1.0000 0.26289  0.20821  0.69374  Biso   1.000  O
  O40      1.0000 0.30007  0.26102  0.63203  Biso   1.000  O
  O41      1.0000 0.36284  0.21953  0.56184  Biso   1.000  O
  C61      1.0000 0.40791  0.03092  0.57813  Biso   1.000  C
  C62      1.0000 0.37937  0.07948  0.59769  Biso   1.000  C
  C63      1.0000 0.34795  0.07622  0.64352  Biso   1.000  C
  H43      1.0000 0.34600  0.04360  0.66310  Biso   1.000  H
  C64      1.0000 0.31972  0.12058  0.66036  Biso   1.000  C
  H44      1.0000 0.29720  0.11800  0.69090  Biso   1.000  H
  C65      1.0000 0.32373  0.16859  0.63353  Biso   1.000  C
  C66      1.0000 0.29391  0.21628  0.65425  Biso   1.000  C
  C67      1.0000 0.35551  0.17184  0.58835  Biso   1.000  C
  C68      1.0000 0.38306  0.12771  0.57005  Biso   1.000  C
  H45      1.0000 0.40450  0.13020  0.53870  Biso   1.000  H
  C69      1.0000 0.31729  0.89125  0.62173  Biso   1.000  C
  H46      1.0000 0.30360  0.88360  0.58530  Biso   1.000  H
  H47      1.0000 0.31460  0.93030  0.62810  Biso   1.000  H
  C70      1.0000 0.28339  0.86090  0.66360  Biso   1.000  C
  H48      1.0000 0.27350  0.88530  0.69330  Biso   1.000  H
  H49      1.0000 0.25000  0.84750  0.64680  Biso   1.000  H
  O42      1.0000 0.40800  0.13150  0.52140  Biso   1.000  O
  O43      1.0000 0.90704  0.50958  0.39014  Biso   1.000  O
  O44      1.0000 0.92921  0.46895  0.46680  Biso   1.000  O
  O45      1.0000 0.76289  0.29179  0.30626  Biso   1.000  O
  O46      1.0000 0.80007  0.23898  0.36797  Biso   1.000  O
  O47      1.0000 0.86284  0.28047  0.43816  Biso   1.000  O
  C71      1.0000 0.90791  0.46908  0.42187  Biso   1.000  C
  C72      1.0000 0.87937  0.42052  0.40231  Biso   1.000  C
  C73      1.0000 0.84795  0.42378  0.35648  Biso   1.000  C
  H50      1.0000 0.84600  0.45640  0.33690  Biso   1.000  H
  C74      1.0000 0.81972  0.37942  0.33964  Biso   1.000  C
  H51      1.0000 0.79720  0.38200  0.30910  Biso   1.000  H
  C75      1.0000 0.82373  0.33141  0.36647  Biso   1.000  C
  C76      1.0000 0.79391  0.28372  0.34575  Biso   1.000  C
  C77      1.0000 0.85551  0.32816  0.41165  Biso   1.000  C
  C78      1.0000 0.88306  0.37229  0.42995  Biso   1.000  C
  H52      1.0000 0.90450  0.36980  0.46130  Biso   1.000  H
  C79      1.0000 0.81729  0.60875  0.37827  Biso   1.000  C
  H53      1.0000 0.80360  0.61640  0.41470  Biso   1.000  H
  H54      1.0000 0.81460  0.56970  0.37190  Biso   1.000  H
  C80      1.0000 0.78339  0.63910  0.33640  Biso   1.000  C
  H55      1.0000 0.77350  0.61470  0.30670  Biso   1.000  H
  H56      1.0000 0.75000  0.65250  0.35320  Biso   1.000  H
  O48      1.0000 0.90800  0.36850  0.47860  Biso   1.000  O
  O49      1.0000 0.10986  0.09296  0.00958  Biso   1.000  O
  O50      1.0000 0.03320  0.07079  0.96895  Biso   1.000  O
  O51      1.0000 0.19374  0.23711  0.79179  Biso   1.000  O
  O52      1.0000 0.13203  0.19993  0.73898  Biso   1.000  O
  O53      1.0000 0.06184  0.13716  0.78047  Biso   1.000  O
  C81      1.0000 0.07813  0.09209  0.96908  Biso   1.000  C
  C82      1.0000 0.09769  0.12063  0.92052  Biso   1.000  C
  C83      1.0000 0.14352  0.15205  0.92378  Biso   1.000  C
  H57      1.0000 0.16310  0.15400  0.95640  Biso   1.000  H
  C84      1.0000 0.16036  0.18028  0.87942  Biso   1.000  C
  H58      1.0000 0.19090  0.20280  0.88200  Biso   1.000  H
  C85      1.0000 0.13353  0.17627  0.83141  Biso   1.000  C
  C86      1.0000 0.15425  0.20609  0.78372  Biso   1.000  C
  C87      1.0000 0.08835  0.14449  0.82816  Biso   1.000  C
  C88      1.0000 0.07005  0.11694  0.87229  Biso   1.000  C
  H59      1.0000 0.03870  0.09550  0.86980  Biso   1.000  H
  C89      1.0000 0.12173  0.18271  0.10875  Biso   1.000  C
  H60      1.0000 0.08530  0.19640  0.11640  Biso   1.000  H
  H61      1.0000 0.12810  0.18540  0.06970  Biso   1.000  H
  C90      1.0000 0.16360  0.21661  0.13910  Biso   1.000  C
  H62      1.0000 0.19330  0.22650  0.11470  Biso   1.000  H
  H63      1.0000 0.14680  0.25000  0.15250  Biso   1.000  H
  O54      1.0000 0.02140  0.09200  0.86850  Biso   1.000  O
  O55      1.0000 0.89014  0.59296  0.49042  Biso   1.000  O
  O56      1.0000 0.96680  0.57079  0.53105  Biso   1.000  O
  O57      1.0000 0.80626  0.73711  0.70821  Biso   1.000  O
  O58      1.0000 0.86797  0.69993  0.76102  Biso   1.000  O
  O59      1.0000 0.93816  0.63716  0.71953  Biso   1.000  O
  C91      1.0000 0.92187  0.59209  0.53092  Biso   1.000  C
  C92      1.0000 0.90231  0.62063  0.57948  Biso   1.000  C
  C93      1.0000 0.85648  0.65205  0.57622  Biso   1.000  C
  H64      1.0000 0.83690  0.65400  0.54360  Biso   1.000  H
  C94      1.0000 0.83964  0.68028  0.62058  Biso   1.000  C
  H65      1.0000 0.80910  0.70280  0.61800  Biso   1.000  H
  C95      1.0000 0.86647  0.67627  0.66859  Biso   1.000  C
  C96      1.0000 0.84575  0.70609  0.71628  Biso   1.000  C
  C97      1.0000 0.91165  0.64449  0.67184  Biso   1.000  C
  C98      1.0000 0.92995  0.61694  0.62771  Biso   1.000  C
  H66      1.0000 0.96130  0.59550  0.63020  Biso   1.000  H
  C99      1.0000 0.87827  0.68271  0.39125  Biso   1.000  C
  H67      1.0000 0.91470  0.69640  0.38360  Biso   1.000  H
  H68      1.0000 0.87190  0.68540  0.43030  Biso   1.000  H
  C100     1.0000 0.83640  0.71661  0.36090  Biso   1.000  C
  H69      1.0000 0.80670  0.72650  0.38530  Biso   1.000  H
  H70      1.0000 0.85320  0.75000  0.34750  Biso   1.000  H
  O60      1.0000 0.97860  0.59200  0.63150  Biso   1.000  O
  O61      1.0000 0.60986  0.40704  0.99042  Biso   1.000  O
  O62      1.0000 0.53320  0.42921  0.03105  Biso   1.000  O
  O63      1.0000 0.69374  0.26289  0.20821  Biso   1.000  O
  O64      1.0000 0.63203  0.30007  0.26102  Biso   1.000  O
  O65      1.0000 0.56184  0.36284  0.21953  Biso   1.000  O
  C101     1.0000 0.57813  0.40791  0.03092  Biso   1.000  C
  C102     1.0000 0.59769  0.37937  0.07948  Biso   1.000  C
  C103     1.0000 0.64352  0.34795  0.07622  Biso   1.000  C
  H71      1.0000 0.66310  0.34600  0.04360  Biso   1.000  H
  C104     1.0000 0.66036  0.31972  0.12058  Biso   1.000  C
  H72      1.0000 0.69090  0.29720  0.11800  Biso   1.000  H
  C105     1.0000 0.63353  0.32373  0.16859  Biso   1.000  C
  C106     1.0000 0.65425  0.29391  0.21628  Biso   1.000  C
  C107     1.0000 0.58835  0.35551  0.17184  Biso   1.000  C
  C108     1.0000 0.57005  0.38306  0.12771  Biso   1.000  C
  H73      1.0000 0.53870  0.40450  0.13020  Biso   1.000  H
  C109     1.0000 0.62173  0.31729  0.89125  Biso   1.000  C
  H74      1.0000 0.58530  0.30360  0.88360  Biso   1.000  H
  H75      1.0000 0.62810  0.31460  0.93030  Biso   1.000  H
  C110     1.0000 0.66360  0.28339  0.86090  Biso   1.000  C
  H76      1.0000 0.69330  0.27350  0.88530  Biso   1.000  H
  H77      1.0000 0.64680  0.25000  0.84750  Biso   1.000  H
  O66      1.0000 0.52140  0.40800  0.13150  Biso   1.000  O
  O67      1.0000 0.39014  0.90704  0.50958  Biso   1.000  O
  O68      1.0000 0.46680  0.92921  0.46895  Biso   1.000  O
  O69      1.0000 0.30626  0.76289  0.29179  Biso   1.000  O
  O70      1.0000 0.36797  0.80007  0.23898  Biso   1.000  O
  O71      1.0000 0.43816  0.86284  0.28047  Biso   1.000  O
  C111     1.0000 0.42187  0.90791  0.46908  Biso   1.000  C
  C112     1.0000 0.40231  0.87937  0.42052  Biso   1.000  C
  C113     1.0000 0.35648  0.84795  0.42378  Biso   1.000  C
  H78      1.0000 0.33690  0.84600  0.45640  Biso   1.000  H
  C114     1.0000 0.33964  0.81972  0.37942  Biso   1.000  C
  H79      1.0000 0.30910  0.79720  0.38200  Biso   1.000  H
  C115     1.0000 0.36647  0.82373  0.33141  Biso   1.000  C
  C116     1.0000 0.34575  0.79391  0.28372  Biso   1.000  C
  C117     1.0000 0.41165  0.85551  0.32816  Biso   1.000  C
  C118     1.0000 0.42995  0.88306  0.37229  Biso   1.000  C
  H80      1.0000 0.46130  0.90450  0.36980  Biso   1.000  H
  C119     1.0000 0.37827  0.81729  0.60875  Biso   1.000  C
  H81      1.0000 0.41470  0.80360  0.61640  Biso   1.000  H
  H82      1.0000 0.37190  0.81460  0.56970  Biso   1.000  H
  C120     1.0000 0.33640  0.78339  0.63910  Biso   1.000  C
  H83      1.0000 0.30670  0.77350  0.61470  Biso   1.000  H
  H84      1.0000 0.35320  0.75000  0.65250  Biso   1.000  H
  O72      1.0000 0.47860  0.90800  0.36850  Biso   1.000  O
  O73      1.0000 0.99042  0.89014  0.90704  Biso   1.000  O
  O74      1.0000 0.03105  0.96680  0.92921  Biso   1.000  O
  O75      1.0000 0.20821  0.80626  0.76289  Biso   1.000  O
  O76      1.0000 0.26102  0.86797  0.80007  Biso   1.000  O
  O77      1.0000 0.21953  0.93816  0.86284  Biso   1.000  O
  C121     1.0000 0.03092  0.92187  0.90791  Biso   1.000  C
  C122     1.0000 0.07948  0.90231  0.87937  Biso   1.000  C
  C123     1.0000 0.07622  0.85648  0.84795  Biso   1.000  C
  H85      1.0000 0.04360  0.83690  0.84600  Biso   1.000  H
  C124     1.0000 0.12058  0.83964  0.81972  Biso   1.000  C
  H86      1.0000 0.11800  0.80910  0.79720  Biso   1.000  H
  C125     1.0000 0.16859  0.86647  0.82373  Biso   1.000  C
  C126     1.0000 0.21628  0.84575  0.79391  Biso   1.000  C
  C127     1.0000 0.17184  0.91165  0.85551  Biso   1.000  C
  C128     1.0000 0.12771  0.92995  0.88306  Biso   1.000  C
  H87      1.0000 0.13020  0.96130  0.90450  Biso   1.000  H
  C129     1.0000 0.89125  0.87827  0.81729  Biso   1.000  C
  H88      1.0000 0.88360  0.91470  0.80360  Biso   1.000  H
  H89      1.0000 0.93030  0.87190  0.81460  Biso   1.000  H
  C130     1.0000 0.86090  0.83640  0.78339  Biso   1.000  C
  H90      1.0000 0.88530  0.80670  0.77350  Biso   1.000  H
  H91      1.0000 0.84750  0.85320  0.75000  Biso   1.000  H
  O78      1.0000 0.13150  0.97860  0.90800  Biso   1.000  O
  O79      1.0000 0.50958  0.10986  0.40704  Biso   1.000  O
  O80      1.0000 0.46895  0.03320  0.42921  Biso   1.000  O
  O81      1.0000 0.29179  0.19374  0.26289  Biso   1.000  O
  O82      1.0000 0.23898  0.13203  0.30007  Biso   1.000  O
  O83      1.0000 0.28047  0.06184  0.36284  Biso   1.000  O
  C131     1.0000 0.46908  0.07813  0.40791  Biso   1.000  C
  C132     1.0000 0.42052  0.09769  0.37937  Biso   1.000  C
  C133     1.0000 0.42378  0.14352  0.34795  Biso   1.000  C
  H92      1.0000 0.45640  0.16310  0.34600  Biso   1.000  H
  C134     1.0000 0.37942  0.16036  0.31972  Biso   1.000  C
  H93      1.0000 0.38200  0.19090  0.29720  Biso   1.000  H
  C135     1.0000 0.33141  0.13353  0.32373  Biso   1.000  C
  C136     1.0000 0.28372  0.15425  0.29391  Biso   1.000  C
  C137     1.0000 0.32816  0.08835  0.35551  Biso   1.000  C
  C138     1.0000 0.37229  0.07005  0.38306  Biso   1.000  C
  H94      1.0000 0.36980  0.03870  0.40450  Biso   1.000  H
  C139     1.0000 0.60875  0.12173  0.31729  Biso   1.000  C
  H95      1.0000 0.61640  0.08530  0.30360  Biso   1.000  H
  H96      1.0000 0.56970  0.12810  0.31460  Biso   1.000  H
  C140     1.0000 0.63910  0.16360  0.28339  Biso   1.000  C
  H97      1.0000 0.61470  0.19330  0.27350  Biso   1.000  H
  H98      1.0000 0.65250  0.14680  0.25000  Biso   1.000  H
  O84      1.0000 0.36850  0.02140  0.40800  Biso   1.000  O
  O85      1.0000 0.00958  0.39014  0.59296  Biso   1.000  O
  O86      1.0000 0.96895  0.46680  0.57079  Biso   1.000  O
  O87      1.0000 0.79179  0.30626  0.73711  Biso   1.000  O
  O88      1.0000 0.73898  0.36797  0.69993  Biso   1.000  O
  O89      1.0000 0.78047  0.43816  0.63716  Biso   1.000  O
  C141     1.0000 0.96908  0.42187  0.59209  Biso   1.000  C
  C142     1.0000 0.92052  0.40231  0.62063  Biso   1.000  C
  C143     1.0000 0.92378  0.35648  0.65205  Biso   1.000  C
  H99      1.0000 0.95640  0.33690  0.65400  Biso   1.000  H
  C144     1.0000 0.87942  0.33964  0.68028  Biso   1.000  C
  H100     1.0000 0.88200  0.30910  0.70280  Biso   1.000  H
  C145     1.0000 0.83141  0.36647  0.67627  Biso   1.000  C
  C146     1.0000 0.78372  0.34575  0.70609  Biso   1.000  C
  C147     1.0000 0.82816  0.41165  0.64449  Biso   1.000  C
  C148     1.0000 0.87229  0.42995  0.61694  Biso   1.000  C
  H101     1.0000 0.86980  0.46130  0.59550  Biso   1.000  H
  C149     1.0000 0.10875  0.37827  0.68271  Biso   1.000  C
  H102     1.0000 0.11640  0.41470  0.69640  Biso   1.000  H
  H103     1.0000 0.06970  0.37190  0.68540  Biso   1.000  H
  C150     1.0000 0.13910  0.33640  0.71661  Biso   1.000  C
  H104     1.0000 0.11470  0.30670  0.72650  Biso   1.000  H
  H105     1.0000 0.15250  0.35320  0.75000  Biso   1.000  H
  O90      1.0000 0.86850  0.47860  0.59200  Biso   1.000  O
  O91      1.0000 0.49042  0.60986  0.09296  Biso   1.000  O
  O92      1.0000 0.53105  0.53320  0.07079  Biso   1.000  O
  O93      1.0000 0.70821  0.69374  0.23711  Biso   1.000  O
  O94      1.0000 0.76102  0.63203  0.19993  Biso   1.000  O
  O95      1.0000 0.71953  0.56184  0.13716  Biso   1.000  O
  C151     1.0000 0.53092  0.57813  0.09209  Biso   1.000  C
  C152     1.0000 0.57948  0.59769  0.12063  Biso   1.000  C
  C153     1.0000 0.57622  0.64352  0.15205  Biso   1.000  C
  H106     1.0000 0.54360  0.66310  0.15400  Biso   1.000  H
  C154     1.0000 0.62058  0.66036  0.18028  Biso   1.000  C
  H107     1.0000 0.61800  0.69090  0.20280  Biso   1.000  H
  C155     1.0000 0.66859  0.63353  0.17627  Biso   1.000  C
  C156     1.0000 0.71628  0.65425  0.20609  Biso   1.000  C
  C157     1.0000 0.67184  0.58835  0.14449  Biso   1.000  C
  C158     1.0000 0.62771  0.57005  0.11694  Biso   1.000  C
  H108     1.0000 0.63020  0.53870  0.09550  Biso   1.000  H
  C159     1.0000 0.39125  0.62173  0.18271  Biso   1.000  C
  H109     1.0000 0.38360  0.58530  0.19640  Biso   1.000  H
  H110     1.0000 0.43030  0.62810  0.18540  Biso   1.000  H
  C160     1.0000 0.36090  0.66360  0.21661  Biso   1.000  C
  H111     1.0000 0.38530  0.69330  0.22650  Biso   1.000  H
  H112     1.0000 0.34750  0.64680  0.25000  Biso   1.000  H
  O96      1.0000 0.63150  0.52140  0.09200  Biso   1.000  O
  O97      1.0000 0.90704  0.99042  0.89014  Biso   1.000  O
  O98      1.0000 0.92921  0.03105  0.96680  Biso   1.000  O
  O99      1.0000 0.76289  0.20821  0.80626  Biso   1.000  O
  O100     1.0000 0.80007  0.26102  0.86797  Biso   1.000  O
  O101     1.0000 0.86284  0.21953  0.93816  Biso   1.000  O
  C161     1.0000 0.90791  0.03092  0.92187  Biso   1.000  C
  C162     1.0000 0.87937  0.07948  0.90231  Biso   1.000  C
  C163     1.0000 0.84795  0.07622  0.85648  Biso   1.000  C
  H113     1.0000 0.84600  0.04360  0.83690  Biso   1.000  H
  C164     1.0000 0.81972  0.12058  0.83964  Biso   1.000  C
  H114     1.0000 0.79720  0.11800  0.80910  Biso   1.000  H
  C165     1.0000 0.82373  0.16859  0.86647  Biso   1.000  C
  C166     1.0000 0.79391  0.21628  0.84575  Biso   1.000  C
  C167     1.0000 0.85551  0.17184  0.91165  Biso   1.000  C
  C168     1.0000 0.88306  0.12771  0.92995  Biso   1.000  C
  H115     1.0000 0.90450  0.13020  0.96130  Biso   1.000  H
  C169     1.0000 0.81729  0.89125  0.87827  Biso   1.000  C
  H116     1.0000 0.80360  0.88360  0.91470  Biso   1.000  H
  H117     1.0000 0.81460  0.93030  0.87190  Biso   1.000  H
  C170     1.0000 0.78339  0.86090  0.83640  Biso   1.000  C
  H118     1.0000 0.77350  0.88530  0.80670  Biso   1.000  H
  H119     1.0000 0.75000  0.84750  0.85320  Biso   1.000  H
  O102     1.0000 0.90800  0.13150  0.97860  Biso   1.000  O
  O103     1.0000 0.40704  0.50958  0.10986  Biso   1.000  O
  O104     1.0000 0.42921  0.46895  0.03320  Biso   1.000  O
  O105     1.0000 0.26289  0.29179  0.19374  Biso   1.000  O
  O106     1.0000 0.30007  0.23898  0.13203  Biso   1.000  O
  O107     1.0000 0.36284  0.28047  0.06184  Biso   1.000  O
  C171     1.0000 0.40791  0.46908  0.07813  Biso   1.000  C
  C172     1.0000 0.37937  0.42052  0.09769  Biso   1.000  C
  C173     1.0000 0.34795  0.42378  0.14352  Biso   1.000  C
  H120     1.0000 0.34600  0.45640  0.16310  Biso   1.000  H
  C174     1.0000 0.31972  0.37942  0.16036  Biso   1.000  C
  H121     1.0000 0.29720  0.38200  0.19090  Biso   1.000  H
  C175     1.0000 0.32373  0.33141  0.13353  Biso   1.000  C
  C176     1.0000 0.29391  0.28372  0.15425  Biso   1.000  C
  C177     1.0000 0.35551  0.32816  0.08835  Biso   1.000  C
  C178     1.0000 0.38306  0.37229  0.07005  Biso   1.000  C
  H122     1.0000 0.40450  0.36980  0.03870  Biso   1.000  H
  C179     1.0000 0.31729  0.60875  0.12173  Biso   1.000  C
  H123     1.0000 0.30360  0.61640  0.08530  Biso   1.000  H
  H124     1.0000 0.31460  0.56970  0.12810  Biso   1.000  H
  C180     1.0000 0.28339  0.63910  0.16360  Biso   1.000  C
  H125     1.0000 0.27350  0.61470  0.19330  Biso   1.000  H
  H126     1.0000 0.25000  0.65250  0.14680  Biso   1.000  H
  O108     1.0000 0.40800  0.36850  0.02140  Biso   1.000  O
  O109     1.0000 0.59296  0.00958  0.39014  Biso   1.000  O
  O110     1.0000 0.57079  0.96895  0.46680  Biso   1.000  O
  O111     1.0000 0.73711  0.79179  0.30626  Biso   1.000  O
  O112     1.0000 0.69993  0.73898  0.36797  Biso   1.000  O
  O113     1.0000 0.63716  0.78047  0.43816  Biso   1.000  O
  C181     1.0000 0.59209  0.96908  0.42187  Biso   1.000  C
  C182     1.0000 0.62063  0.92052  0.40231  Biso   1.000  C
  C183     1.0000 0.65205  0.92378  0.35648  Biso   1.000  C
  H127     1.0000 0.65400  0.95640  0.33690  Biso   1.000  H
  C184     1.0000 0.68028  0.87942  0.33964  Biso   1.000  C
  H128     1.0000 0.70280  0.88200  0.30910  Biso   1.000  H
  C185     1.0000 0.67627  0.83141  0.36647  Biso   1.000  C
  C186     1.0000 0.70609  0.78372  0.34575  Biso   1.000  C
  C187     1.0000 0.64449  0.82816  0.41165  Biso   1.000  C
  C188     1.0000 0.61694  0.87229  0.42995  Biso   1.000  C
  H129     1.0000 0.59550  0.86980  0.46130  Biso   1.000  H
  C189     1.0000 0.68271  0.10875  0.37827  Biso   1.000  C
  H130     1.0000 0.69640  0.11640  0.41470  Biso   1.000  H
  H131     1.0000 0.68540  0.06970  0.37190  Biso   1.000  H
  C190     1.0000 0.71661  0.13910  0.33640  Biso   1.000  C
  H132     1.0000 0.72650  0.11470  0.30670  Biso   1.000  H
  H133     1.0000 0.75000  0.15250  0.35320  Biso   1.000  H
  O114     1.0000 0.59200  0.86850  0.47860  Biso   1.000  O
  O115     1.0000 0.09296  0.49042  0.60986  Biso   1.000  O
  O116     1.0000 0.07079  0.53105  0.53320  Biso   1.000  O
  O117     1.0000 0.23711  0.70821  0.69374  Biso   1.000  O
  O118     1.0000 0.19993  0.76102  0.63203  Biso   1.000  O
  O119     1.0000 0.13716  0.71953  0.56184  Biso   1.000  O
  C191     1.0000 0.09209  0.53092  0.57813  Biso   1.000  C
  C192     1.0000 0.12063  0.57948  0.59769  Biso   1.000  C
  C193     1.0000 0.15205  0.57622  0.64352  Biso   1.000  C
  H134     1.0000 0.15400  0.54360  0.66310  Biso   1.000  H
  C194     1.0000 0.18028  0.62058  0.66036  Biso   1.000  C
  H135     1.0000 0.20280  0.61800  0.69090  Biso   1.000  H
  C195     1.0000 0.17627  0.66859  0.63353  Biso   1.000  C
  C196     1.0000 0.20609  0.71628  0.65425  Biso   1.000  C
  C197     1.0000 0.14449  0.67184  0.58835  Biso   1.000  C
  C198     1.0000 0.11694  0.62771  0.57005  Biso   1.000  C
  H136     1.0000 0.09550  0.63020  0.53870  Biso   1.000  H
  C199     1.0000 0.18271  0.39125  0.62173  Biso   1.000  C
  H137     1.0000 0.19640  0.38360  0.58530  Biso   1.000  H
  H138     1.0000 0.18540  0.43030  0.62810  Biso   1.000  H
  C200     1.0000 0.21661  0.36090  0.66360  Biso   1.000  C
  H139     1.0000 0.22650  0.38530  0.69330  Biso   1.000  H
  H140     1.0000 0.25000  0.34750  0.64680  Biso   1.000  H
  O120     1.0000 0.09200  0.63150  0.52140  Biso   1.000  O
  O121     1.0000 0.89014  0.90704  0.99042  Biso   1.000  O
  O122     1.0000 0.96680  0.92921  0.03105  Biso   1.000  O
  O123     1.0000 0.80626  0.76289  0.20821  Biso   1.000  O
  O124     1.0000 0.86797  0.80007  0.26102  Biso   1.000  O
  O125     1.0000 0.93816  0.86284  0.21953  Biso   1.000  O
  C201     1.0000 0.92187  0.90791  0.03092  Biso   1.000  C
  C202     1.0000 0.90231  0.87937  0.07948  Biso   1.000  C
  C203     1.0000 0.85648  0.84795  0.07622  Biso   1.000  C
  H141     1.0000 0.83690  0.84600  0.04360  Biso   1.000  H
  C204     1.0000 0.83964  0.81972  0.12058  Biso   1.000  C
  H142     1.0000 0.80910  0.79720  0.11800  Biso   1.000  H
  C205     1.0000 0.86647  0.82373  0.16859  Biso   1.000  C
  C206     1.0000 0.84575  0.79391  0.21628  Biso   1.000  C
  C207     1.0000 0.91165  0.85551  0.17184  Biso   1.000  C
  C208     1.0000 0.92995  0.88306  0.12771  Biso   1.000  C
  H143     1.0000 0.96130  0.90450  0.13020  Biso   1.000  H
  C209     1.0000 0.87827  0.81729  0.89125  Biso   1.000  C
  H144     1.0000 0.91470  0.80360  0.88360  Biso   1.000  H
  H145     1.0000 0.87190  0.81460  0.93030  Biso   1.000  H
  C210     1.0000 0.83640  0.78339  0.86090  Biso   1.000  C
  H146     1.0000 0.80670  0.77350  0.88530  Biso   1.000  H
  H147     1.0000 0.85320  0.75000  0.84750  Biso   1.000  H
  O126     1.0000 0.97860  0.90800  0.13150  Biso   1.000  O
  O127     1.0000 0.10986  0.40704  0.50958  Biso   1.000  O
  O128     1.0000 0.03320  0.42921  0.46895  Biso   1.000  O
  O129     1.0000 0.19374  0.26289  0.29179  Biso   1.000  O
  O130     1.0000 0.13203  0.30007  0.23898  Biso   1.000  O
  O131     1.0000 0.06184  0.36284  0.28047  Biso   1.000  O
  C211     1.0000 0.07813  0.40791  0.46908  Biso   1.000  C
  C212     1.0000 0.09769  0.37937  0.42052  Biso   1.000  C
  C213     1.0000 0.14352  0.34795  0.42378  Biso   1.000  C
  H148     1.0000 0.16310  0.34600  0.45640  Biso   1.000  H
  C214     1.0000 0.16036  0.31972  0.37942  Biso   1.000  C
  H149     1.0000 0.19090  0.29720  0.38200  Biso   1.000  H
  C215     1.0000 0.13353  0.32373  0.33141  Biso   1.000  C
  C216     1.0000 0.15425  0.29391  0.28372  Biso   1.000  C
  C217     1.0000 0.08835  0.35551  0.32816  Biso   1.000  C
  C218     1.0000 0.07005  0.38306  0.37229  Biso   1.000  C
  H150     1.0000 0.03870  0.40450  0.36980  Biso   1.000  H
  C219     1.0000 0.12173  0.31729  0.60875  Biso   1.000  C
  H151     1.0000 0.08530  0.30360  0.61640  Biso   1.000  H
  H152     1.0000 0.12810  0.31460  0.56970  Biso   1.000  H
  C220     1.0000 0.16360  0.28339  0.63910  Biso   1.000  C
  H153     1.0000 0.19330  0.27350  0.61470  Biso   1.000  H
  H154     1.0000 0.14680  0.25000  0.65250  Biso   1.000  H
  O132     1.0000 0.02140  0.40800  0.36850  Biso   1.000  O
  O133     1.0000 0.39014  0.59296  0.00958  Biso   1.000  O
  O134     1.0000 0.46680  0.57079  0.96895  Biso   1.000  O
  O135     1.0000 0.30626  0.73711  0.79179  Biso   1.000  O
  O136     1.0000 0.36797  0.69993  0.73898  Biso   1.000  O
  O137     1.0000 0.43816  0.63716  0.78047  Biso   1.000  O
  C221     1.0000 0.42187  0.59209  0.96908  Biso   1.000  C
  C222     1.0000 0.40231  0.62063  0.92052  Biso   1.000  C
  C223     1.0000 0.35648  0.65205  0.92378  Biso   1.000  C
  H155     1.0000 0.33690  0.65400  0.95640  Biso   1.000  H
  C224     1.0000 0.33964  0.68028  0.87942  Biso   1.000  C
  H156     1.0000 0.30910  0.70280  0.88200  Biso   1.000  H
  C225     1.0000 0.36647  0.67627  0.83141  Biso   1.000  C
  C226     1.0000 0.34575  0.70609  0.78372  Biso   1.000  C
  C227     1.0000 0.41165  0.64449  0.82816  Biso   1.000  C
  C228     1.0000 0.42995  0.61694  0.87229  Biso   1.000  C
  H157     1.0000 0.46130  0.59550  0.86980  Biso   1.000  H
  C229     1.0000 0.37827  0.68271  0.10875  Biso   1.000  C
  H158     1.0000 0.41470  0.69640  0.11640  Biso   1.000  H
  H159     1.0000 0.37190  0.68540  0.06970  Biso   1.000  H
  C230     1.0000 0.33640  0.71661  0.13910  Biso   1.000  C
  H160     1.0000 0.30670  0.72650  0.11470  Biso   1.000  H
  H161     1.0000 0.35320  0.75000  0.15250  Biso   1.000  H
  O138     1.0000 0.47860  0.59200  0.86850  Biso   1.000  O
  O139     1.0000 0.60986  0.09296  0.49042  Biso   1.000  O
  O140     1.0000 0.53320  0.07079  0.53105  Biso   1.000  O
  O141     1.0000 0.69374  0.23711  0.70821  Biso   1.000  O
  O142     1.0000 0.63203  0.19993  0.76102  Biso   1.000  O
  O143     1.0000 0.56184  0.13716  0.71953  Biso   1.000  O
  C231     1.0000 0.57813  0.09209  0.53092  Biso   1.000  C
  C232     1.0000 0.59769  0.12063  0.57948  Biso   1.000  C
  C233     1.0000 0.64352  0.15205  0.57622  Biso   1.000  C
  H162     1.0000 0.66310  0.15400  0.54360  Biso   1.000  H
  C234     1.0000 0.66036  0.18028  0.62058  Biso   1.000  C
  H163     1.0000 0.69090  0.20280  0.61800  Biso   1.000  H
  C235     1.0000 0.63353  0.17627  0.66859  Biso   1.000  C
  C236     1.0000 0.65425  0.20609  0.71628  Biso   1.000  C
  C237     1.0000 0.58835  0.14449  0.67184  Biso   1.000  C
  C238     1.0000 0.57005  0.11694  0.62771  Biso   1.000  C
  H164     1.0000 0.53870  0.09550  0.63020  Biso   1.000  H
  C239     1.0000 0.62173  0.18271  0.39125  Biso   1.000  C
  H165     1.0000 0.58530  0.19640  0.38360  Biso   1.000  H
  H166     1.0000 0.62810  0.18540  0.43030  Biso   1.000  H
  C240     1.0000 0.66360  0.21661  0.36090  Biso   1.000  C
  H167     1.0000 0.69330  0.22650  0.38530  Biso   1.000  H
  H168     1.0000 0.64680  0.25000  0.34750  Biso   1.000  H
  O144     1.0000 0.52140  0.09200  0.63150  Biso   1.000  O
  Zn1      1.0000 0.07886  0.07886  0.07886  Biso   1.000  Zn
  Zn2      1.0000 0.23183  0.23183  0.23183  Biso   1.000  Zn
  N1       1.0000 0.12591  0.12591  0.12591  Biso   1.000  N
  N2       1.0000 0.18471  0.18471  0.18471  Biso   1.000  N
  Zn3      1.0000 0.42114  0.92114  0.57886  Biso   1.000  Zn
  Zn4      1.0000 0.26817  0.76817  0.73183  Biso   1.000  Zn
  N3       1.0000 0.37409  0.87409  0.62591  Biso   1.000  N
  N4       1.0000 0.31529  0.81529  0.68471  Biso   1.000  N
  Zn5      1.0000 0.92114  0.57886  0.42114  Biso   1.000  Zn
  Zn6      1.0000 0.76817  0.73183  0.26817  Biso   1.000  Zn
  N5       1.0000 0.87409  0.62591  0.37409  Biso   1.000  N
  N6       1.0000 0.81529  0.68471  0.31529  Biso   1.000  N
  Zn7      1.0000 0.57886  0.42114  0.92114  Biso   1.000  Zn
  Zn8      1.0000 0.73183  0.26817  0.76817  Biso   1.000  Zn
  N7       1.0000 0.62591  0.37409  0.87409  Biso   1.000  N
  N8       1.0000 0.68471  0.31529  0.81529  Biso   1.000  N
  Zn9      1.0000 0.92114  0.92114  0.92114  Biso   1.000  Zn
  Zn10     1.0000 0.76817  0.76817  0.76817  Biso   1.000  Zn
  N9       1.0000 0.87409  0.87409  0.87409  Biso   1.000  N
  N10      1.0000 0.81529  0.81529  0.81529  Biso   1.000  N
  Zn11     1.0000 0.57886  0.07886  0.42114  Biso   1.000  Zn
  Zn12     1.0000 0.73183  0.23183  0.26817  Biso   1.000  Zn
  N11      1.0000 0.62591  0.12591  0.37409  Biso   1.000  N
  N12      1.0000 0.68471  0.18471  0.31529  Biso   1.000  N
  Zn13     1.0000 0.07886  0.42114  0.57886  Biso   1.000  Zn
  Zn14     1.0000 0.23183  0.26817  0.73183  Biso   1.000  Zn
  N13      1.0000 0.12591  0.37409  0.62591  Biso   1.000  N
  N14      1.0000 0.18471  0.31529  0.68471  Biso   1.000  N
  Zn15     1.0000 0.42114  0.57886  0.07886  Biso   1.000  Zn
  Zn16     1.0000 0.26817  0.73183  0.23183  Biso   1.000  Zn
  N15      1.0000 0.37409  0.62591  0.12591  Biso   1.000  N
  N16      1.0000 0.31529  0.68471  0.18471  Biso   1.000  N
  Zn17     1.0000 0.00000  0.00000  0.00000  Biso   1.000  Zn
  Zn18     1.0000 0.50000  0.00000  0.50000  Biso   1.000  Zn
  Zn19     1.0000 0.00000  0.50000  0.50000  Biso   1.000  Zn
  Zn20     1.0000 0.50000  0.50000  0.00000  Biso   1.000  Zn
