data_image0
_cell_length_a       32.407
_cell_length_b       9.575
_cell_length_c       12.193
_cell_angle_alpha    90
_cell_angle_beta     90
_cell_angle_gamma    90

_symmetry_space_group_name_H-M    "P 1"
_symmetry_int_tables_number       1

loop_
  _symmetry_equiv_pos_as_xyz
  'x, y, z'

loop_
  _atom_site_label
  _atom_site_occupancy
  _atom_site_fract_x
  _atom_site_fract_y
  _atom_site_fract_z
  _atom_site_thermal_displace_type
  _atom_site_B_iso_or_equiv
  _atom_site_type_symbol
  Zn1      1.0000 0.33180  0.45653  0.39104  Biso   1.000  Zn
  Zn2      1.0000 0.41776  0.75620  0.43638  Biso   1.000  Zn
  O1       1.0000 0.16300  0.77790  0.81620  Biso   1.000  O
  O2       1.0000 0.14160  0.27640  0.89560  Biso   1.000  O
  O3       1.0000 0.17230  0.11490  0.78950  Biso   1.000  O
  O4       1.0000 0.38830  0.44600  0.44830  Biso   1.000  O
  C1       1.0000 0.20130  0.59870  0.73280  Biso   1.000  C
  O5       1.0000 0.29090  0.49610  0.50120  Biso   1.000  O
  O6       1.0000 0.51850  0.44590  0.83730  Biso   1.000  O
  O7       1.0000 0.42250  0.60530  0.54410  Biso   1.000  O
  C2       1.0000 0.18670  0.35320  0.75610  Biso   1.000  C
  C3       1.0000 0.23720  0.42700  0.62360  Biso   1.000  C
  O8       1.0000 0.42330  0.94490  0.49350  Biso   1.000  O
  C4       1.0000 0.52220  0.33320  0.78890  Biso   1.000  C
  C5       1.0000 0.46680  0.39790  0.65450  Biso   1.000  C
  H1       1.0000 0.46820  0.48870  0.68120  Biso   1.000  H
  C6       1.0000 0.22970  0.56440  0.65290  Biso   1.000  C
  H2       1.0000 0.24420  0.63540  0.61790  Biso   1.000  H
  O9       1.0000 0.48480  0.89400  0.56040  Biso   1.000  O
  C7       1.0000 0.48770  0.16070  0.66220  Biso   1.000  C
  H3       1.0000 0.50360  0.09040  0.69370  Biso   1.000  H
  C8       1.0000 0.45690  0.97710  0.54150  Biso   1.000  C
  C9       1.0000 0.21490  0.32270  0.67540  Biso   1.000  C
  H4       1.0000 0.21910  0.23010  0.65500  Biso   1.000  H
  C10      1.0000 0.17970  0.49080  0.78120  Biso   1.000  C
  H5       1.0000 0.15960  0.51230  0.83300  Biso   1.000  H
  C11      1.0000 0.27060  0.39160  0.53950  Biso   1.000  C
  C12      1.0000 0.41530  0.48030  0.51510  Biso   1.000  C
  C13      1.0000 0.16440  0.24010  0.81720  Biso   1.000  C
  C14      1.0000 0.43940  0.36750  0.57030  Biso   1.000  C
  C15      1.0000 0.43570  0.23100  0.53330  Biso   1.000  C
  H6       1.0000 0.41690  0.20910  0.47830  Biso   1.000  H
  O10      1.0000 0.27610  0.27070  0.51530  Biso   1.000  O
  C16      1.0000 0.49180  0.29630  0.69940  Biso   1.000  C
  O11      1.0000 0.55000  0.24370  0.80450  Biso   1.000  O
  C17      1.0000 0.46020  0.12750  0.57850  Biso   1.000  C
  O12      1.0000 0.22290  0.83290  0.75040  Biso   1.000  O
  C18      1.0000 0.19560  0.74870  0.76790  Biso   1.000  C
  Zn3      1.0000 0.66820  0.54347  0.89104  Biso   1.000  Zn
  Zn4      1.0000 0.58224  0.24380  0.93638  Biso   1.000  Zn
  O13      1.0000 0.83700  0.22210  0.31620  Biso   1.000  O
  O14      1.0000 0.85840  0.72360  0.39560  Biso   1.000  O
  O15      1.0000 0.82770  0.88510  0.28950  Biso   1.000  O
  O16      1.0000 0.61170  0.55400  0.94830  Biso   1.000  O
  C19      1.0000 0.79870  0.40130  0.23280  Biso   1.000  C
  O17      1.0000 0.70910  0.50390  0.00120  Biso   1.000  O
  O18      1.0000 0.48150  0.55410  0.33730  Biso   1.000  O
  O19      1.0000 0.57750  0.39470  0.04410  Biso   1.000  O
  C20      1.0000 0.81330  0.64680  0.25610  Biso   1.000  C
  C21      1.0000 0.76280  0.57300  0.12360  Biso   1.000  C
  O20      1.0000 0.57670  0.05510  0.99350  Biso   1.000  O
  C22      1.0000 0.47780  0.66680  0.28890  Biso   1.000  C
  C23      1.0000 0.53320  0.60210  0.15450  Biso   1.000  C
  H7       1.0000 0.53180  0.51130  0.18120  Biso   1.000  H
  C24      1.0000 0.77030  0.43560  0.15290  Biso   1.000  C
  H8       1.0000 0.75580  0.36460  0.11790  Biso   1.000  H
  O21      1.0000 0.51520  0.10600  0.06040  Biso   1.000  O
  C25      1.0000 0.51230  0.83930  0.16220  Biso   1.000  C
  H9       1.0000 0.49640  0.90960  0.19370  Biso   1.000  H
  C26      1.0000 0.54310  0.02290  0.04150  Biso   1.000  C
  C27      1.0000 0.78510  0.67730  0.17540  Biso   1.000  C
  H10      1.0000 0.78090  0.76990  0.15500  Biso   1.000  H
  C28      1.0000 0.82030  0.50920  0.28120  Biso   1.000  C
  H11      1.0000 0.84040  0.48770  0.33300  Biso   1.000  H
  C29      1.0000 0.72940  0.60840  0.03950  Biso   1.000  C
  C30      1.0000 0.58470  0.51970  0.01510  Biso   1.000  C
  C31      1.0000 0.83560  0.75990  0.31720  Biso   1.000  C
  C32      1.0000 0.56060  0.63250  0.07030  Biso   1.000  C
  C33      1.0000 0.56430  0.76900  0.03330  Biso   1.000  C
  H12      1.0000 0.58310  0.79090  0.97830  Biso   1.000  H
  O22      1.0000 0.72390  0.72930  0.01530  Biso   1.000  O
  C34      1.0000 0.50820  0.70370  0.19940  Biso   1.000  C
  O23      1.0000 0.45000  0.75630  0.30450  Biso   1.000  O
  C35      1.0000 0.53980  0.87250  0.07850  Biso   1.000  C
  O24      1.0000 0.77710  0.16710  0.25040  Biso   1.000  O
  C36      1.0000 0.80440  0.25130  0.26790  Biso   1.000  C
  Zn5      1.0000 0.83180  0.04347  0.39104  Biso   1.000  Zn
  Zn6      1.0000 0.91776  0.74380  0.43638  Biso   1.000  Zn
  O25      1.0000 0.66300  0.72210  0.81620  Biso   1.000  O
  O26      1.0000 0.64160  0.22360  0.89560  Biso   1.000  O
  O27      1.0000 0.67230  0.38510  0.78950  Biso   1.000  O
  O28      1.0000 0.88830  0.05400  0.44830  Biso   1.000  O
  C37      1.0000 0.70130  0.90130  0.73280  Biso   1.000  C
  O29      1.0000 0.79090  0.00390  0.50120  Biso   1.000  O
  O30      1.0000 0.01850  0.05410  0.83730  Biso   1.000  O
  O31      1.0000 0.92250  0.89470  0.54410  Biso   1.000  O
  C38      1.0000 0.68670  0.14680  0.75610  Biso   1.000  C
  C39      1.0000 0.73720  0.07300  0.62360  Biso   1.000  C
  O32      1.0000 0.92330  0.55510  0.49350  Biso   1.000  O
  C40      1.0000 0.02220  0.16680  0.78890  Biso   1.000  C
  C41      1.0000 0.96680  0.10210  0.65450  Biso   1.000  C
  H13      1.0000 0.96820  0.01130  0.68120  Biso   1.000  H
  C42      1.0000 0.72970  0.93560  0.65290  Biso   1.000  C
  H14      1.0000 0.74420  0.86460  0.61790  Biso   1.000  H
  O33      1.0000 0.98480  0.60600  0.56040  Biso   1.000  O
  C43      1.0000 0.98770  0.33930  0.66220  Biso   1.000  C
  H15      1.0000 0.00360  0.40960  0.69370  Biso   1.000  H
  C44      1.0000 0.95690  0.52290  0.54150  Biso   1.000  C
  C45      1.0000 0.71490  0.17730  0.67540  Biso   1.000  C
  H16      1.0000 0.71910  0.26990  0.65500  Biso   1.000  H
  C46      1.0000 0.67970  0.00920  0.78120  Biso   1.000  C
  H17      1.0000 0.65960  0.98770  0.83300  Biso   1.000  H
  C47      1.0000 0.77060  0.10840  0.53950  Biso   1.000  C
  C48      1.0000 0.91530  0.01970  0.51510  Biso   1.000  C
  C49      1.0000 0.66440  0.25990  0.81720  Biso   1.000  C
  C50      1.0000 0.93940  0.13250  0.57030  Biso   1.000  C
  C51      1.0000 0.93570  0.26900  0.53330  Biso   1.000  C
  H18      1.0000 0.91690  0.29090  0.47830  Biso   1.000  H
  O34      1.0000 0.77610  0.22930  0.51530  Biso   1.000  O
  C52      1.0000 0.99180  0.20370  0.69940  Biso   1.000  C
  O35      1.0000 0.05000  0.25630  0.80450  Biso   1.000  O
  C53      1.0000 0.96020  0.37250  0.57850  Biso   1.000  C
  O36      1.0000 0.72290  0.66710  0.75040  Biso   1.000  O
  C54      1.0000 0.69560  0.75130  0.76790  Biso   1.000  C
  Zn7      1.0000 0.16820  0.95653  0.89104  Biso   1.000  Zn
  Zn8      1.0000 0.08224  0.25620  0.93638  Biso   1.000  Zn
  O37      1.0000 0.33700  0.27790  0.31620  Biso   1.000  O
  O38      1.0000 0.35840  0.77640  0.39560  Biso   1.000  O
  O39      1.0000 0.32770  0.61490  0.28950  Biso   1.000  O
  O40      1.0000 0.11170  0.94600  0.94830  Biso   1.000  O
  C55      1.0000 0.29870  0.09870  0.23280  Biso   1.000  C
  O41      1.0000 0.20910  0.99610  0.00120  Biso   1.000  O
  O42      1.0000 0.98150  0.94590  0.33730  Biso   1.000  O
  O43      1.0000 0.07750  0.10530  0.04410  Biso   1.000  O
  C56      1.0000 0.31330  0.85320  0.25610  Biso   1.000  C
  C57      1.0000 0.26280  0.92700  0.12360  Biso   1.000  C
  O44      1.0000 0.07670  0.44490  0.99350  Biso   1.000  O
  C58      1.0000 0.97780  0.83320  0.28890  Biso   1.000  C
  C59      1.0000 0.03320  0.89790  0.15450  Biso   1.000  C
  H19      1.0000 0.03180  0.98870  0.18120  Biso   1.000  H
  C60      1.0000 0.27030  0.06440  0.15290  Biso   1.000  C
  H20      1.0000 0.25580  0.13540  0.11790  Biso   1.000  H
  O45      1.0000 0.01520  0.39400  0.06040  Biso   1.000  O
  C61      1.0000 0.01230  0.66070  0.16220  Biso   1.000  C
  H21      1.0000 0.99640  0.59040  0.19370  Biso   1.000  H
  C62      1.0000 0.04310  0.47710  0.04150  Biso   1.000  C
  C63      1.0000 0.28510  0.82270  0.17540  Biso   1.000  C
  H22      1.0000 0.28090  0.73010  0.15500  Biso   1.000  H
  C64      1.0000 0.32030  0.99080  0.28120  Biso   1.000  C
  H23      1.0000 0.34040  0.01230  0.33300  Biso   1.000  H
  C65      1.0000 0.22940  0.89160  0.03950  Biso   1.000  C
  C66      1.0000 0.08470  0.98030  0.01510  Biso   1.000  C
  C67      1.0000 0.33560  0.74010  0.31720  Biso   1.000  C
  C68      1.0000 0.06060  0.86750  0.07030  Biso   1.000  C
  C69      1.0000 0.06430  0.73100  0.03330  Biso   1.000  C
  H24      1.0000 0.08310  0.70910  0.97830  Biso   1.000  H
  O46      1.0000 0.22390  0.77070  0.01530  Biso   1.000  O
  C70      1.0000 0.00820  0.79630  0.19940  Biso   1.000  C
  O47      1.0000 0.95000  0.74370  0.30450  Biso   1.000  O
  C71      1.0000 0.03980  0.62750  0.07850  Biso   1.000  C
  O48      1.0000 0.27710  0.33290  0.25040  Biso   1.000  O
  C72      1.0000 0.30440  0.24870  0.26790  Biso   1.000  C
