data_image0
_cell_length_a       9.2987
_cell_length_b       16.67
_cell_length_c       11.4189
_cell_angle_alpha    90
_cell_angle_beta     108.481
_cell_angle_gamma    90

_symmetry_space_group_name_H-M    "P 1"
_symmetry_int_tables_number       1

loop_
  _symmetry_equiv_pos_as_xyz
  'x, y, z'

loop_
  _atom_site_label
  _atom_site_occupancy
  _atom_site_fract_x
  _atom_site_fract_y
  _atom_site_fract_z
  _atom_site_thermal_displace_type
  _atom_site_B_iso_or_equiv
  _atom_site_type_symbol
  Zn1      1.0000 0.62127  0.09336  0.95985  Biso   1.000  Zn
  C1       1.0000 0.96330  0.90540  0.18360  Biso   1.000  C
  H1       1.0000 0.97770  0.94620  0.13300  Biso   1.000  H
  O1       1.0000 0.23150  0.90850  0.12840  Biso   1.000  O
  C2       1.0000 0.82230  0.89710  0.20040  Biso   1.000  C
  O2       1.0000 0.72680  0.00500  0.06840  Biso   1.000  O
  O3       1.0000 0.57210  0.94680  0.15690  Biso   1.000  O
  C3       1.0000 0.69660  0.95400  0.13690  Biso   1.000  C
  C4       1.0000 0.91810  0.78330  0.33170  Biso   1.000  C
  C5       1.0000 0.23360  0.86450  0.21890  Biso   1.000  C
  O4       1.0000 0.99200  0.66440  0.44750  Biso   1.000  O
  C6       1.0000 0.80080  0.83550  0.27450  Biso   1.000  C
  H2       1.0000 0.70690  0.82910  0.28610  Biso   1.000  H
  C7       1.0000 0.05750  0.79310  0.31620  Biso   1.000  C
  H3       1.0000 0.13660  0.75880  0.35620  Biso   1.000  H
  O5       1.0000 0.77350  0.71100  0.43520  Biso   1.000  O
  C8       1.0000 0.08180  0.85500  0.23990  Biso   1.000  C
  O6       1.0000 0.34500  0.82840  0.28470  Biso   1.000  O
  C9       1.0000 0.89230  0.71450  0.41070  Biso   1.000  C
  Zn2      1.0000 0.87873  0.59336  0.54015  Biso   1.000  Zn
  C10      1.0000 0.53670  0.40540  0.31640  Biso   1.000  C
  H4       1.0000 0.52230  0.44620  0.36700  Biso   1.000  H
  O7       1.0000 0.26850  0.40850  0.37160  Biso   1.000  O
  C11      1.0000 0.67770  0.39710  0.29960  Biso   1.000  C
  O8       1.0000 0.77320  0.50500  0.43160  Biso   1.000  O
  O9       1.0000 0.92790  0.44680  0.34310  Biso   1.000  O
  C12      1.0000 0.80340  0.45400  0.36310  Biso   1.000  C
  C13      1.0000 0.58190  0.28330  0.16830  Biso   1.000  C
  C14      1.0000 0.26640  0.36450  0.28110  Biso   1.000  C
  O10      1.0000 0.50800  0.16440  0.05250  Biso   1.000  O
  C15      1.0000 0.69920  0.33550  0.22550  Biso   1.000  C
  H5       1.0000 0.79310  0.32910  0.21390  Biso   1.000  H
  C16      1.0000 0.44250  0.29310  0.18380  Biso   1.000  C
  H6       1.0000 0.36340  0.25880  0.14380  Biso   1.000  H
  O11      1.0000 0.72650  0.21100  0.06480  Biso   1.000  O
  C17      1.0000 0.41820  0.35500  0.26010  Biso   1.000  C
  O12      1.0000 0.15500  0.32840  0.21530  Biso   1.000  O
  C18      1.0000 0.60770  0.21450  0.08930  Biso   1.000  C
  Zn3      1.0000 0.37873  0.90664  0.04015  Biso   1.000  Zn
  C19      1.0000 0.03670  0.09460  0.81640  Biso   1.000  C
  H7       1.0000 0.02230  0.05380  0.86700  Biso   1.000  H
  O13      1.0000 0.76850  0.09150  0.87160  Biso   1.000  O
  C20      1.0000 0.17770  0.10290  0.79960  Biso   1.000  C
  O14      1.0000 0.27320  0.99500  0.93160  Biso   1.000  O
  O15      1.0000 0.42790  0.05320  0.84310  Biso   1.000  O
  C21      1.0000 0.30340  0.04600  0.86310  Biso   1.000  C
  C22      1.0000 0.08190  0.21670  0.66830  Biso   1.000  C
  C23      1.0000 0.76640  0.13550  0.78110  Biso   1.000  C
  O16      1.0000 0.00800  0.33560  0.55250  Biso   1.000  O
  C24      1.0000 0.19920  0.16450  0.72550  Biso   1.000  C
  H8       1.0000 0.29310  0.17090  0.71390  Biso   1.000  H
  C25      1.0000 0.94250  0.20690  0.68380  Biso   1.000  C
  H9       1.0000 0.86340  0.24120  0.64380  Biso   1.000  H
  O17      1.0000 0.22650  0.28900  0.56480  Biso   1.000  O
  C26      1.0000 0.91820  0.14500  0.76010  Biso   1.000  C
  O18      1.0000 0.65500  0.17160  0.71530  Biso   1.000  O
  C27      1.0000 0.10770  0.28550  0.58930  Biso   1.000  C
  Zn4      1.0000 0.12127  0.40664  0.45985  Biso   1.000  Zn
  C28      1.0000 0.46330  0.59460  0.68360  Biso   1.000  C
  H10      1.0000 0.47770  0.55380  0.63300  Biso   1.000  H
  O19      1.0000 0.73150  0.59150  0.62840  Biso   1.000  O
  C29      1.0000 0.32230  0.60290  0.70040  Biso   1.000  C
  O20      1.0000 0.22680  0.49500  0.56840  Biso   1.000  O
  O21      1.0000 0.07210  0.55320  0.65690  Biso   1.000  O
  C30      1.0000 0.19660  0.54600  0.63690  Biso   1.000  C
  C31      1.0000 0.41810  0.71670  0.83170  Biso   1.000  C
  C32      1.0000 0.73360  0.63550  0.71890  Biso   1.000  C
  O22      1.0000 0.49200  0.83560  0.94750  Biso   1.000  O
  C33      1.0000 0.30080  0.66450  0.77450  Biso   1.000  C
  H11      1.0000 0.20690  0.67090  0.78610  Biso   1.000  H
  C34      1.0000 0.55750  0.70690  0.81620  Biso   1.000  C
  H12      1.0000 0.63660  0.74120  0.85620  Biso   1.000  H
  O23      1.0000 0.27350  0.78900  0.93520  Biso   1.000  O
  C35      1.0000 0.58180  0.64500  0.73990  Biso   1.000  C
  O24      1.0000 0.84500  0.67160  0.78470  Biso   1.000  O
  C36      1.0000 0.39230  0.78550  0.91070  Biso   1.000  C
