data_image0
_cell_length_a       27.8114
_cell_length_b       27.8114
_cell_length_c       3.6899
_cell_angle_alpha    90
_cell_angle_beta     90
_cell_angle_gamma    90

_symmetry_space_group_name_H-M    "P 1"
_symmetry_int_tables_number       1

loop_
  _symmetry_equiv_pos_as_xyz
  'x, y, z'

loop_
  _atom_site_label
  _atom_site_occupancy
  _atom_site_fract_x
  _atom_site_fract_y
  _atom_site_fract_z
  _atom_site_thermal_displace_type
  _atom_site_B_iso_or_equiv
  _atom_site_type_symbol
  Zn1      1.0000 0.28362  0.21399  0.86440  Biso   1.000  Zn
  N1       1.0000 0.25990  0.14500  0.80400  Biso   1.000  N
  C1       1.0000 0.28010  0.10800  0.95800  Biso   1.000  C
  H1       1.0000 0.31000  0.10940  0.07170  Biso   1.000  H
  N2       1.0000 0.25330  0.06730  0.93800  Biso   1.000  N
  C2       1.0000 0.21450  0.12920  0.66210  Biso   1.000  C
  O1       1.0000 0.27620  0.85870  0.60000  Biso   1.000  O
  C3       1.0000 0.17830  0.15270  0.47600  Biso   1.000  C
  H2       1.0000 0.18110  0.18520  0.42030  Biso   1.000  H
  O2       1.0000 0.34200  0.86600  0.28300  Biso   1.000  O
  C4       1.0000 0.13790  0.12690  0.37400  Biso   1.000  C
  C5       1.0000 0.10120  0.14900  0.18400  Biso   1.000  C
  H3       1.0000 0.10410  0.18140  0.12570  Biso   1.000  H
  C6       1.0000 0.06010  0.12440  0.07700  Biso   1.000  C
  H4       1.0000 0.03550  0.13960  0.95030  Biso   1.000  H
  C7       1.0000 0.05770  0.07590  0.17000  Biso   1.000  C
  H5       1.0000 0.03070  0.05820  0.10370  Biso   1.000  H
  C8       1.0000 0.09450  0.05340  0.35900  Biso   1.000  C
  H6       1.0000 0.09180  0.02090  0.41400  Biso   1.000  H
  C9       1.0000 0.13550  0.07860  0.46670  Biso   1.000  C
  C10      1.0000 0.17140  0.05450  0.65200  Biso   1.000  C
  H7       1.0000 0.16880  0.02190  0.70430  Biso   1.000  H
  C11      1.0000 0.21150  0.08070  0.75800  Biso   1.000  C
  C12      1.0000 0.24510  0.94460  0.30500  Biso   1.000  C
  H8       1.0000 0.22170  0.92330  0.38720  Biso   1.000  H
  C13      1.0000 0.29320  0.93110  0.30600  Biso   1.000  C
  C14      1.0000 0.32810  0.96300  0.18400  Biso   1.000  C
  H9       1.0000 0.36030  0.95390  0.18420  Biso   1.000  H
  C15      1.0000 0.31500  0.00840  0.06100  Biso   1.000  C
  H10      1.0000 0.33830  0.02970  0.97930  Biso   1.000  H
  C16      1.0000 0.26680  0.02190  0.06050  Biso   1.000  C
  C17      1.0000 0.23190  0.99000  0.18300  Biso   1.000  C
  H11      1.0000 0.19970  0.99910  0.18230  Biso   1.000  H
  C18      1.0000 0.30260  0.88080  0.44600  Biso   1.000  C
  O3       1.0000 0.28570  0.24660  0.38100  Biso   1.000  O
  H12      1.0000 0.30850  0.23450  0.25820  Biso   1.000  H
  O4       1.0000 0.34410  0.87650  0.61200  Biso   1.000  O
  Zn2      1.0000 0.71638  0.78601  0.86440  Biso   1.000  Zn
  N3       1.0000 0.74010  0.85500  0.80400  Biso   1.000  N
  C19      1.0000 0.71990  0.89200  0.95800  Biso   1.000  C
  H13      1.0000 0.69000  0.89060  0.07170  Biso   1.000  H
  N4       1.0000 0.74670  0.93270  0.93800  Biso   1.000  N
  C20      1.0000 0.78550  0.87080  0.66210  Biso   1.000  C
  O5       1.0000 0.72380  0.14130  0.60000  Biso   1.000  O
  C21      1.0000 0.82170  0.84730  0.47600  Biso   1.000  C
  H14      1.0000 0.81890  0.81480  0.42030  Biso   1.000  H
  O6       1.0000 0.65800  0.13400  0.28300  Biso   1.000  O
  C22      1.0000 0.86210  0.87310  0.37400  Biso   1.000  C
  C23      1.0000 0.89880  0.85100  0.18400  Biso   1.000  C
  H15      1.0000 0.89590  0.81860  0.12570  Biso   1.000  H
  C24      1.0000 0.93990  0.87560  0.07700  Biso   1.000  C
  H16      1.0000 0.96450  0.86040  0.95030  Biso   1.000  H
  C25      1.0000 0.94230  0.92410  0.17000  Biso   1.000  C
  H17      1.0000 0.96930  0.94180  0.10370  Biso   1.000  H
  C26      1.0000 0.90550  0.94660  0.35900  Biso   1.000  C
  H18      1.0000 0.90820  0.97910  0.41400  Biso   1.000  H
  C27      1.0000 0.86450  0.92140  0.46670  Biso   1.000  C
  C28      1.0000 0.82860  0.94550  0.65200  Biso   1.000  C
  H19      1.0000 0.83120  0.97810  0.70430  Biso   1.000  H
  C29      1.0000 0.78850  0.91930  0.75800  Biso   1.000  C
  C30      1.0000 0.75490  0.05540  0.30500  Biso   1.000  C
  H20      1.0000 0.77830  0.07670  0.38720  Biso   1.000  H
  C31      1.0000 0.70680  0.06890  0.30600  Biso   1.000  C
  C32      1.0000 0.67190  0.03700  0.18400  Biso   1.000  C
  H21      1.0000 0.63970  0.04610  0.18420  Biso   1.000  H
  C33      1.0000 0.68500  0.99160  0.06100  Biso   1.000  C
  H22      1.0000 0.66170  0.97030  0.97930  Biso   1.000  H
  C34      1.0000 0.73320  0.97810  0.06050  Biso   1.000  C
  C35      1.0000 0.76810  0.01000  0.18300  Biso   1.000  C
  H23      1.0000 0.80030  0.00090  0.18230  Biso   1.000  H
  C36      1.0000 0.69740  0.11920  0.44600  Biso   1.000  C
  O7       1.0000 0.71430  0.75340  0.38100  Biso   1.000  O
  H24      1.0000 0.69150  0.76550  0.25820  Biso   1.000  H
  O8       1.0000 0.65590  0.12350  0.61200  Biso   1.000  O
  Zn3      1.0000 0.71399  0.21638  0.63560  Biso   1.000  Zn
  N5       1.0000 0.64500  0.24010  0.69600  Biso   1.000  N
  C37      1.0000 0.60800  0.21990  0.54200  Biso   1.000  C
  H25      1.0000 0.60940  0.19000  0.42830  Biso   1.000  H
  N6       1.0000 0.56730  0.24670  0.56200  Biso   1.000  N
  C38      1.0000 0.62920  0.28550  0.83790  Biso   1.000  C
  O9       1.0000 0.35870  0.22380  0.90000  Biso   1.000  O
  C39      1.0000 0.65270  0.32170  0.02400  Biso   1.000  C
  H26      1.0000 0.68520  0.31890  0.07970  Biso   1.000  H
  O10      1.0000 0.36600  0.15800  0.21700  Biso   1.000  O
  C40      1.0000 0.62690  0.36210  0.12600  Biso   1.000  C
  C41      1.0000 0.64900  0.39880  0.31600  Biso   1.000  C
  H27      1.0000 0.68140  0.39590  0.37430  Biso   1.000  H
  C42      1.0000 0.62440  0.43990  0.42300  Biso   1.000  C
  H28      1.0000 0.63960  0.46450  0.54970  Biso   1.000  H
  C43      1.0000 0.57590  0.44230  0.33000  Biso   1.000  C
  H29      1.0000 0.55820  0.46930  0.39630  Biso   1.000  H
  C44      1.0000 0.55340  0.40550  0.14100  Biso   1.000  C
  H30      1.0000 0.52090  0.40820  0.08600  Biso   1.000  H
  C45      1.0000 0.57860  0.36450  0.03330  Biso   1.000  C
  C46      1.0000 0.55450  0.32860  0.84800  Biso   1.000  C
  H31      1.0000 0.52190  0.33120  0.79570  Biso   1.000  H
  C47      1.0000 0.58070  0.28850  0.74200  Biso   1.000  C
  C48      1.0000 0.44460  0.25490  0.19500  Biso   1.000  C
  H32      1.0000 0.42330  0.27830  0.11280  Biso   1.000  H
  C49      1.0000 0.43110  0.20680  0.19400  Biso   1.000  C
  C50      1.0000 0.46300  0.17190  0.31600  Biso   1.000  C
  H33      1.0000 0.45390  0.13970  0.31580  Biso   1.000  H
  C51      1.0000 0.50840  0.18500  0.43900  Biso   1.000  C
  H34      1.0000 0.52970  0.16170  0.52070  Biso   1.000  H
  C52      1.0000 0.52190  0.23320  0.43950  Biso   1.000  C
  C53      1.0000 0.49000  0.26810  0.31700  Biso   1.000  C
  H35      1.0000 0.49910  0.30030  0.31770  Biso   1.000  H
  C54      1.0000 0.38080  0.19740  0.05400  Biso   1.000  C
  O11      1.0000 0.74660  0.21430  0.11900  Biso   1.000  O
  H36      1.0000 0.73450  0.19150  0.24180  Biso   1.000  H
  O12      1.0000 0.37650  0.15590  0.88800  Biso   1.000  O
  Zn4      1.0000 0.28601  0.78362  0.63560  Biso   1.000  Zn
  N7       1.0000 0.35500  0.75990  0.69600  Biso   1.000  N
  C55      1.0000 0.39200  0.78010  0.54200  Biso   1.000  C
  H37      1.0000 0.39060  0.81000  0.42830  Biso   1.000  H
  N8       1.0000 0.43270  0.75330  0.56200  Biso   1.000  N
  C56      1.0000 0.37080  0.71450  0.83790  Biso   1.000  C
  O13      1.0000 0.64130  0.77620  0.90000  Biso   1.000  O
  C57      1.0000 0.34730  0.67830  0.02400  Biso   1.000  C
  H38      1.0000 0.31480  0.68110  0.07970  Biso   1.000  H
  O14      1.0000 0.63400  0.84200  0.21700  Biso   1.000  O
  C58      1.0000 0.37310  0.63790  0.12600  Biso   1.000  C
  C59      1.0000 0.35100  0.60120  0.31600  Biso   1.000  C
  H39      1.0000 0.31860  0.60410  0.37430  Biso   1.000  H
  C60      1.0000 0.37560  0.56010  0.42300  Biso   1.000  C
  H40      1.0000 0.36040  0.53550  0.54970  Biso   1.000  H
  C61      1.0000 0.42410  0.55770  0.33000  Biso   1.000  C
  H41      1.0000 0.44180  0.53070  0.39630  Biso   1.000  H
  C62      1.0000 0.44660  0.59450  0.14100  Biso   1.000  C
  H42      1.0000 0.47910  0.59180  0.08600  Biso   1.000  H
  C63      1.0000 0.42140  0.63550  0.03330  Biso   1.000  C
  C64      1.0000 0.44550  0.67140  0.84800  Biso   1.000  C
  H43      1.0000 0.47810  0.66880  0.79570  Biso   1.000  H
  C65      1.0000 0.41930  0.71150  0.74200  Biso   1.000  C
  C66      1.0000 0.55540  0.74510  0.19500  Biso   1.000  C
  H44      1.0000 0.57670  0.72170  0.11280  Biso   1.000  H
  C67      1.0000 0.56890  0.79320  0.19400  Biso   1.000  C
  C68      1.0000 0.53700  0.82810  0.31600  Biso   1.000  C
  H45      1.0000 0.54610  0.86030  0.31580  Biso   1.000  H
  C69      1.0000 0.49160  0.81500  0.43900  Biso   1.000  C
  H46      1.0000 0.47030  0.83830  0.52070  Biso   1.000  H
  C70      1.0000 0.47810  0.76680  0.43950  Biso   1.000  C
  C71      1.0000 0.51000  0.73190  0.31700  Biso   1.000  C
  H47      1.0000 0.50090  0.69970  0.31770  Biso   1.000  H
  C72      1.0000 0.61920  0.80260  0.05400  Biso   1.000  C
  O15      1.0000 0.25340  0.78570  0.11900  Biso   1.000  O
  H48      1.0000 0.26550  0.80850  0.24180  Biso   1.000  H
  O16      1.0000 0.62350  0.84410  0.88800  Biso   1.000  O
  Zn5      1.0000 0.78362  0.71399  0.36440  Biso   1.000  Zn
  N9       1.0000 0.75990  0.64500  0.30400  Biso   1.000  N
  C73      1.0000 0.78010  0.60800  0.45800  Biso   1.000  C
  H49      1.0000 0.81000  0.60940  0.57170  Biso   1.000  H
  N10      1.0000 0.75330  0.56730  0.43800  Biso   1.000  N
  C74      1.0000 0.71450  0.62920  0.16210  Biso   1.000  C
  O17      1.0000 0.77620  0.35870  0.10000  Biso   1.000  O
  C75      1.0000 0.67830  0.65270  0.97600  Biso   1.000  C
  H50      1.0000 0.68110  0.68520  0.92030  Biso   1.000  H
  O18      1.0000 0.84200  0.36600  0.78300  Biso   1.000  O
  C76      1.0000 0.63790  0.62690  0.87400  Biso   1.000  C
  C77      1.0000 0.60120  0.64900  0.68400  Biso   1.000  C
  H51      1.0000 0.60410  0.68140  0.62570  Biso   1.000  H
  C78      1.0000 0.56010  0.62440  0.57700  Biso   1.000  C
  H52      1.0000 0.53550  0.63960  0.45030  Biso   1.000  H
  C79      1.0000 0.55770  0.57590  0.67000  Biso   1.000  C
  H53      1.0000 0.53070  0.55820  0.60370  Biso   1.000  H
  C80      1.0000 0.59450  0.55340  0.85900  Biso   1.000  C
  H54      1.0000 0.59180  0.52090  0.91400  Biso   1.000  H
  C81      1.0000 0.63550  0.57860  0.96670  Biso   1.000  C
  C82      1.0000 0.67140  0.55450  0.15200  Biso   1.000  C
  H55      1.0000 0.66880  0.52190  0.20430  Biso   1.000  H
  C83      1.0000 0.71150  0.58070  0.25800  Biso   1.000  C
  C84      1.0000 0.74510  0.44460  0.80500  Biso   1.000  C
  H56      1.0000 0.72170  0.42330  0.88720  Biso   1.000  H
  C85      1.0000 0.79320  0.43110  0.80600  Biso   1.000  C
  C86      1.0000 0.82810  0.46300  0.68400  Biso   1.000  C
  H57      1.0000 0.86030  0.45390  0.68420  Biso   1.000  H
  C87      1.0000 0.81500  0.50840  0.56100  Biso   1.000  C
  H58      1.0000 0.83830  0.52970  0.47930  Biso   1.000  H
  C88      1.0000 0.76680  0.52190  0.56050  Biso   1.000  C
  C89      1.0000 0.73190  0.49000  0.68300  Biso   1.000  C
  H59      1.0000 0.69970  0.49910  0.68230  Biso   1.000  H
  C90      1.0000 0.80260  0.38080  0.94600  Biso   1.000  C
  O19      1.0000 0.78570  0.74660  0.88100  Biso   1.000  O
  H60      1.0000 0.80850  0.73450  0.75820  Biso   1.000  H
  O20      1.0000 0.84410  0.37650  0.11200  Biso   1.000  O
  Zn6      1.0000 0.21638  0.28601  0.36440  Biso   1.000  Zn
  N11      1.0000 0.24010  0.35500  0.30400  Biso   1.000  N
  C91      1.0000 0.21990  0.39200  0.45800  Biso   1.000  C
  H61      1.0000 0.19000  0.39060  0.57170  Biso   1.000  H
  N12      1.0000 0.24670  0.43270  0.43800  Biso   1.000  N
  C92      1.0000 0.28550  0.37080  0.16210  Biso   1.000  C
  O21      1.0000 0.22380  0.64130  0.10000  Biso   1.000  O
  C93      1.0000 0.32170  0.34730  0.97600  Biso   1.000  C
  H62      1.0000 0.31890  0.31480  0.92030  Biso   1.000  H
  O22      1.0000 0.15800  0.63400  0.78300  Biso   1.000  O
  C94      1.0000 0.36210  0.37310  0.87400  Biso   1.000  C
  C95      1.0000 0.39880  0.35100  0.68400  Biso   1.000  C
  H63      1.0000 0.39590  0.31860  0.62570  Biso   1.000  H
  C96      1.0000 0.43990  0.37560  0.57700  Biso   1.000  C
  H64      1.0000 0.46450  0.36040  0.45030  Biso   1.000  H
  C97      1.0000 0.44230  0.42410  0.67000  Biso   1.000  C
  H65      1.0000 0.46930  0.44180  0.60370  Biso   1.000  H
  C98      1.0000 0.40550  0.44660  0.85900  Biso   1.000  C
  H66      1.0000 0.40820  0.47910  0.91400  Biso   1.000  H
  C99      1.0000 0.36450  0.42140  0.96670  Biso   1.000  C
  C100     1.0000 0.32860  0.44550  0.15200  Biso   1.000  C
  H67      1.0000 0.33120  0.47810  0.20430  Biso   1.000  H
  C101     1.0000 0.28850  0.41930  0.25800  Biso   1.000  C
  C102     1.0000 0.25490  0.55540  0.80500  Biso   1.000  C
  H68      1.0000 0.27830  0.57670  0.88720  Biso   1.000  H
  C103     1.0000 0.20680  0.56890  0.80600  Biso   1.000  C
  C104     1.0000 0.17190  0.53700  0.68400  Biso   1.000  C
  H69      1.0000 0.13970  0.54610  0.68420  Biso   1.000  H
  C105     1.0000 0.18500  0.49160  0.56100  Biso   1.000  C
  H70      1.0000 0.16170  0.47030  0.47930  Biso   1.000  H
  C106     1.0000 0.23320  0.47810  0.56050  Biso   1.000  C
  C107     1.0000 0.26810  0.51000  0.68300  Biso   1.000  C
  H71      1.0000 0.30030  0.50090  0.68230  Biso   1.000  H
  C108     1.0000 0.19740  0.61920  0.94600  Biso   1.000  C
  O23      1.0000 0.21430  0.25340  0.88100  Biso   1.000  O
  H72      1.0000 0.19150  0.26550  0.75820  Biso   1.000  H
  O24      1.0000 0.15590  0.62350  0.11200  Biso   1.000  O
  Zn7      1.0000 0.21399  0.71638  0.13560  Biso   1.000  Zn
  N13      1.0000 0.14500  0.74010  0.19600  Biso   1.000  N
  C109     1.0000 0.10800  0.71990  0.04200  Biso   1.000  C
  H73      1.0000 0.10940  0.69000  0.92830  Biso   1.000  H
  N14      1.0000 0.06730  0.74670  0.06200  Biso   1.000  N
  C110     1.0000 0.12920  0.78550  0.33790  Biso   1.000  C
  O25      1.0000 0.85870  0.72380  0.40000  Biso   1.000  O
  C111     1.0000 0.15270  0.82170  0.52400  Biso   1.000  C
  H74      1.0000 0.18520  0.81890  0.57970  Biso   1.000  H
  O26      1.0000 0.86600  0.65800  0.71700  Biso   1.000  O
  C112     1.0000 0.12690  0.86210  0.62600  Biso   1.000  C
  C113     1.0000 0.14900  0.89880  0.81600  Biso   1.000  C
  H75      1.0000 0.18140  0.89590  0.87430  Biso   1.000  H
  C114     1.0000 0.12440  0.93990  0.92300  Biso   1.000  C
  H76      1.0000 0.13960  0.96450  0.04970  Biso   1.000  H
  C115     1.0000 0.07590  0.94230  0.83000  Biso   1.000  C
  H77      1.0000 0.05820  0.96930  0.89630  Biso   1.000  H
  C116     1.0000 0.05340  0.90550  0.64100  Biso   1.000  C
  H78      1.0000 0.02090  0.90820  0.58600  Biso   1.000  H
  C117     1.0000 0.07860  0.86450  0.53330  Biso   1.000  C
  C118     1.0000 0.05450  0.82860  0.34800  Biso   1.000  C
  H79      1.0000 0.02190  0.83120  0.29570  Biso   1.000  H
  C119     1.0000 0.08070  0.78850  0.24200  Biso   1.000  C
  C120     1.0000 0.94460  0.75490  0.69500  Biso   1.000  C
  H80      1.0000 0.92330  0.77830  0.61280  Biso   1.000  H
  C121     1.0000 0.93110  0.70680  0.69400  Biso   1.000  C
  C122     1.0000 0.96300  0.67190  0.81600  Biso   1.000  C
  H81      1.0000 0.95390  0.63970  0.81580  Biso   1.000  H
  C123     1.0000 0.00840  0.68500  0.93900  Biso   1.000  C
  H82      1.0000 0.02970  0.66170  0.02070  Biso   1.000  H
  C124     1.0000 0.02190  0.73320  0.93950  Biso   1.000  C
  C125     1.0000 0.99000  0.76810  0.81700  Biso   1.000  C
  H83      1.0000 0.99910  0.80030  0.81770  Biso   1.000  H
  C126     1.0000 0.88080  0.69740  0.55400  Biso   1.000  C
  O27      1.0000 0.24660  0.71430  0.61900  Biso   1.000  O
  H84      1.0000 0.23450  0.69150  0.74180  Biso   1.000  H
  O28      1.0000 0.87650  0.65590  0.38800  Biso   1.000  O
  Zn8      1.0000 0.78601  0.28362  0.13560  Biso   1.000  Zn
  N15      1.0000 0.85500  0.25990  0.19600  Biso   1.000  N
  C127     1.0000 0.89200  0.28010  0.04200  Biso   1.000  C
  H85      1.0000 0.89060  0.31000  0.92830  Biso   1.000  H
  N16      1.0000 0.93270  0.25330  0.06200  Biso   1.000  N
  C128     1.0000 0.87080  0.21450  0.33790  Biso   1.000  C
  O29      1.0000 0.14130  0.27620  0.40000  Biso   1.000  O
  C129     1.0000 0.84730  0.17830  0.52400  Biso   1.000  C
  H86      1.0000 0.81480  0.18110  0.57970  Biso   1.000  H
  O30      1.0000 0.13400  0.34200  0.71700  Biso   1.000  O
  C130     1.0000 0.87310  0.13790  0.62600  Biso   1.000  C
  C131     1.0000 0.85100  0.10120  0.81600  Biso   1.000  C
  H87      1.0000 0.81860  0.10410  0.87430  Biso   1.000  H
  C132     1.0000 0.87560  0.06010  0.92300  Biso   1.000  C
  H88      1.0000 0.86040  0.03550  0.04970  Biso   1.000  H
  C133     1.0000 0.92410  0.05770  0.83000  Biso   1.000  C
  H89      1.0000 0.94180  0.03070  0.89630  Biso   1.000  H
  C134     1.0000 0.94660  0.09450  0.64100  Biso   1.000  C
  H90      1.0000 0.97910  0.09180  0.58600  Biso   1.000  H
  C135     1.0000 0.92140  0.13550  0.53330  Biso   1.000  C
  C136     1.0000 0.94550  0.17140  0.34800  Biso   1.000  C
  H91      1.0000 0.97810  0.16880  0.29570  Biso   1.000  H
  C137     1.0000 0.91930  0.21150  0.24200  Biso   1.000  C
  C138     1.0000 0.05540  0.24510  0.69500  Biso   1.000  C
  H92      1.0000 0.07670  0.22170  0.61280  Biso   1.000  H
  C139     1.0000 0.06890  0.29320  0.69400  Biso   1.000  C
  C140     1.0000 0.03700  0.32810  0.81600  Biso   1.000  C
  H93      1.0000 0.04610  0.36030  0.81580  Biso   1.000  H
  C141     1.0000 0.99160  0.31500  0.93900  Biso   1.000  C
  H94      1.0000 0.97030  0.33830  0.02070  Biso   1.000  H
  C142     1.0000 0.97810  0.26680  0.93950  Biso   1.000  C
  C143     1.0000 0.01000  0.23190  0.81700  Biso   1.000  C
  H95      1.0000 0.00090  0.19970  0.81770  Biso   1.000  H
  C144     1.0000 0.11920  0.30260  0.55400  Biso   1.000  C
  O31      1.0000 0.75340  0.28570  0.61900  Biso   1.000  O
  H96      1.0000 0.76550  0.30850  0.74180  Biso   1.000  H
  O32      1.0000 0.12350  0.34410  0.38800  Biso   1.000  O
