data_image0
_cell_length_a       27.7471
_cell_length_b       27.7471
_cell_length_c       3.6323
_cell_angle_alpha    90
_cell_angle_beta     90
_cell_angle_gamma    90

_symmetry_space_group_name_H-M    "P 1"
_symmetry_int_tables_number       1

loop_
  _symmetry_equiv_pos_as_xyz
  'x, y, z'

loop_
  _atom_site_label
  _atom_site_occupancy
  _atom_site_fract_x
  _atom_site_fract_y
  _atom_site_fract_z
  _atom_site_thermal_displace_type
  _atom_site_B_iso_or_equiv
  _atom_site_type_symbol
  Zn1      1.0000 0.28404  0.21392  0.85730  Biso   1.000  Zn
  N1       1.0000 0.25930  0.14540  0.78900  Biso   1.000  N
  C1       1.0000 0.27990  0.10850  0.94600  Biso   1.000  C
  H1       1.0000 0.30990  0.11040  0.05860  Biso   1.000  H
  N2       1.0000 0.25370  0.06720  0.93100  Biso   1.000  N
  C2       1.0000 0.21530  0.12900  0.65670  Biso   1.000  C
  O1       1.0000 0.27450  0.85880  0.60400  Biso   1.000  O
  C3       1.0000 0.17900  0.15280  0.46900  Biso   1.000  C
  H2       1.0000 0.18200  0.18530  0.41180  Biso   1.000  H
  O2       1.0000 0.34040  0.86190  0.27700  Biso   1.000  O
  C4       1.0000 0.13820  0.12740  0.36910  Biso   1.000  C
  C5       1.0000 0.10080  0.14890  0.17800  Biso   1.000  C
  H3       1.0000 0.10340  0.18130  0.11790  Biso   1.000  H
  C6       1.0000 0.05980  0.12410  0.07400  Biso   1.000  C
  H4       1.0000 0.03520  0.13940  0.94480  Biso   1.000  H
  C7       1.0000 0.05650  0.07580  0.16800  Biso   1.000  C
  H5       1.0000 0.02930  0.05820  0.10400  Biso   1.000  H
  C8       1.0000 0.09370  0.05370  0.35700  Biso   1.000  C
  H6       1.0000 0.09110  0.02120  0.41590  Biso   1.000  H
  C9       1.0000 0.13500  0.07880  0.46180  Biso   1.000  C
  C10      1.0000 0.17110  0.05520  0.64900  Biso   1.000  C
  H7       1.0000 0.16810  0.02270  0.70730  Biso   1.000  H
  C11      1.0000 0.21180  0.08050  0.74800  Biso   1.000  C
  C12      1.0000 0.24490  0.94540  0.31000  Biso   1.000  C
  H8       1.0000 0.22110  0.92460  0.39440  Biso   1.000  H
  C13      1.0000 0.29290  0.93100  0.31300  Biso   1.000  C
  C14      1.0000 0.32850  0.96210  0.18600  Biso   1.000  C
  H9       1.0000 0.36060  0.95250  0.18820  Biso   1.000  H
  C15      1.0000 0.31610  0.00760  0.05700  Biso   1.000  C
  H10      1.0000 0.33990  0.02850  0.97240  Biso   1.000  H
  C16      1.0000 0.26810  0.02200  0.05400  Biso   1.000  C
  C17      1.0000 0.23250  0.99090  0.18000  Biso   1.000  C
  H11      1.0000 0.20040  0.00050  0.17860  Biso   1.000  H
  C18      1.0000 0.30300  0.88040  0.44900  Biso   1.000  C
  O3       1.0000 0.28530  0.24690  0.36800  Biso   1.000  O
  H12      1.0000 0.30830  0.23470  0.24400  Biso   1.000  H
  O4       1.0000 0.34320  0.87300  0.63200  Biso   1.000  O
  Zn2      1.0000 0.71596  0.78608  0.85730  Biso   1.000  Zn
  N3       1.0000 0.74070  0.85460  0.78900  Biso   1.000  N
  C19      1.0000 0.72010  0.89150  0.94600  Biso   1.000  C
  H13      1.0000 0.69010  0.88960  0.05860  Biso   1.000  H
  N4       1.0000 0.74630  0.93280  0.93100  Biso   1.000  N
  C20      1.0000 0.78470  0.87100  0.65670  Biso   1.000  C
  O5       1.0000 0.72550  0.14120  0.60400  Biso   1.000  O
  C21      1.0000 0.82100  0.84720  0.46900  Biso   1.000  C
  H14      1.0000 0.81800  0.81470  0.41180  Biso   1.000  H
  O6       1.0000 0.65960  0.13810  0.27700  Biso   1.000  O
  C22      1.0000 0.86180  0.87260  0.36910  Biso   1.000  C
  C23      1.0000 0.89920  0.85110  0.17800  Biso   1.000  C
  H15      1.0000 0.89660  0.81870  0.11790  Biso   1.000  H
  C24      1.0000 0.94020  0.87590  0.07400  Biso   1.000  C
  H16      1.0000 0.96480  0.86060  0.94480  Biso   1.000  H
  C25      1.0000 0.94350  0.92420  0.16800  Biso   1.000  C
  H17      1.0000 0.97070  0.94180  0.10400  Biso   1.000  H
  C26      1.0000 0.90630  0.94630  0.35700  Biso   1.000  C
  H18      1.0000 0.90890  0.97880  0.41590  Biso   1.000  H
  C27      1.0000 0.86500  0.92120  0.46180  Biso   1.000  C
  C28      1.0000 0.82890  0.94480  0.64900  Biso   1.000  C
  H19      1.0000 0.83190  0.97730  0.70730  Biso   1.000  H
  C29      1.0000 0.78820  0.91950  0.74800  Biso   1.000  C
  C30      1.0000 0.75510  0.05460  0.31000  Biso   1.000  C
  H20      1.0000 0.77890  0.07540  0.39440  Biso   1.000  H
  C31      1.0000 0.70710  0.06900  0.31300  Biso   1.000  C
  C32      1.0000 0.67150  0.03790  0.18600  Biso   1.000  C
  H21      1.0000 0.63940  0.04750  0.18820  Biso   1.000  H
  C33      1.0000 0.68390  0.99240  0.05700  Biso   1.000  C
  H22      1.0000 0.66010  0.97150  0.97240  Biso   1.000  H
  C34      1.0000 0.73190  0.97800  0.05400  Biso   1.000  C
  C35      1.0000 0.76750  0.00910  0.18000  Biso   1.000  C
  H23      1.0000 0.79960  0.99950  0.17860  Biso   1.000  H
  C36      1.0000 0.69700  0.11960  0.44900  Biso   1.000  C
  O7       1.0000 0.71470  0.75310  0.36800  Biso   1.000  O
  H24      1.0000 0.69170  0.76530  0.24400  Biso   1.000  H
  O8       1.0000 0.65680  0.12700  0.63200  Biso   1.000  O
  Zn3      1.0000 0.71392  0.21596  0.64270  Biso   1.000  Zn
  N5       1.0000 0.64540  0.24070  0.71100  Biso   1.000  N
  C37      1.0000 0.60850  0.22010  0.55400  Biso   1.000  C
  H25      1.0000 0.61040  0.19010  0.44140  Biso   1.000  H
  N6       1.0000 0.56720  0.24630  0.56900  Biso   1.000  N
  C38      1.0000 0.62900  0.28470  0.84330  Biso   1.000  C
  O9       1.0000 0.35880  0.22550  0.89600  Biso   1.000  O
  C39      1.0000 0.65280  0.32100  0.03100  Biso   1.000  C
  H26      1.0000 0.68530  0.31800  0.08820  Biso   1.000  H
  O10      1.0000 0.36190  0.15960  0.22300  Biso   1.000  O
  C40      1.0000 0.62740  0.36180  0.13090  Biso   1.000  C
  C41      1.0000 0.64890  0.39920  0.32200  Biso   1.000  C
  H27      1.0000 0.68130  0.39660  0.38210  Biso   1.000  H
  C42      1.0000 0.62410  0.44020  0.42600  Biso   1.000  C
  H28      1.0000 0.63940  0.46480  0.55520  Biso   1.000  H
  C43      1.0000 0.57580  0.44350  0.33200  Biso   1.000  C
  H29      1.0000 0.55820  0.47070  0.39600  Biso   1.000  H
  C44      1.0000 0.55370  0.40630  0.14300  Biso   1.000  C
  H30      1.0000 0.52120  0.40890  0.08410  Biso   1.000  H
  C45      1.0000 0.57880  0.36500  0.03820  Biso   1.000  C
  C46      1.0000 0.55520  0.32890  0.85100  Biso   1.000  C
  H31      1.0000 0.52270  0.33190  0.79270  Biso   1.000  H
  C47      1.0000 0.58050  0.28820  0.75200  Biso   1.000  C
  C48      1.0000 0.44540  0.25510  0.19000  Biso   1.000  C
  H32      1.0000 0.42460  0.27890  0.10560  Biso   1.000  H
  C49      1.0000 0.43100  0.20710  0.18700  Biso   1.000  C
  C50      1.0000 0.46210  0.17150  0.31400  Biso   1.000  C
  H33      1.0000 0.45250  0.13940  0.31180  Biso   1.000  H
  C51      1.0000 0.50760  0.18390  0.44300  Biso   1.000  C
  H34      1.0000 0.52850  0.16010  0.52760  Biso   1.000  H
  C52      1.0000 0.52200  0.23190  0.44600  Biso   1.000  C
  C53      1.0000 0.49090  0.26750  0.32000  Biso   1.000  C
  H35      1.0000 0.50050  0.29960  0.32140  Biso   1.000  H
  C54      1.0000 0.38040  0.19700  0.05100  Biso   1.000  C
  O11      1.0000 0.74690  0.21470  0.13200  Biso   1.000  O
  H36      1.0000 0.73470  0.19170  0.25600  Biso   1.000  H
  O12      1.0000 0.37300  0.15680  0.86800  Biso   1.000  O
  Zn4      1.0000 0.28608  0.78404  0.64270  Biso   1.000  Zn
  N7       1.0000 0.35460  0.75930  0.71100  Biso   1.000  N
  C55      1.0000 0.39150  0.77990  0.55400  Biso   1.000  C
  H37      1.0000 0.38960  0.80990  0.44140  Biso   1.000  H
  N8       1.0000 0.43280  0.75370  0.56900  Biso   1.000  N
  C56      1.0000 0.37100  0.71530  0.84330  Biso   1.000  C
  O13      1.0000 0.64120  0.77450  0.89600  Biso   1.000  O
  C57      1.0000 0.34720  0.67900  0.03100  Biso   1.000  C
  H38      1.0000 0.31470  0.68200  0.08820  Biso   1.000  H
  O14      1.0000 0.63810  0.84040  0.22300  Biso   1.000  O
  C58      1.0000 0.37260  0.63820  0.13090  Biso   1.000  C
  C59      1.0000 0.35110  0.60080  0.32200  Biso   1.000  C
  H39      1.0000 0.31870  0.60340  0.38210  Biso   1.000  H
  C60      1.0000 0.37590  0.55980  0.42600  Biso   1.000  C
  H40      1.0000 0.36060  0.53520  0.55520  Biso   1.000  H
  C61      1.0000 0.42420  0.55650  0.33200  Biso   1.000  C
  H41      1.0000 0.44180  0.52930  0.39600  Biso   1.000  H
  C62      1.0000 0.44630  0.59370  0.14300  Biso   1.000  C
  H42      1.0000 0.47880  0.59110  0.08410  Biso   1.000  H
  C63      1.0000 0.42120  0.63500  0.03820  Biso   1.000  C
  C64      1.0000 0.44480  0.67110  0.85100  Biso   1.000  C
  H43      1.0000 0.47730  0.66810  0.79270  Biso   1.000  H
  C65      1.0000 0.41950  0.71180  0.75200  Biso   1.000  C
  C66      1.0000 0.55460  0.74490  0.19000  Biso   1.000  C
  H44      1.0000 0.57540  0.72110  0.10560  Biso   1.000  H
  C67      1.0000 0.56900  0.79290  0.18700  Biso   1.000  C
  C68      1.0000 0.53790  0.82850  0.31400  Biso   1.000  C
  H45      1.0000 0.54750  0.86060  0.31180  Biso   1.000  H
  C69      1.0000 0.49240  0.81610  0.44300  Biso   1.000  C
  H46      1.0000 0.47150  0.83990  0.52760  Biso   1.000  H
  C70      1.0000 0.47800  0.76810  0.44600  Biso   1.000  C
  C71      1.0000 0.50910  0.73250  0.32000  Biso   1.000  C
  H47      1.0000 0.49950  0.70040  0.32140  Biso   1.000  H
  C72      1.0000 0.61960  0.80300  0.05100  Biso   1.000  C
  O15      1.0000 0.25310  0.78530  0.13200  Biso   1.000  O
  H48      1.0000 0.26530  0.80830  0.25600  Biso   1.000  H
  O16      1.0000 0.62700  0.84320  0.86800  Biso   1.000  O
  Zn5      1.0000 0.78404  0.71392  0.35730  Biso   1.000  Zn
  N9       1.0000 0.75930  0.64540  0.28900  Biso   1.000  N
  C73      1.0000 0.77990  0.60850  0.44600  Biso   1.000  C
  H49      1.0000 0.80990  0.61040  0.55860  Biso   1.000  H
  N10      1.0000 0.75370  0.56720  0.43100  Biso   1.000  N
  C74      1.0000 0.71530  0.62900  0.15670  Biso   1.000  C
  O17      1.0000 0.77450  0.35880  0.10400  Biso   1.000  O
  C75      1.0000 0.67900  0.65280  0.96900  Biso   1.000  C
  H50      1.0000 0.68200  0.68530  0.91180  Biso   1.000  H
  O18      1.0000 0.84040  0.36190  0.77700  Biso   1.000  O
  C76      1.0000 0.63820  0.62740  0.86910  Biso   1.000  C
  C77      1.0000 0.60080  0.64890  0.67800  Biso   1.000  C
  H51      1.0000 0.60340  0.68130  0.61790  Biso   1.000  H
  C78      1.0000 0.55980  0.62410  0.57400  Biso   1.000  C
  H52      1.0000 0.53520  0.63940  0.44480  Biso   1.000  H
  C79      1.0000 0.55650  0.57580  0.66800  Biso   1.000  C
  H53      1.0000 0.52930  0.55820  0.60400  Biso   1.000  H
  C80      1.0000 0.59370  0.55370  0.85700  Biso   1.000  C
  H54      1.0000 0.59110  0.52120  0.91590  Biso   1.000  H
  C81      1.0000 0.63500  0.57880  0.96180  Biso   1.000  C
  C82      1.0000 0.67110  0.55520  0.14900  Biso   1.000  C
  H55      1.0000 0.66810  0.52270  0.20730  Biso   1.000  H
  C83      1.0000 0.71180  0.58050  0.24800  Biso   1.000  C
  C84      1.0000 0.74490  0.44540  0.81000  Biso   1.000  C
  H56      1.0000 0.72110  0.42460  0.89440  Biso   1.000  H
  C85      1.0000 0.79290  0.43100  0.81300  Biso   1.000  C
  C86      1.0000 0.82850  0.46210  0.68600  Biso   1.000  C
  H57      1.0000 0.86060  0.45250  0.68820  Biso   1.000  H
  C87      1.0000 0.81610  0.50760  0.55700  Biso   1.000  C
  H58      1.0000 0.83990  0.52850  0.47240  Biso   1.000  H
  C88      1.0000 0.76810  0.52200  0.55400  Biso   1.000  C
  C89      1.0000 0.73250  0.49090  0.68000  Biso   1.000  C
  H59      1.0000 0.70040  0.50050  0.67860  Biso   1.000  H
  C90      1.0000 0.80300  0.38040  0.94900  Biso   1.000  C
  O19      1.0000 0.78530  0.74690  0.86800  Biso   1.000  O
  H60      1.0000 0.80830  0.73470  0.74400  Biso   1.000  H
  O20      1.0000 0.84320  0.37300  0.13200  Biso   1.000  O
  Zn6      1.0000 0.21596  0.28608  0.35730  Biso   1.000  Zn
  N11      1.0000 0.24070  0.35460  0.28900  Biso   1.000  N
  C91      1.0000 0.22010  0.39150  0.44600  Biso   1.000  C
  H61      1.0000 0.19010  0.38960  0.55860  Biso   1.000  H
  N12      1.0000 0.24630  0.43280  0.43100  Biso   1.000  N
  C92      1.0000 0.28470  0.37100  0.15670  Biso   1.000  C
  O21      1.0000 0.22550  0.64120  0.10400  Biso   1.000  O
  C93      1.0000 0.32100  0.34720  0.96900  Biso   1.000  C
  H62      1.0000 0.31800  0.31470  0.91180  Biso   1.000  H
  O22      1.0000 0.15960  0.63810  0.77700  Biso   1.000  O
  C94      1.0000 0.36180  0.37260  0.86910  Biso   1.000  C
  C95      1.0000 0.39920  0.35110  0.67800  Biso   1.000  C
  H63      1.0000 0.39660  0.31870  0.61790  Biso   1.000  H
  C96      1.0000 0.44020  0.37590  0.57400  Biso   1.000  C
  H64      1.0000 0.46480  0.36060  0.44480  Biso   1.000  H
  C97      1.0000 0.44350  0.42420  0.66800  Biso   1.000  C
  H65      1.0000 0.47070  0.44180  0.60400  Biso   1.000  H
  C98      1.0000 0.40630  0.44630  0.85700  Biso   1.000  C
  H66      1.0000 0.40890  0.47880  0.91590  Biso   1.000  H
  C99      1.0000 0.36500  0.42120  0.96180  Biso   1.000  C
  C100     1.0000 0.32890  0.44480  0.14900  Biso   1.000  C
  H67      1.0000 0.33190  0.47730  0.20730  Biso   1.000  H
  C101     1.0000 0.28820  0.41950  0.24800  Biso   1.000  C
  C102     1.0000 0.25510  0.55460  0.81000  Biso   1.000  C
  H68      1.0000 0.27890  0.57540  0.89440  Biso   1.000  H
  C103     1.0000 0.20710  0.56900  0.81300  Biso   1.000  C
  C104     1.0000 0.17150  0.53790  0.68600  Biso   1.000  C
  H69      1.0000 0.13940  0.54750  0.68820  Biso   1.000  H
  C105     1.0000 0.18390  0.49240  0.55700  Biso   1.000  C
  H70      1.0000 0.16010  0.47150  0.47240  Biso   1.000  H
  C106     1.0000 0.23190  0.47800  0.55400  Biso   1.000  C
  C107     1.0000 0.26750  0.50910  0.68000  Biso   1.000  C
  H71      1.0000 0.29960  0.49950  0.67860  Biso   1.000  H
  C108     1.0000 0.19700  0.61960  0.94900  Biso   1.000  C
  O23      1.0000 0.21470  0.25310  0.86800  Biso   1.000  O
  H72      1.0000 0.19170  0.26530  0.74400  Biso   1.000  H
  O24      1.0000 0.15680  0.62700  0.13200  Biso   1.000  O
  Zn7      1.0000 0.21392  0.71596  0.14270  Biso   1.000  Zn
  N13      1.0000 0.14540  0.74070  0.21100  Biso   1.000  N
  C109     1.0000 0.10850  0.72010  0.05400  Biso   1.000  C
  H73      1.0000 0.11040  0.69010  0.94140  Biso   1.000  H
  N14      1.0000 0.06720  0.74630  0.06900  Biso   1.000  N
  C110     1.0000 0.12900  0.78470  0.34330  Biso   1.000  C
  O25      1.0000 0.85880  0.72550  0.39600  Biso   1.000  O
  C111     1.0000 0.15280  0.82100  0.53100  Biso   1.000  C
  H74      1.0000 0.18530  0.81800  0.58820  Biso   1.000  H
  O26      1.0000 0.86190  0.65960  0.72300  Biso   1.000  O
  C112     1.0000 0.12740  0.86180  0.63090  Biso   1.000  C
  C113     1.0000 0.14890  0.89920  0.82200  Biso   1.000  C
  H75      1.0000 0.18130  0.89660  0.88210  Biso   1.000  H
  C114     1.0000 0.12410  0.94020  0.92600  Biso   1.000  C
  H76      1.0000 0.13940  0.96480  0.05520  Biso   1.000  H
  C115     1.0000 0.07580  0.94350  0.83200  Biso   1.000  C
  H77      1.0000 0.05820  0.97070  0.89600  Biso   1.000  H
  C116     1.0000 0.05370  0.90630  0.64300  Biso   1.000  C
  H78      1.0000 0.02120  0.90890  0.58410  Biso   1.000  H
  C117     1.0000 0.07880  0.86500  0.53820  Biso   1.000  C
  C118     1.0000 0.05520  0.82890  0.35100  Biso   1.000  C
  H79      1.0000 0.02270  0.83190  0.29270  Biso   1.000  H
  C119     1.0000 0.08050  0.78820  0.25200  Biso   1.000  C
  C120     1.0000 0.94540  0.75510  0.69000  Biso   1.000  C
  H80      1.0000 0.92460  0.77890  0.60560  Biso   1.000  H
  C121     1.0000 0.93100  0.70710  0.68700  Biso   1.000  C
  C122     1.0000 0.96210  0.67150  0.81400  Biso   1.000  C
  H81      1.0000 0.95250  0.63940  0.81180  Biso   1.000  H
  C123     1.0000 0.00760  0.68390  0.94300  Biso   1.000  C
  H82      1.0000 0.02850  0.66010  0.02760  Biso   1.000  H
  C124     1.0000 0.02200  0.73190  0.94600  Biso   1.000  C
  C125     1.0000 0.99090  0.76750  0.82000  Biso   1.000  C
  H83      1.0000 0.00050  0.79960  0.82140  Biso   1.000  H
  C126     1.0000 0.88040  0.69700  0.55100  Biso   1.000  C
  O27      1.0000 0.24690  0.71470  0.63200  Biso   1.000  O
  H84      1.0000 0.23470  0.69170  0.75600  Biso   1.000  H
  O28      1.0000 0.87300  0.65680  0.36800  Biso   1.000  O
  Zn8      1.0000 0.78608  0.28404  0.14270  Biso   1.000  Zn
  N15      1.0000 0.85460  0.25930  0.21100  Biso   1.000  N
  C127     1.0000 0.89150  0.27990  0.05400  Biso   1.000  C
  H85      1.0000 0.88960  0.30990  0.94140  Biso   1.000  H
  N16      1.0000 0.93280  0.25370  0.06900  Biso   1.000  N
  C128     1.0000 0.87100  0.21530  0.34330  Biso   1.000  C
  O29      1.0000 0.14120  0.27450  0.39600  Biso   1.000  O
  C129     1.0000 0.84720  0.17900  0.53100  Biso   1.000  C
  H86      1.0000 0.81470  0.18200  0.58820  Biso   1.000  H
  O30      1.0000 0.13810  0.34040  0.72300  Biso   1.000  O
  C130     1.0000 0.87260  0.13820  0.63090  Biso   1.000  C
  C131     1.0000 0.85110  0.10080  0.82200  Biso   1.000  C
  H87      1.0000 0.81870  0.10340  0.88210  Biso   1.000  H
  C132     1.0000 0.87590  0.05980  0.92600  Biso   1.000  C
  H88      1.0000 0.86060  0.03520  0.05520  Biso   1.000  H
  C133     1.0000 0.92420  0.05650  0.83200  Biso   1.000  C
  H89      1.0000 0.94180  0.02930  0.89600  Biso   1.000  H
  C134     1.0000 0.94630  0.09370  0.64300  Biso   1.000  C
  H90      1.0000 0.97880  0.09110  0.58410  Biso   1.000  H
  C135     1.0000 0.92120  0.13500  0.53820  Biso   1.000  C
  C136     1.0000 0.94480  0.17110  0.35100  Biso   1.000  C
  H91      1.0000 0.97730  0.16810  0.29270  Biso   1.000  H
  C137     1.0000 0.91950  0.21180  0.25200  Biso   1.000  C
  C138     1.0000 0.05460  0.24490  0.69000  Biso   1.000  C
  H92      1.0000 0.07540  0.22110  0.60560  Biso   1.000  H
  C139     1.0000 0.06900  0.29290  0.68700  Biso   1.000  C
  C140     1.0000 0.03790  0.32850  0.81400  Biso   1.000  C
  H93      1.0000 0.04750  0.36060  0.81180  Biso   1.000  H
  C141     1.0000 0.99240  0.31610  0.94300  Biso   1.000  C
  H94      1.0000 0.97150  0.33990  0.02760  Biso   1.000  H
  C142     1.0000 0.97800  0.26810  0.94600  Biso   1.000  C
  C143     1.0000 0.00910  0.23250  0.82000  Biso   1.000  C
  H95      1.0000 0.99950  0.20040  0.82140  Biso   1.000  H
  C144     1.0000 0.11960  0.30300  0.55100  Biso   1.000  C
  O31      1.0000 0.75310  0.28530  0.63200  Biso   1.000  O
  H96      1.0000 0.76530  0.30830  0.75600  Biso   1.000  H
  O32      1.0000 0.12700  0.34320  0.36800  Biso   1.000  O
