data_image0
_cell_length_a       27.7529
_cell_length_b       27.7529
_cell_length_c       3.6022
_cell_angle_alpha    90
_cell_angle_beta     90
_cell_angle_gamma    90

_symmetry_space_group_name_H-M    "P 1"
_symmetry_int_tables_number       1

loop_
  _symmetry_equiv_pos_as_xyz
  'x, y, z'

loop_
  _atom_site_label
  _atom_site_occupancy
  _atom_site_fract_x
  _atom_site_fract_y
  _atom_site_fract_z
  _atom_site_thermal_displace_type
  _atom_site_B_iso_or_equiv
  _atom_site_type_symbol
  Zn1      1.0000 0.28445  0.21407  0.85190  Biso   1.000  Zn
  N1       1.0000 0.25890  0.14510  0.78800  Biso   1.000  N
  C1       1.0000 0.28100  0.10900  0.94600  Biso   1.000  C
  H1       1.0000 0.31120  0.11110  0.05610  Biso   1.000  H
  N2       1.0000 0.25430  0.06800  0.92900  Biso   1.000  N
  C2       1.0000 0.21490  0.12980  0.65500  Biso   1.000  C
  O1       1.0000 0.27350  0.85850  0.60100  Biso   1.000  O
  C3       1.0000 0.17820  0.15320  0.46900  Biso   1.000  C
  H2       1.0000 0.18070  0.18570  0.41000  Biso   1.000  H
  O2       1.0000 0.33830  0.86160  0.25900  Biso   1.000  O
  C4       1.0000 0.13740  0.12700  0.37300  Biso   1.000  C
  C5       1.0000 0.09990  0.14880  0.18500  Biso   1.000  C
  H3       1.0000 0.10230  0.18130  0.12540  Biso   1.000  H
  C6       1.0000 0.05870  0.12370  0.08100  Biso   1.000  C
  H4       1.0000 0.03380  0.13890  0.95430  Biso   1.000  H
  C7       1.0000 0.05610  0.07510  0.17500  Biso   1.000  C
  H5       1.0000 0.02890  0.05750  0.11000  Biso   1.000  H
  C8       1.0000 0.09340  0.05260  0.36300  Biso   1.000  C
  H6       1.0000 0.09080  0.02000  0.42230  Biso   1.000  H
  C9       1.0000 0.13480  0.07810  0.46600  Biso   1.000  C
  C10      1.0000 0.17160  0.05420  0.65200  Biso   1.000  C
  H7       1.0000 0.16880  0.02190  0.71660  Biso   1.000  H
  C11      1.0000 0.21270  0.08050  0.73700  Biso   1.000  C
  C12      1.0000 0.24510  0.94490  0.30900  Biso   1.000  C
  H8       1.0000 0.22150  0.92380  0.39460  Biso   1.000  H
  C13      1.0000 0.29320  0.93110  0.31300  Biso   1.000  C
  C14      1.0000 0.32850  0.96270  0.18500  Biso   1.000  C
  H9       1.0000 0.36070  0.95340  0.18750  Biso   1.000  H
  C15      1.0000 0.31550  0.00800  0.05500  Biso   1.000  C
  H10      1.0000 0.33910  0.02910  0.96940  Biso   1.000  H
  C16      1.0000 0.26740  0.02180  0.05100  Biso   1.000  C
  C17      1.0000 0.23220  0.99020  0.17900  Biso   1.000  C
  H11      1.0000 0.19990  0.99940  0.17650  Biso   1.000  H
  C18      1.0000 0.30130  0.87970  0.44000  Biso   1.000  C
  O3       1.0000 0.28470  0.24610  0.36100  Biso   1.000  O
  H12      1.0000 0.30770  0.23390  0.23710  Biso   1.000  H
  O4       1.0000 0.34070  0.87900  0.64100  Biso   1.000  O
  Zn2      1.0000 0.71555  0.78593  0.85190  Biso   1.000  Zn
  N3       1.0000 0.74110  0.85490  0.78800  Biso   1.000  N
  C19      1.0000 0.71900  0.89100  0.94600  Biso   1.000  C
  H13      1.0000 0.68880  0.88890  0.05610  Biso   1.000  H
  N4       1.0000 0.74570  0.93200  0.92900  Biso   1.000  N
  C20      1.0000 0.78510  0.87020  0.65500  Biso   1.000  C
  O5       1.0000 0.72650  0.14150  0.60100  Biso   1.000  O
  C21      1.0000 0.82180  0.84680  0.46900  Biso   1.000  C
  H14      1.0000 0.81930  0.81430  0.41000  Biso   1.000  H
  O6       1.0000 0.66170  0.13840  0.25900  Biso   1.000  O
  C22      1.0000 0.86260  0.87300  0.37300  Biso   1.000  C
  C23      1.0000 0.90010  0.85120  0.18500  Biso   1.000  C
  H15      1.0000 0.89770  0.81870  0.12540  Biso   1.000  H
  C24      1.0000 0.94130  0.87630  0.08100  Biso   1.000  C
  H16      1.0000 0.96620  0.86110  0.95430  Biso   1.000  H
  C25      1.0000 0.94390  0.92490  0.17500  Biso   1.000  C
  H17      1.0000 0.97110  0.94250  0.11000  Biso   1.000  H
  C26      1.0000 0.90660  0.94740  0.36300  Biso   1.000  C
  H18      1.0000 0.90920  0.98000  0.42230  Biso   1.000  H
  C27      1.0000 0.86520  0.92190  0.46600  Biso   1.000  C
  C28      1.0000 0.82840  0.94580  0.65200  Biso   1.000  C
  H19      1.0000 0.83120  0.97810  0.71660  Biso   1.000  H
  C29      1.0000 0.78730  0.91950  0.73700  Biso   1.000  C
  C30      1.0000 0.75490  0.05510  0.30900  Biso   1.000  C
  H20      1.0000 0.77850  0.07620  0.39460  Biso   1.000  H
  C31      1.0000 0.70680  0.06890  0.31300  Biso   1.000  C
  C32      1.0000 0.67150  0.03730  0.18500  Biso   1.000  C
  H21      1.0000 0.63930  0.04660  0.18750  Biso   1.000  H
  C33      1.0000 0.68450  0.99200  0.05500  Biso   1.000  C
  H22      1.0000 0.66090  0.97090  0.96940  Biso   1.000  H
  C34      1.0000 0.73260  0.97820  0.05100  Biso   1.000  C
  C35      1.0000 0.76780  0.00980  0.17900  Biso   1.000  C
  H23      1.0000 0.80010  0.00060  0.17650  Biso   1.000  H
  C36      1.0000 0.69870  0.12030  0.44000  Biso   1.000  C
  O7       1.0000 0.71530  0.75390  0.36100  Biso   1.000  O
  H24      1.0000 0.69230  0.76610  0.23710  Biso   1.000  H
  O8       1.0000 0.65930  0.12100  0.64100  Biso   1.000  O
  Zn3      1.0000 0.71407  0.21555  0.64810  Biso   1.000  Zn
  N5       1.0000 0.64510  0.24110  0.71200  Biso   1.000  N
  C37      1.0000 0.60900  0.21900  0.55400  Biso   1.000  C
  H25      1.0000 0.61110  0.18880  0.44390  Biso   1.000  H
  N6       1.0000 0.56800  0.24570  0.57100  Biso   1.000  N
  C38      1.0000 0.62980  0.28510  0.84500  Biso   1.000  C
  O9       1.0000 0.35850  0.22650  0.89900  Biso   1.000  O
  C39      1.0000 0.65320  0.32180  0.03100  Biso   1.000  C
  H26      1.0000 0.68570  0.31930  0.09000  Biso   1.000  H
  O10      1.0000 0.36160  0.16170  0.24100  Biso   1.000  O
  C40      1.0000 0.62700  0.36260  0.12700  Biso   1.000  C
  C41      1.0000 0.64880  0.40010  0.31500  Biso   1.000  C
  H27      1.0000 0.68130  0.39770  0.37460  Biso   1.000  H
  C42      1.0000 0.62370  0.44130  0.41900  Biso   1.000  C
  H28      1.0000 0.63890  0.46620  0.54570  Biso   1.000  H
  C43      1.0000 0.57510  0.44390  0.32500  Biso   1.000  C
  H29      1.0000 0.55750  0.47110  0.39000  Biso   1.000  H
  C44      1.0000 0.55260  0.40660  0.13700  Biso   1.000  C
  H30      1.0000 0.52000  0.40920  0.07770  Biso   1.000  H
  C45      1.0000 0.57810  0.36520  0.03400  Biso   1.000  C
  C46      1.0000 0.55420  0.32840  0.84800  Biso   1.000  C
  H31      1.0000 0.52190  0.33120  0.78340  Biso   1.000  H
  C47      1.0000 0.58050  0.28730  0.76300  Biso   1.000  C
  C48      1.0000 0.44490  0.25490  0.19100  Biso   1.000  C
  H32      1.0000 0.42380  0.27850  0.10540  Biso   1.000  H
  C49      1.0000 0.43110  0.20680  0.18700  Biso   1.000  C
  C50      1.0000 0.46270  0.17150  0.31500  Biso   1.000  C
  H33      1.0000 0.45340  0.13930  0.31250  Biso   1.000  H
  C51      1.0000 0.50800  0.18450  0.44500  Biso   1.000  C
  H34      1.0000 0.52910  0.16090  0.53060  Biso   1.000  H
  C52      1.0000 0.52180  0.23260  0.44900  Biso   1.000  C
  C53      1.0000 0.49020  0.26780  0.32100  Biso   1.000  C
  H35      1.0000 0.49940  0.30010  0.32350  Biso   1.000  H
  C54      1.0000 0.37970  0.19870  0.06000  Biso   1.000  C
  O11      1.0000 0.74610  0.21530  0.13900  Biso   1.000  O
  H36      1.0000 0.73390  0.19230  0.26290  Biso   1.000  H
  O12      1.0000 0.37900  0.15930  0.85900  Biso   1.000  O
  Zn4      1.0000 0.28593  0.78445  0.64810  Biso   1.000  Zn
  N7       1.0000 0.35490  0.75890  0.71200  Biso   1.000  N
  C55      1.0000 0.39100  0.78100  0.55400  Biso   1.000  C
  H37      1.0000 0.38890  0.81120  0.44390  Biso   1.000  H
  N8       1.0000 0.43200  0.75430  0.57100  Biso   1.000  N
  C56      1.0000 0.37020  0.71490  0.84500  Biso   1.000  C
  O13      1.0000 0.64150  0.77350  0.89900  Biso   1.000  O
  C57      1.0000 0.34680  0.67820  0.03100  Biso   1.000  C
  H38      1.0000 0.31430  0.68070  0.09000  Biso   1.000  H
  O14      1.0000 0.63840  0.83830  0.24100  Biso   1.000  O
  C58      1.0000 0.37300  0.63740  0.12700  Biso   1.000  C
  C59      1.0000 0.35120  0.59990  0.31500  Biso   1.000  C
  H39      1.0000 0.31870  0.60230  0.37460  Biso   1.000  H
  C60      1.0000 0.37630  0.55870  0.41900  Biso   1.000  C
  H40      1.0000 0.36110  0.53380  0.54570  Biso   1.000  H
  C61      1.0000 0.42490  0.55610  0.32500  Biso   1.000  C
  H41      1.0000 0.44250  0.52890  0.39000  Biso   1.000  H
  C62      1.0000 0.44740  0.59340  0.13700  Biso   1.000  C
  H42      1.0000 0.48000  0.59080  0.07770  Biso   1.000  H
  C63      1.0000 0.42190  0.63480  0.03400  Biso   1.000  C
  C64      1.0000 0.44580  0.67160  0.84800  Biso   1.000  C
  H43      1.0000 0.47810  0.66880  0.78340  Biso   1.000  H
  C65      1.0000 0.41950  0.71270  0.76300  Biso   1.000  C
  C66      1.0000 0.55510  0.74510  0.19100  Biso   1.000  C
  H44      1.0000 0.57620  0.72150  0.10540  Biso   1.000  H
  C67      1.0000 0.56890  0.79320  0.18700  Biso   1.000  C
  C68      1.0000 0.53730  0.82850  0.31500  Biso   1.000  C
  H45      1.0000 0.54660  0.86070  0.31250  Biso   1.000  H
  C69      1.0000 0.49200  0.81550  0.44500  Biso   1.000  C
  H46      1.0000 0.47090  0.83910  0.53060  Biso   1.000  H
  C70      1.0000 0.47820  0.76740  0.44900  Biso   1.000  C
  C71      1.0000 0.50980  0.73220  0.32100  Biso   1.000  C
  H47      1.0000 0.50060  0.69990  0.32350  Biso   1.000  H
  C72      1.0000 0.62030  0.80130  0.06000  Biso   1.000  C
  O15      1.0000 0.25390  0.78470  0.13900  Biso   1.000  O
  H48      1.0000 0.26610  0.80770  0.26290  Biso   1.000  H
  O16      1.0000 0.62100  0.84070  0.85900  Biso   1.000  O
  Zn5      1.0000 0.78445  0.71407  0.35190  Biso   1.000  Zn
  N9       1.0000 0.75890  0.64510  0.28800  Biso   1.000  N
  C73      1.0000 0.78100  0.60900  0.44600  Biso   1.000  C
  H49      1.0000 0.81120  0.61110  0.55610  Biso   1.000  H
  N10      1.0000 0.75430  0.56800  0.42900  Biso   1.000  N
  C74      1.0000 0.71490  0.62980  0.15500  Biso   1.000  C
  O17      1.0000 0.77350  0.35850  0.10100  Biso   1.000  O
  C75      1.0000 0.67820  0.65320  0.96900  Biso   1.000  C
  H50      1.0000 0.68070  0.68570  0.91000  Biso   1.000  H
  O18      1.0000 0.83830  0.36160  0.75900  Biso   1.000  O
  C76      1.0000 0.63740  0.62700  0.87300  Biso   1.000  C
  C77      1.0000 0.59990  0.64880  0.68500  Biso   1.000  C
  H51      1.0000 0.60230  0.68130  0.62540  Biso   1.000  H
  C78      1.0000 0.55870  0.62370  0.58100  Biso   1.000  C
  H52      1.0000 0.53380  0.63890  0.45430  Biso   1.000  H
  C79      1.0000 0.55610  0.57510  0.67500  Biso   1.000  C
  H53      1.0000 0.52890  0.55750  0.61000  Biso   1.000  H
  C80      1.0000 0.59340  0.55260  0.86300  Biso   1.000  C
  H54      1.0000 0.59080  0.52000  0.92230  Biso   1.000  H
  C81      1.0000 0.63480  0.57810  0.96600  Biso   1.000  C
  C82      1.0000 0.67160  0.55420  0.15200  Biso   1.000  C
  H55      1.0000 0.66880  0.52190  0.21660  Biso   1.000  H
  C83      1.0000 0.71270  0.58050  0.23700  Biso   1.000  C
  C84      1.0000 0.74510  0.44490  0.80900  Biso   1.000  C
  H56      1.0000 0.72150  0.42380  0.89460  Biso   1.000  H
  C85      1.0000 0.79320  0.43110  0.81300  Biso   1.000  C
  C86      1.0000 0.82850  0.46270  0.68500  Biso   1.000  C
  H57      1.0000 0.86070  0.45340  0.68750  Biso   1.000  H
  C87      1.0000 0.81550  0.50800  0.55500  Biso   1.000  C
  H58      1.0000 0.83910  0.52910  0.46940  Biso   1.000  H
  C88      1.0000 0.76740  0.52180  0.55100  Biso   1.000  C
  C89      1.0000 0.73220  0.49020  0.67900  Biso   1.000  C
  H59      1.0000 0.69990  0.49940  0.67650  Biso   1.000  H
  C90      1.0000 0.80130  0.37970  0.94000  Biso   1.000  C
  O19      1.0000 0.78470  0.74610  0.86100  Biso   1.000  O
  H60      1.0000 0.80770  0.73390  0.73710  Biso   1.000  H
  O20      1.0000 0.84070  0.37900  0.14100  Biso   1.000  O
  Zn6      1.0000 0.21555  0.28593  0.35190  Biso   1.000  Zn
  N11      1.0000 0.24110  0.35490  0.28800  Biso   1.000  N
  C91      1.0000 0.21900  0.39100  0.44600  Biso   1.000  C
  H61      1.0000 0.18880  0.38890  0.55610  Biso   1.000  H
  N12      1.0000 0.24570  0.43200  0.42900  Biso   1.000  N
  C92      1.0000 0.28510  0.37020  0.15500  Biso   1.000  C
  O21      1.0000 0.22650  0.64150  0.10100  Biso   1.000  O
  C93      1.0000 0.32180  0.34680  0.96900  Biso   1.000  C
  H62      1.0000 0.31930  0.31430  0.91000  Biso   1.000  H
  O22      1.0000 0.16170  0.63840  0.75900  Biso   1.000  O
  C94      1.0000 0.36260  0.37300  0.87300  Biso   1.000  C
  C95      1.0000 0.40010  0.35120  0.68500  Biso   1.000  C
  H63      1.0000 0.39770  0.31870  0.62540  Biso   1.000  H
  C96      1.0000 0.44130  0.37630  0.58100  Biso   1.000  C
  H64      1.0000 0.46620  0.36110  0.45430  Biso   1.000  H
  C97      1.0000 0.44390  0.42490  0.67500  Biso   1.000  C
  H65      1.0000 0.47110  0.44250  0.61000  Biso   1.000  H
  C98      1.0000 0.40660  0.44740  0.86300  Biso   1.000  C
  H66      1.0000 0.40920  0.48000  0.92230  Biso   1.000  H
  C99      1.0000 0.36520  0.42190  0.96600  Biso   1.000  C
  C100     1.0000 0.32840  0.44580  0.15200  Biso   1.000  C
  H67      1.0000 0.33120  0.47810  0.21660  Biso   1.000  H
  C101     1.0000 0.28730  0.41950  0.23700  Biso   1.000  C
  C102     1.0000 0.25490  0.55510  0.80900  Biso   1.000  C
  H68      1.0000 0.27850  0.57620  0.89460  Biso   1.000  H
  C103     1.0000 0.20680  0.56890  0.81300  Biso   1.000  C
  C104     1.0000 0.17150  0.53730  0.68500  Biso   1.000  C
  H69      1.0000 0.13930  0.54660  0.68750  Biso   1.000  H
  C105     1.0000 0.18450  0.49200  0.55500  Biso   1.000  C
  H70      1.0000 0.16090  0.47090  0.46940  Biso   1.000  H
  C106     1.0000 0.23260  0.47820  0.55100  Biso   1.000  C
  C107     1.0000 0.26780  0.50980  0.67900  Biso   1.000  C
  H71      1.0000 0.30010  0.50060  0.67650  Biso   1.000  H
  C108     1.0000 0.19870  0.62030  0.94000  Biso   1.000  C
  O23      1.0000 0.21530  0.25390  0.86100  Biso   1.000  O
  H72      1.0000 0.19230  0.26610  0.73710  Biso   1.000  H
  O24      1.0000 0.15930  0.62100  0.14100  Biso   1.000  O
  Zn7      1.0000 0.21407  0.71555  0.14810  Biso   1.000  Zn
  N13      1.0000 0.14510  0.74110  0.21200  Biso   1.000  N
  C109     1.0000 0.10900  0.71900  0.05400  Biso   1.000  C
  H73      1.0000 0.11110  0.68880  0.94390  Biso   1.000  H
  N14      1.0000 0.06800  0.74570  0.07100  Biso   1.000  N
  C110     1.0000 0.12980  0.78510  0.34500  Biso   1.000  C
  O25      1.0000 0.85850  0.72650  0.39900  Biso   1.000  O
  C111     1.0000 0.15320  0.82180  0.53100  Biso   1.000  C
  H74      1.0000 0.18570  0.81930  0.59000  Biso   1.000  H
  O26      1.0000 0.86160  0.66170  0.74100  Biso   1.000  O
  C112     1.0000 0.12700  0.86260  0.62700  Biso   1.000  C
  C113     1.0000 0.14880  0.90010  0.81500  Biso   1.000  C
  H75      1.0000 0.18130  0.89770  0.87460  Biso   1.000  H
  C114     1.0000 0.12370  0.94130  0.91900  Biso   1.000  C
  H76      1.0000 0.13890  0.96620  0.04570  Biso   1.000  H
  C115     1.0000 0.07510  0.94390  0.82500  Biso   1.000  C
  H77      1.0000 0.05750  0.97110  0.89000  Biso   1.000  H
  C116     1.0000 0.05260  0.90660  0.63700  Biso   1.000  C
  H78      1.0000 0.02000  0.90920  0.57770  Biso   1.000  H
  C117     1.0000 0.07810  0.86520  0.53400  Biso   1.000  C
  C118     1.0000 0.05420  0.82840  0.34800  Biso   1.000  C
  H79      1.0000 0.02190  0.83120  0.28340  Biso   1.000  H
  C119     1.0000 0.08050  0.78730  0.26300  Biso   1.000  C
  C120     1.0000 0.94490  0.75490  0.69100  Biso   1.000  C
  H80      1.0000 0.92380  0.77850  0.60540  Biso   1.000  H
  C121     1.0000 0.93110  0.70680  0.68700  Biso   1.000  C
  C122     1.0000 0.96270  0.67150  0.81500  Biso   1.000  C
  H81      1.0000 0.95340  0.63930  0.81250  Biso   1.000  H
  C123     1.0000 0.00800  0.68450  0.94500  Biso   1.000  C
  H82      1.0000 0.02910  0.66090  0.03060  Biso   1.000  H
  C124     1.0000 0.02180  0.73260  0.94900  Biso   1.000  C
  C125     1.0000 0.99020  0.76780  0.82100  Biso   1.000  C
  H83      1.0000 0.99940  0.80010  0.82350  Biso   1.000  H
  C126     1.0000 0.87970  0.69870  0.56000  Biso   1.000  C
  O27      1.0000 0.24610  0.71530  0.63900  Biso   1.000  O
  H84      1.0000 0.23390  0.69230  0.76290  Biso   1.000  H
  O28      1.0000 0.87900  0.65930  0.35900  Biso   1.000  O
  Zn8      1.0000 0.78593  0.28445  0.14810  Biso   1.000  Zn
  N15      1.0000 0.85490  0.25890  0.21200  Biso   1.000  N
  C127     1.0000 0.89100  0.28100  0.05400  Biso   1.000  C
  H85      1.0000 0.88890  0.31120  0.94390  Biso   1.000  H
  N16      1.0000 0.93200  0.25430  0.07100  Biso   1.000  N
  C128     1.0000 0.87020  0.21490  0.34500  Biso   1.000  C
  O29      1.0000 0.14150  0.27350  0.39900  Biso   1.000  O
  C129     1.0000 0.84680  0.17820  0.53100  Biso   1.000  C
  H86      1.0000 0.81430  0.18070  0.59000  Biso   1.000  H
  O30      1.0000 0.13840  0.33830  0.74100  Biso   1.000  O
  C130     1.0000 0.87300  0.13740  0.62700  Biso   1.000  C
  C131     1.0000 0.85120  0.09990  0.81500  Biso   1.000  C
  H87      1.0000 0.81870  0.10230  0.87460  Biso   1.000  H
  C132     1.0000 0.87630  0.05870  0.91900  Biso   1.000  C
  H88      1.0000 0.86110  0.03380  0.04570  Biso   1.000  H
  C133     1.0000 0.92490  0.05610  0.82500  Biso   1.000  C
  H89      1.0000 0.94250  0.02890  0.89000  Biso   1.000  H
  C134     1.0000 0.94740  0.09340  0.63700  Biso   1.000  C
  H90      1.0000 0.98000  0.09080  0.57770  Biso   1.000  H
  C135     1.0000 0.92190  0.13480  0.53400  Biso   1.000  C
  C136     1.0000 0.94580  0.17160  0.34800  Biso   1.000  C
  H91      1.0000 0.97810  0.16880  0.28340  Biso   1.000  H
  C137     1.0000 0.91950  0.21270  0.26300  Biso   1.000  C
  C138     1.0000 0.05510  0.24510  0.69100  Biso   1.000  C
  H92      1.0000 0.07620  0.22150  0.60540  Biso   1.000  H
  C139     1.0000 0.06890  0.29320  0.68700  Biso   1.000  C
  C140     1.0000 0.03730  0.32850  0.81500  Biso   1.000  C
  H93      1.0000 0.04660  0.36070  0.81250  Biso   1.000  H
  C141     1.0000 0.99200  0.31550  0.94500  Biso   1.000  C
  H94      1.0000 0.97090  0.33910  0.03060  Biso   1.000  H
  C142     1.0000 0.97820  0.26740  0.94900  Biso   1.000  C
  C143     1.0000 0.00980  0.23220  0.82100  Biso   1.000  C
  H95      1.0000 0.00060  0.19990  0.82350  Biso   1.000  H
  C144     1.0000 0.12030  0.30130  0.56000  Biso   1.000  C
  O31      1.0000 0.75390  0.28470  0.63900  Biso   1.000  O
  H96      1.0000 0.76610  0.30770  0.76290  Biso   1.000  H
  O32      1.0000 0.12100  0.34070  0.35900  Biso   1.000  O
