data_image0
_cell_length_a       27.6922
_cell_length_b       27.6922
_cell_length_c       3.5492
_cell_angle_alpha    90
_cell_angle_beta     90
_cell_angle_gamma    90

_symmetry_space_group_name_H-M    "P 1"
_symmetry_int_tables_number       1

loop_
  _symmetry_equiv_pos_as_xyz
  'x, y, z'

loop_
  _atom_site_label
  _atom_site_occupancy
  _atom_site_fract_x
  _atom_site_fract_y
  _atom_site_fract_z
  _atom_site_thermal_displace_type
  _atom_site_B_iso_or_equiv
  _atom_site_type_symbol
  Zn1      1.0000 0.28489  0.21388  0.84240  Biso   1.000  Zn
  N1       1.0000 0.26000  0.14640  0.77400  Biso   1.000  N
  C1       1.0000 0.28030  0.10880  0.92950  Biso   1.000  C
  H1       1.0000 0.31060  0.11030  0.04140  Biso   1.000  H
  N2       1.0000 0.25410  0.06730  0.91710  Biso   1.000  N
  C2       1.0000 0.21530  0.12940  0.64450  Biso   1.000  C
  O1       1.0000 0.27210  0.85840  0.62300  Biso   1.000  O
  C3       1.0000 0.17870  0.15340  0.45800  Biso   1.000  C
  H2       1.0000 0.18170  0.18600  0.39920  Biso   1.000  H
  O2       1.0000 0.33860  0.85890  0.29400  Biso   1.000  O
  C4       1.0000 0.13750  0.12810  0.36110  Biso   1.000  C
  C5       1.0000 0.09960  0.14970  0.17000  Biso   1.000  C
  H3       1.0000 0.10190  0.18220  0.10790  Biso   1.000  H
  C6       1.0000 0.05830  0.12450  0.06900  Biso   1.000  C
  H4       1.0000 0.03340  0.13980  0.94050  Biso   1.000  H
  C7       1.0000 0.05480  0.07600  0.16300  Biso   1.000  C
  H5       1.0000 0.02720  0.05860  0.09980  Biso   1.000  H
  C8       1.0000 0.09240  0.05360  0.35200  Biso   1.000  C
  H6       1.0000 0.09000  0.02100  0.41180  Biso   1.000  H
  C9       1.0000 0.13400  0.07920  0.45340  Biso   1.000  C
  C10      1.0000 0.17060  0.05470  0.64000  Biso   1.000  C
  H7       1.0000 0.16770  0.02210  0.69860  Biso   1.000  H
  C11      1.0000 0.21160  0.08050  0.73600  Biso   1.000  C
  C12      1.0000 0.24500  0.94550  0.30900  Biso   1.000  C
  H8       1.0000 0.22110  0.92470  0.39550  Biso   1.000  H
  C13      1.0000 0.29310  0.93110  0.31000  Biso   1.000  C
  C14      1.0000 0.32870  0.96230  0.18000  Biso   1.000  C
  H9       1.0000 0.36090  0.95260  0.18160  Biso   1.000  H
  C15      1.0000 0.31630  0.00790  0.04900  Biso   1.000  C
  H10      1.0000 0.34010  0.02880  0.96200  Biso   1.000  H
  C16      1.0000 0.26820  0.02230  0.04700  Biso   1.000  C
  C17      1.0000 0.23250  0.99120  0.17700  Biso   1.000  C
  H11      1.0000 0.20040  0.00080  0.17590  Biso   1.000  H
  C18      1.0000 0.30120  0.88000  0.45100  Biso   1.000  C
  O3       1.0000 0.28610  0.24760  0.35500  Biso   1.000  O
  H12      1.0000 0.30920  0.23530  0.23040  Biso   1.000  H
  O4       1.0000 0.34110  0.87200  0.64000  Biso   1.000  O
  Zn2      1.0000 0.71511  0.78612  0.84240  Biso   1.000  Zn
  N3       1.0000 0.74000  0.85360  0.77400  Biso   1.000  N
  C19      1.0000 0.71970  0.89120  0.92950  Biso   1.000  C
  H13      1.0000 0.68940  0.88970  0.04140  Biso   1.000  H
  N4       1.0000 0.74590  0.93270  0.91710  Biso   1.000  N
  C20      1.0000 0.78470  0.87060  0.64450  Biso   1.000  C
  O5       1.0000 0.72790  0.14160  0.62300  Biso   1.000  O
  C21      1.0000 0.82130  0.84660  0.45800  Biso   1.000  C
  H14      1.0000 0.81830  0.81400  0.39920  Biso   1.000  H
  O6       1.0000 0.66140  0.14110  0.29400  Biso   1.000  O
  C22      1.0000 0.86250  0.87190  0.36110  Biso   1.000  C
  C23      1.0000 0.90040  0.85030  0.17000  Biso   1.000  C
  H15      1.0000 0.89810  0.81780  0.10790  Biso   1.000  H
  C24      1.0000 0.94170  0.87550  0.06900  Biso   1.000  C
  H16      1.0000 0.96660  0.86020  0.94050  Biso   1.000  H
  C25      1.0000 0.94520  0.92400  0.16300  Biso   1.000  C
  H17      1.0000 0.97280  0.94140  0.09980  Biso   1.000  H
  C26      1.0000 0.90760  0.94640  0.35200  Biso   1.000  C
  H18      1.0000 0.91000  0.97900  0.41180  Biso   1.000  H
  C27      1.0000 0.86600  0.92080  0.45340  Biso   1.000  C
  C28      1.0000 0.82940  0.94530  0.64000  Biso   1.000  C
  H19      1.0000 0.83230  0.97790  0.69860  Biso   1.000  H
  C29      1.0000 0.78840  0.91950  0.73600  Biso   1.000  C
  C30      1.0000 0.75500  0.05450  0.30900  Biso   1.000  C
  H20      1.0000 0.77890  0.07530  0.39550  Biso   1.000  H
  C31      1.0000 0.70690  0.06890  0.31000  Biso   1.000  C
  C32      1.0000 0.67130  0.03770  0.18000  Biso   1.000  C
  H21      1.0000 0.63910  0.04740  0.18160  Biso   1.000  H
  C33      1.0000 0.68370  0.99210  0.04900  Biso   1.000  C
  H22      1.0000 0.65990  0.97120  0.96200  Biso   1.000  H
  C34      1.0000 0.73180  0.97770  0.04700  Biso   1.000  C
  C35      1.0000 0.76750  0.00880  0.17700  Biso   1.000  C
  H23      1.0000 0.79960  0.99920  0.17590  Biso   1.000  H
  C36      1.0000 0.69880  0.12000  0.45100  Biso   1.000  C
  O7       1.0000 0.71390  0.75240  0.35500  Biso   1.000  O
  H24      1.0000 0.69080  0.76470  0.23040  Biso   1.000  H
  O8       1.0000 0.65890  0.12800  0.64000  Biso   1.000  O
  Zn3      1.0000 0.71388  0.21511  0.65760  Biso   1.000  Zn
  N5       1.0000 0.64640  0.24000  0.72600  Biso   1.000  N
  C37      1.0000 0.60880  0.21970  0.57050  Biso   1.000  C
  H25      1.0000 0.61030  0.18940  0.45860  Biso   1.000  H
  N6       1.0000 0.56730  0.24590  0.58290  Biso   1.000  N
  C38      1.0000 0.62940  0.28470  0.85550  Biso   1.000  C
  O9       1.0000 0.35840  0.22790  0.87700  Biso   1.000  O
  C39      1.0000 0.65340  0.32130  0.04200  Biso   1.000  C
  H26      1.0000 0.68600  0.31830  0.10080  Biso   1.000  H
  O10      1.0000 0.35890  0.16140  0.20600  Biso   1.000  O
  C40      1.0000 0.62810  0.36250  0.13890  Biso   1.000  C
  C41      1.0000 0.64970  0.40040  0.33000  Biso   1.000  C
  H27      1.0000 0.68220  0.39810  0.39210  Biso   1.000  H
  C42      1.0000 0.62450  0.44170  0.43100  Biso   1.000  C
  H28      1.0000 0.63980  0.46660  0.55950  Biso   1.000  H
  C43      1.0000 0.57600  0.44520  0.33700  Biso   1.000  C
  H29      1.0000 0.55860  0.47280  0.40020  Biso   1.000  H
  C44      1.0000 0.55360  0.40760  0.14800  Biso   1.000  C
  H30      1.0000 0.52100  0.41000  0.08820  Biso   1.000  H
  C45      1.0000 0.57920  0.36600  0.04660  Biso   1.000  C
  C46      1.0000 0.55470  0.32940  0.86000  Biso   1.000  C
  H31      1.0000 0.52210  0.33230  0.80140  Biso   1.000  H
  C47      1.0000 0.58050  0.28840  0.76400  Biso   1.000  C
  C48      1.0000 0.44550  0.25500  0.19100  Biso   1.000  C
  H32      1.0000 0.42470  0.27890  0.10450  Biso   1.000  H
  C49      1.0000 0.43110  0.20690  0.19000  Biso   1.000  C
  C50      1.0000 0.46230  0.17130  0.32000  Biso   1.000  C
  H33      1.0000 0.45260  0.13910  0.31840  Biso   1.000  H
  C51      1.0000 0.50790  0.18370  0.45100  Biso   1.000  C
  H34      1.0000 0.52880  0.15990  0.53800  Biso   1.000  H
  C52      1.0000 0.52230  0.23180  0.45300  Biso   1.000  C
  C53      1.0000 0.49120  0.26750  0.32300  Biso   1.000  C
  H35      1.0000 0.50080  0.29960  0.32410  Biso   1.000  H
  C54      1.0000 0.38000  0.19880  0.04900  Biso   1.000  C
  O11      1.0000 0.74760  0.21390  0.14500  Biso   1.000  O
  H36      1.0000 0.73530  0.19080  0.26960  Biso   1.000  H
  O12      1.0000 0.37200  0.15890  0.86000  Biso   1.000  O
  Zn4      1.0000 0.28612  0.78489  0.65760  Biso   1.000  Zn
  N7       1.0000 0.35360  0.76000  0.72600  Biso   1.000  N
  C55      1.0000 0.39120  0.78030  0.57050  Biso   1.000  C
  H37      1.0000 0.38970  0.81060  0.45860  Biso   1.000  H
  N8       1.0000 0.43270  0.75410  0.58290  Biso   1.000  N
  C56      1.0000 0.37060  0.71530  0.85550  Biso   1.000  C
  O13      1.0000 0.64160  0.77210  0.87700  Biso   1.000  O
  C57      1.0000 0.34660  0.67870  0.04200  Biso   1.000  C
  H38      1.0000 0.31400  0.68170  0.10080  Biso   1.000  H
  O14      1.0000 0.64110  0.83860  0.20600  Biso   1.000  O
  C58      1.0000 0.37190  0.63750  0.13890  Biso   1.000  C
  C59      1.0000 0.35030  0.59960  0.33000  Biso   1.000  C
  H39      1.0000 0.31780  0.60190  0.39210  Biso   1.000  H
  C60      1.0000 0.37550  0.55830  0.43100  Biso   1.000  C
  H40      1.0000 0.36020  0.53340  0.55950  Biso   1.000  H
  C61      1.0000 0.42400  0.55480  0.33700  Biso   1.000  C
  H41      1.0000 0.44140  0.52720  0.40020  Biso   1.000  H
  C62      1.0000 0.44640  0.59240  0.14800  Biso   1.000  C
  H42      1.0000 0.47900  0.59000  0.08820  Biso   1.000  H
  C63      1.0000 0.42080  0.63400  0.04660  Biso   1.000  C
  C64      1.0000 0.44530  0.67060  0.86000  Biso   1.000  C
  H43      1.0000 0.47790  0.66770  0.80140  Biso   1.000  H
  C65      1.0000 0.41950  0.71160  0.76400  Biso   1.000  C
  C66      1.0000 0.55450  0.74500  0.19100  Biso   1.000  C
  H44      1.0000 0.57530  0.72110  0.10450  Biso   1.000  H
  C67      1.0000 0.56890  0.79310  0.19000  Biso   1.000  C
  C68      1.0000 0.53770  0.82870  0.32000  Biso   1.000  C
  H45      1.0000 0.54740  0.86090  0.31840  Biso   1.000  H
  C69      1.0000 0.49210  0.81630  0.45100  Biso   1.000  C
  H46      1.0000 0.47120  0.84010  0.53800  Biso   1.000  H
  C70      1.0000 0.47770  0.76820  0.45300  Biso   1.000  C
  C71      1.0000 0.50880  0.73250  0.32300  Biso   1.000  C
  H47      1.0000 0.49920  0.70040  0.32410  Biso   1.000  H
  C72      1.0000 0.62000  0.80120  0.04900  Biso   1.000  C
  O15      1.0000 0.25240  0.78610  0.14500  Biso   1.000  O
  H48      1.0000 0.26470  0.80920  0.26960  Biso   1.000  H
  O16      1.0000 0.62800  0.84110  0.86000  Biso   1.000  O
  Zn5      1.0000 0.78489  0.71388  0.34240  Biso   1.000  Zn
  N9       1.0000 0.76000  0.64640  0.27400  Biso   1.000  N
  C73      1.0000 0.78030  0.60880  0.42950  Biso   1.000  C
  H49      1.0000 0.81060  0.61030  0.54140  Biso   1.000  H
  N10      1.0000 0.75410  0.56730  0.41710  Biso   1.000  N
  C74      1.0000 0.71530  0.62940  0.14450  Biso   1.000  C
  O17      1.0000 0.77210  0.35840  0.12300  Biso   1.000  O
  C75      1.0000 0.67870  0.65340  0.95800  Biso   1.000  C
  H50      1.0000 0.68170  0.68600  0.89920  Biso   1.000  H
  O18      1.0000 0.83860  0.35890  0.79400  Biso   1.000  O
  C76      1.0000 0.63750  0.62810  0.86110  Biso   1.000  C
  C77      1.0000 0.59960  0.64970  0.67000  Biso   1.000  C
  H51      1.0000 0.60190  0.68220  0.60790  Biso   1.000  H
  C78      1.0000 0.55830  0.62450  0.56900  Biso   1.000  C
  H52      1.0000 0.53340  0.63980  0.44050  Biso   1.000  H
  C79      1.0000 0.55480  0.57600  0.66300  Biso   1.000  C
  H53      1.0000 0.52720  0.55860  0.59980  Biso   1.000  H
  C80      1.0000 0.59240  0.55360  0.85200  Biso   1.000  C
  H54      1.0000 0.59000  0.52100  0.91180  Biso   1.000  H
  C81      1.0000 0.63400  0.57920  0.95340  Biso   1.000  C
  C82      1.0000 0.67060  0.55470  0.14000  Biso   1.000  C
  H55      1.0000 0.66770  0.52210  0.19860  Biso   1.000  H
  C83      1.0000 0.71160  0.58050  0.23600  Biso   1.000  C
  C84      1.0000 0.74500  0.44550  0.80900  Biso   1.000  C
  H56      1.0000 0.72110  0.42470  0.89550  Biso   1.000  H
  C85      1.0000 0.79310  0.43110  0.81000  Biso   1.000  C
  C86      1.0000 0.82870  0.46230  0.68000  Biso   1.000  C
  H57      1.0000 0.86090  0.45260  0.68160  Biso   1.000  H
  C87      1.0000 0.81630  0.50790  0.54900  Biso   1.000  C
  H58      1.0000 0.84010  0.52880  0.46200  Biso   1.000  H
  C88      1.0000 0.76820  0.52230  0.54700  Biso   1.000  C
  C89      1.0000 0.73250  0.49120  0.67700  Biso   1.000  C
  H59      1.0000 0.70040  0.50080  0.67590  Biso   1.000  H
  C90      1.0000 0.80120  0.38000  0.95100  Biso   1.000  C
  O19      1.0000 0.78610  0.74760  0.85500  Biso   1.000  O
  H60      1.0000 0.80920  0.73530  0.73040  Biso   1.000  H
  O20      1.0000 0.84110  0.37200  0.14000  Biso   1.000  O
  Zn6      1.0000 0.21511  0.28612  0.34240  Biso   1.000  Zn
  N11      1.0000 0.24000  0.35360  0.27400  Biso   1.000  N
  C91      1.0000 0.21970  0.39120  0.42950  Biso   1.000  C
  H61      1.0000 0.18940  0.38970  0.54140  Biso   1.000  H
  N12      1.0000 0.24590  0.43270  0.41710  Biso   1.000  N
  C92      1.0000 0.28470  0.37060  0.14450  Biso   1.000  C
  O21      1.0000 0.22790  0.64160  0.12300  Biso   1.000  O
  C93      1.0000 0.32130  0.34660  0.95800  Biso   1.000  C
  H62      1.0000 0.31830  0.31400  0.89920  Biso   1.000  H
  O22      1.0000 0.16140  0.64110  0.79400  Biso   1.000  O
  C94      1.0000 0.36250  0.37190  0.86110  Biso   1.000  C
  C95      1.0000 0.40040  0.35030  0.67000  Biso   1.000  C
  H63      1.0000 0.39810  0.31780  0.60790  Biso   1.000  H
  C96      1.0000 0.44170  0.37550  0.56900  Biso   1.000  C
  H64      1.0000 0.46660  0.36020  0.44050  Biso   1.000  H
  C97      1.0000 0.44520  0.42400  0.66300  Biso   1.000  C
  H65      1.0000 0.47280  0.44140  0.59980  Biso   1.000  H
  C98      1.0000 0.40760  0.44640  0.85200  Biso   1.000  C
  H66      1.0000 0.41000  0.47900  0.91180  Biso   1.000  H
  C99      1.0000 0.36600  0.42080  0.95340  Biso   1.000  C
  C100     1.0000 0.32940  0.44530  0.14000  Biso   1.000  C
  H67      1.0000 0.33230  0.47790  0.19860  Biso   1.000  H
  C101     1.0000 0.28840  0.41950  0.23600  Biso   1.000  C
  C102     1.0000 0.25500  0.55450  0.80900  Biso   1.000  C
  H68      1.0000 0.27890  0.57530  0.89550  Biso   1.000  H
  C103     1.0000 0.20690  0.56890  0.81000  Biso   1.000  C
  C104     1.0000 0.17130  0.53770  0.68000  Biso   1.000  C
  H69      1.0000 0.13910  0.54740  0.68160  Biso   1.000  H
  C105     1.0000 0.18370  0.49210  0.54900  Biso   1.000  C
  H70      1.0000 0.15990  0.47120  0.46200  Biso   1.000  H
  C106     1.0000 0.23180  0.47770  0.54700  Biso   1.000  C
  C107     1.0000 0.26750  0.50880  0.67700  Biso   1.000  C
  H71      1.0000 0.29960  0.49920  0.67590  Biso   1.000  H
  C108     1.0000 0.19880  0.62000  0.95100  Biso   1.000  C
  O23      1.0000 0.21390  0.25240  0.85500  Biso   1.000  O
  H72      1.0000 0.19080  0.26470  0.73040  Biso   1.000  H
  O24      1.0000 0.15890  0.62800  0.14000  Biso   1.000  O
  Zn7      1.0000 0.21388  0.71511  0.15760  Biso   1.000  Zn
  N13      1.0000 0.14640  0.74000  0.22600  Biso   1.000  N
  C109     1.0000 0.10880  0.71970  0.07050  Biso   1.000  C
  H73      1.0000 0.11030  0.68940  0.95860  Biso   1.000  H
  N14      1.0000 0.06730  0.74590  0.08290  Biso   1.000  N
  C110     1.0000 0.12940  0.78470  0.35550  Biso   1.000  C
  O25      1.0000 0.85840  0.72790  0.37700  Biso   1.000  O
  C111     1.0000 0.15340  0.82130  0.54200  Biso   1.000  C
  H74      1.0000 0.18600  0.81830  0.60080  Biso   1.000  H
  O26      1.0000 0.85890  0.66140  0.70600  Biso   1.000  O
  C112     1.0000 0.12810  0.86250  0.63890  Biso   1.000  C
  C113     1.0000 0.14970  0.90040  0.83000  Biso   1.000  C
  H75      1.0000 0.18220  0.89810  0.89210  Biso   1.000  H
  C114     1.0000 0.12450  0.94170  0.93100  Biso   1.000  C
  H76      1.0000 0.13980  0.96660  0.05950  Biso   1.000  H
  C115     1.0000 0.07600  0.94520  0.83700  Biso   1.000  C
  H77      1.0000 0.05860  0.97280  0.90020  Biso   1.000  H
  C116     1.0000 0.05360  0.90760  0.64800  Biso   1.000  C
  H78      1.0000 0.02100  0.91000  0.58820  Biso   1.000  H
  C117     1.0000 0.07920  0.86600  0.54660  Biso   1.000  C
  C118     1.0000 0.05470  0.82940  0.36000  Biso   1.000  C
  H79      1.0000 0.02210  0.83230  0.30140  Biso   1.000  H
  C119     1.0000 0.08050  0.78840  0.26400  Biso   1.000  C
  C120     1.0000 0.94550  0.75500  0.69100  Biso   1.000  C
  H80      1.0000 0.92470  0.77890  0.60450  Biso   1.000  H
  C121     1.0000 0.93110  0.70690  0.69000  Biso   1.000  C
  C122     1.0000 0.96230  0.67130  0.82000  Biso   1.000  C
  H81      1.0000 0.95260  0.63910  0.81840  Biso   1.000  H
  C123     1.0000 0.00790  0.68370  0.95100  Biso   1.000  C
  H82      1.0000 0.02880  0.65990  0.03800  Biso   1.000  H
  C124     1.0000 0.02230  0.73180  0.95300  Biso   1.000  C
  C125     1.0000 0.99120  0.76750  0.82300  Biso   1.000  C
  H83      1.0000 0.00080  0.79960  0.82410  Biso   1.000  H
  C126     1.0000 0.88000  0.69880  0.54900  Biso   1.000  C
  O27      1.0000 0.24760  0.71390  0.64500  Biso   1.000  O
  H84      1.0000 0.23530  0.69080  0.76960  Biso   1.000  H
  O28      1.0000 0.87200  0.65890  0.36000  Biso   1.000  O
  Zn8      1.0000 0.78612  0.28489  0.15760  Biso   1.000  Zn
  N15      1.0000 0.85360  0.26000  0.22600  Biso   1.000  N
  C127     1.0000 0.89120  0.28030  0.07050  Biso   1.000  C
  H85      1.0000 0.88970  0.31060  0.95860  Biso   1.000  H
  N16      1.0000 0.93270  0.25410  0.08290  Biso   1.000  N
  C128     1.0000 0.87060  0.21530  0.35550  Biso   1.000  C
  O29      1.0000 0.14160  0.27210  0.37700  Biso   1.000  O
  C129     1.0000 0.84660  0.17870  0.54200  Biso   1.000  C
  H86      1.0000 0.81400  0.18170  0.60080  Biso   1.000  H
  O30      1.0000 0.14110  0.33860  0.70600  Biso   1.000  O
  C130     1.0000 0.87190  0.13750  0.63890  Biso   1.000  C
  C131     1.0000 0.85030  0.09960  0.83000  Biso   1.000  C
  H87      1.0000 0.81780  0.10190  0.89210  Biso   1.000  H
  C132     1.0000 0.87550  0.05830  0.93100  Biso   1.000  C
  H88      1.0000 0.86020  0.03340  0.05950  Biso   1.000  H
  C133     1.0000 0.92400  0.05480  0.83700  Biso   1.000  C
  H89      1.0000 0.94140  0.02720  0.90020  Biso   1.000  H
  C134     1.0000 0.94640  0.09240  0.64800  Biso   1.000  C
  H90      1.0000 0.97900  0.09000  0.58820  Biso   1.000  H
  C135     1.0000 0.92080  0.13400  0.54660  Biso   1.000  C
  C136     1.0000 0.94530  0.17060  0.36000  Biso   1.000  C
  H91      1.0000 0.97790  0.16770  0.30140  Biso   1.000  H
  C137     1.0000 0.91950  0.21160  0.26400  Biso   1.000  C
  C138     1.0000 0.05450  0.24500  0.69100  Biso   1.000  C
  H92      1.0000 0.07530  0.22110  0.60450  Biso   1.000  H
  C139     1.0000 0.06890  0.29310  0.69000  Biso   1.000  C
  C140     1.0000 0.03770  0.32870  0.82000  Biso   1.000  C
  H93      1.0000 0.04740  0.36090  0.81840  Biso   1.000  H
  C141     1.0000 0.99210  0.31630  0.95100  Biso   1.000  C
  H94      1.0000 0.97120  0.34010  0.03800  Biso   1.000  H
  C142     1.0000 0.97770  0.26820  0.95300  Biso   1.000  C
  C143     1.0000 0.00880  0.23250  0.82300  Biso   1.000  C
  H95      1.0000 0.99920  0.20040  0.82410  Biso   1.000  H
  C144     1.0000 0.12000  0.30120  0.54900  Biso   1.000  C
  O31      1.0000 0.75240  0.28610  0.64500  Biso   1.000  O
  H96      1.0000 0.76470  0.30920  0.76960  Biso   1.000  H
  O32      1.0000 0.12800  0.34110  0.36000  Biso   1.000  O
