data_image0
_cell_length_a       27.7069
_cell_length_b       27.7069
_cell_length_c       3.5719
_cell_angle_alpha    90
_cell_angle_beta     90
_cell_angle_gamma    90

_symmetry_space_group_name_H-M    "P 1"
_symmetry_int_tables_number       1

loop_
  _symmetry_equiv_pos_as_xyz
  'x, y, z'

loop_
  _atom_site_label
  _atom_site_occupancy
  _atom_site_fract_x
  _atom_site_fract_y
  _atom_site_fract_z
  _atom_site_thermal_displace_type
  _atom_site_B_iso_or_equiv
  _atom_site_type_symbol
  Zn1      1.0000 0.28470  0.21404  0.84560  Biso   1.000  Zn
  N1       1.0000 0.26020  0.14610  0.77800  Biso   1.000  N
  C1       1.0000 0.28060  0.10870  0.93400  Biso   1.000  C
  H1       1.0000 0.31090  0.11010  0.04530  Biso   1.000  H
  N2       1.0000 0.25400  0.06760  0.91900  Biso   1.000  N
  C2       1.0000 0.21530  0.12940  0.64700  Biso   1.000  C
  O1       1.0000 0.27220  0.85830  0.61900  Biso   1.000  O
  C3       1.0000 0.17870  0.15340  0.46100  Biso   1.000  C
  H2       1.0000 0.18170  0.18600  0.40190  Biso   1.000  H
  O2       1.0000 0.33880  0.86060  0.29400  Biso   1.000  O
  C4       1.0000 0.13750  0.12800  0.36400  Biso   1.000  C
  C5       1.0000 0.10000  0.14990  0.17400  Biso   1.000  C
  H3       1.0000 0.10260  0.18240  0.11240  Biso   1.000  H
  C6       1.0000 0.05850  0.12500  0.07200  Biso   1.000  C
  H4       1.0000 0.03370  0.14050  0.94460  Biso   1.000  H
  C7       1.0000 0.05500  0.07640  0.16500  Biso   1.000  C
  H5       1.0000 0.02750  0.05910  0.09970  Biso   1.000  H
  C8       1.0000 0.09230  0.05380  0.35300  Biso   1.000  C
  H6       1.0000 0.08960  0.02130  0.41380  Biso   1.000  H
  C9       1.0000 0.13410  0.07900  0.45500  Biso   1.000  C
  C10      1.0000 0.17070  0.05500  0.64200  Biso   1.000  C
  H7       1.0000 0.16800  0.02230  0.69880  Biso   1.000  H
  C11      1.0000 0.21130  0.08070  0.74200  Biso   1.000  C
  C12      1.0000 0.24460  0.94560  0.30800  Biso   1.000  C
  H8       1.0000 0.22080  0.92470  0.39500  Biso   1.000  H
  C13      1.0000 0.29270  0.93120  0.30900  Biso   1.000  C
  C14      1.0000 0.32830  0.96240  0.18000  Biso   1.000  C
  H9       1.0000 0.36040  0.95270  0.18070  Biso   1.000  H
  C15      1.0000 0.31580  0.00800  0.05000  Biso   1.000  C
  H10      1.0000 0.33960  0.02880  0.96340  Biso   1.000  H
  C16      1.0000 0.26770  0.02240  0.04900  Biso   1.000  C
  C17      1.0000 0.23220  0.99110  0.17800  Biso   1.000  C
  H11      1.0000 0.20000  0.00080  0.17770  Biso   1.000  H
  C18      1.0000 0.30090  0.88040  0.45400  Biso   1.000  C
  O3       1.0000 0.28570  0.24790  0.35500  Biso   1.000  O
  H12      1.0000 0.30870  0.23560  0.22980  Biso   1.000  H
  O4       1.0000 0.34040  0.87500  0.65200  Biso   1.000  O
  Zn2      1.0000 0.71530  0.78596  0.84560  Biso   1.000  Zn
  N3       1.0000 0.73980  0.85390  0.77800  Biso   1.000  N
  C19      1.0000 0.71940  0.89130  0.93400  Biso   1.000  C
  H13      1.0000 0.68910  0.88990  0.04530  Biso   1.000  H
  N4       1.0000 0.74600  0.93240  0.91900  Biso   1.000  N
  C20      1.0000 0.78470  0.87060  0.64700  Biso   1.000  C
  O5       1.0000 0.72780  0.14170  0.61900  Biso   1.000  O
  C21      1.0000 0.82130  0.84660  0.46100  Biso   1.000  C
  H14      1.0000 0.81830  0.81400  0.40190  Biso   1.000  H
  O6       1.0000 0.66120  0.13940  0.29400  Biso   1.000  O
  C22      1.0000 0.86250  0.87200  0.36400  Biso   1.000  C
  C23      1.0000 0.90000  0.85010  0.17400  Biso   1.000  C
  H15      1.0000 0.89740  0.81760  0.11240  Biso   1.000  H
  C24      1.0000 0.94150  0.87500  0.07200  Biso   1.000  C
  H16      1.0000 0.96630  0.85950  0.94460  Biso   1.000  H
  C25      1.0000 0.94500  0.92360  0.16500  Biso   1.000  C
  H17      1.0000 0.97250  0.94090  0.09970  Biso   1.000  H
  C26      1.0000 0.90770  0.94620  0.35300  Biso   1.000  C
  H18      1.0000 0.91040  0.97870  0.41380  Biso   1.000  H
  C27      1.0000 0.86590  0.92100  0.45500  Biso   1.000  C
  C28      1.0000 0.82930  0.94500  0.64200  Biso   1.000  C
  H19      1.0000 0.83200  0.97770  0.69880  Biso   1.000  H
  C29      1.0000 0.78870  0.91930  0.74200  Biso   1.000  C
  C30      1.0000 0.75540  0.05440  0.30800  Biso   1.000  C
  H20      1.0000 0.77920  0.07530  0.39500  Biso   1.000  H
  C31      1.0000 0.70730  0.06880  0.30900  Biso   1.000  C
  C32      1.0000 0.67170  0.03760  0.18000  Biso   1.000  C
  H21      1.0000 0.63960  0.04730  0.18070  Biso   1.000  H
  C33      1.0000 0.68420  0.99200  0.05000  Biso   1.000  C
  H22      1.0000 0.66040  0.97120  0.96340  Biso   1.000  H
  C34      1.0000 0.73230  0.97760  0.04900  Biso   1.000  C
  C35      1.0000 0.76780  0.00890  0.17800  Biso   1.000  C
  H23      1.0000 0.80000  0.99920  0.17770  Biso   1.000  H
  C36      1.0000 0.69910  0.11960  0.45400  Biso   1.000  C
  O7       1.0000 0.71430  0.75210  0.35500  Biso   1.000  O
  H24      1.0000 0.69130  0.76440  0.22980  Biso   1.000  H
  O8       1.0000 0.65960  0.12500  0.65200  Biso   1.000  O
  Zn3      1.0000 0.71404  0.21530  0.65440  Biso   1.000  Zn
  N5       1.0000 0.64610  0.23980  0.72200  Biso   1.000  N
  C37      1.0000 0.60870  0.21940  0.56600  Biso   1.000  C
  H25      1.0000 0.61010  0.18910  0.45470  Biso   1.000  H
  N6       1.0000 0.56760  0.24600  0.58100  Biso   1.000  N
  C38      1.0000 0.62940  0.28470  0.85300  Biso   1.000  C
  O9       1.0000 0.35830  0.22780  0.88100  Biso   1.000  O
  C39      1.0000 0.65340  0.32130  0.03900  Biso   1.000  C
  H26      1.0000 0.68600  0.31830  0.09810  Biso   1.000  H
  O10      1.0000 0.36060  0.16120  0.20600  Biso   1.000  O
  C40      1.0000 0.62800  0.36250  0.13600  Biso   1.000  C
  C41      1.0000 0.64990  0.40000  0.32600  Biso   1.000  C
  H27      1.0000 0.68240  0.39740  0.38760  Biso   1.000  H
  C42      1.0000 0.62500  0.44150  0.42800  Biso   1.000  C
  H28      1.0000 0.64050  0.46630  0.55540  Biso   1.000  H
  C43      1.0000 0.57640  0.44500  0.33500  Biso   1.000  C
  H29      1.0000 0.55910  0.47250  0.40030  Biso   1.000  H
  C44      1.0000 0.55380  0.40770  0.14700  Biso   1.000  C
  H30      1.0000 0.52130  0.41040  0.08620  Biso   1.000  H
  C45      1.0000 0.57900  0.36590  0.04500  Biso   1.000  C
  C46      1.0000 0.55500  0.32930  0.85800  Biso   1.000  C
  H31      1.0000 0.52230  0.33200  0.80120  Biso   1.000  H
  C47      1.0000 0.58070  0.28870  0.75800  Biso   1.000  C
  C48      1.0000 0.44560  0.25540  0.19200  Biso   1.000  C
  H32      1.0000 0.42470  0.27920  0.10500  Biso   1.000  H
  C49      1.0000 0.43120  0.20730  0.19100  Biso   1.000  C
  C50      1.0000 0.46240  0.17170  0.32000  Biso   1.000  C
  H33      1.0000 0.45270  0.13960  0.31930  Biso   1.000  H
  C51      1.0000 0.50800  0.18420  0.45000  Biso   1.000  C
  H34      1.0000 0.52880  0.16040  0.53660  Biso   1.000  H
  C52      1.0000 0.52240  0.23230  0.45100  Biso   1.000  C
  C53      1.0000 0.49110  0.26780  0.32200  Biso   1.000  C
  H35      1.0000 0.50080  0.30000  0.32230  Biso   1.000  H
  C54      1.0000 0.38040  0.19910  0.04600  Biso   1.000  C
  O11      1.0000 0.74790  0.21430  0.14500  Biso   1.000  O
  H36      1.0000 0.73560  0.19130  0.27020  Biso   1.000  H
  O12      1.0000 0.37500  0.15960  0.84800  Biso   1.000  O
  Zn4      1.0000 0.28596  0.78470  0.65440  Biso   1.000  Zn
  N7       1.0000 0.35390  0.76020  0.72200  Biso   1.000  N
  C55      1.0000 0.39130  0.78060  0.56600  Biso   1.000  C
  H37      1.0000 0.38990  0.81090  0.45470  Biso   1.000  H
  N8       1.0000 0.43240  0.75400  0.58100  Biso   1.000  N
  C56      1.0000 0.37060  0.71530  0.85300  Biso   1.000  C
  O13      1.0000 0.64170  0.77220  0.88100  Biso   1.000  O
  C57      1.0000 0.34660  0.67870  0.03900  Biso   1.000  C
  H38      1.0000 0.31400  0.68170  0.09810  Biso   1.000  H
  O14      1.0000 0.63940  0.83880  0.20600  Biso   1.000  O
  C58      1.0000 0.37200  0.63750  0.13600  Biso   1.000  C
  C59      1.0000 0.35010  0.60000  0.32600  Biso   1.000  C
  H39      1.0000 0.31760  0.60260  0.38760  Biso   1.000  H
  C60      1.0000 0.37500  0.55850  0.42800  Biso   1.000  C
  H40      1.0000 0.35950  0.53370  0.55540  Biso   1.000  H
  C61      1.0000 0.42360  0.55500  0.33500  Biso   1.000  C
  H41      1.0000 0.44090  0.52750  0.40030  Biso   1.000  H
  C62      1.0000 0.44620  0.59230  0.14700  Biso   1.000  C
  H42      1.0000 0.47870  0.58960  0.08620  Biso   1.000  H
  C63      1.0000 0.42100  0.63410  0.04500  Biso   1.000  C
  C64      1.0000 0.44500  0.67070  0.85800  Biso   1.000  C
  H43      1.0000 0.47770  0.66800  0.80120  Biso   1.000  H
  C65      1.0000 0.41930  0.71130  0.75800  Biso   1.000  C
  C66      1.0000 0.55440  0.74460  0.19200  Biso   1.000  C
  H44      1.0000 0.57530  0.72080  0.10500  Biso   1.000  H
  C67      1.0000 0.56880  0.79270  0.19100  Biso   1.000  C
  C68      1.0000 0.53760  0.82830  0.32000  Biso   1.000  C
  H45      1.0000 0.54730  0.86040  0.31930  Biso   1.000  H
  C69      1.0000 0.49200  0.81580  0.45000  Biso   1.000  C
  H46      1.0000 0.47120  0.83960  0.53660  Biso   1.000  H
  C70      1.0000 0.47760  0.76770  0.45100  Biso   1.000  C
  C71      1.0000 0.50890  0.73220  0.32200  Biso   1.000  C
  H47      1.0000 0.49920  0.70000  0.32230  Biso   1.000  H
  C72      1.0000 0.61960  0.80090  0.04600  Biso   1.000  C
  O15      1.0000 0.25210  0.78570  0.14500  Biso   1.000  O
  H48      1.0000 0.26440  0.80870  0.27020  Biso   1.000  H
  O16      1.0000 0.62500  0.84040  0.84800  Biso   1.000  O
  Zn5      1.0000 0.78470  0.71404  0.34560  Biso   1.000  Zn
  N9       1.0000 0.76020  0.64610  0.27800  Biso   1.000  N
  C73      1.0000 0.78060  0.60870  0.43400  Biso   1.000  C
  H49      1.0000 0.81090  0.61010  0.54530  Biso   1.000  H
  N10      1.0000 0.75400  0.56760  0.41900  Biso   1.000  N
  C74      1.0000 0.71530  0.62940  0.14700  Biso   1.000  C
  O17      1.0000 0.77220  0.35830  0.11900  Biso   1.000  O
  C75      1.0000 0.67870  0.65340  0.96100  Biso   1.000  C
  H50      1.0000 0.68170  0.68600  0.90190  Biso   1.000  H
  O18      1.0000 0.83880  0.36060  0.79400  Biso   1.000  O
  C76      1.0000 0.63750  0.62800  0.86400  Biso   1.000  C
  C77      1.0000 0.60000  0.64990  0.67400  Biso   1.000  C
  H51      1.0000 0.60260  0.68240  0.61240  Biso   1.000  H
  C78      1.0000 0.55850  0.62500  0.57200  Biso   1.000  C
  H52      1.0000 0.53370  0.64050  0.44460  Biso   1.000  H
  C79      1.0000 0.55500  0.57640  0.66500  Biso   1.000  C
  H53      1.0000 0.52750  0.55910  0.59970  Biso   1.000  H
  C80      1.0000 0.59230  0.55380  0.85300  Biso   1.000  C
  H54      1.0000 0.58960  0.52130  0.91380  Biso   1.000  H
  C81      1.0000 0.63410  0.57900  0.95500  Biso   1.000  C
  C82      1.0000 0.67070  0.55500  0.14200  Biso   1.000  C
  H55      1.0000 0.66800  0.52230  0.19880  Biso   1.000  H
  C83      1.0000 0.71130  0.58070  0.24200  Biso   1.000  C
  C84      1.0000 0.74460  0.44560  0.80800  Biso   1.000  C
  H56      1.0000 0.72080  0.42470  0.89500  Biso   1.000  H
  C85      1.0000 0.79270  0.43120  0.80900  Biso   1.000  C
  C86      1.0000 0.82830  0.46240  0.68000  Biso   1.000  C
  H57      1.0000 0.86040  0.45270  0.68070  Biso   1.000  H
  C87      1.0000 0.81580  0.50800  0.55000  Biso   1.000  C
  H58      1.0000 0.83960  0.52880  0.46340  Biso   1.000  H
  C88      1.0000 0.76770  0.52240  0.54900  Biso   1.000  C
  C89      1.0000 0.73220  0.49110  0.67800  Biso   1.000  C
  H59      1.0000 0.70000  0.50080  0.67770  Biso   1.000  H
  C90      1.0000 0.80090  0.38040  0.95400  Biso   1.000  C
  O19      1.0000 0.78570  0.74790  0.85500  Biso   1.000  O
  H60      1.0000 0.80870  0.73560  0.72980  Biso   1.000  H
  O20      1.0000 0.84040  0.37500  0.15200  Biso   1.000  O
  Zn6      1.0000 0.21530  0.28596  0.34560  Biso   1.000  Zn
  N11      1.0000 0.23980  0.35390  0.27800  Biso   1.000  N
  C91      1.0000 0.21940  0.39130  0.43400  Biso   1.000  C
  H61      1.0000 0.18910  0.38990  0.54530  Biso   1.000  H
  N12      1.0000 0.24600  0.43240  0.41900  Biso   1.000  N
  C92      1.0000 0.28470  0.37060  0.14700  Biso   1.000  C
  O21      1.0000 0.22780  0.64170  0.11900  Biso   1.000  O
  C93      1.0000 0.32130  0.34660  0.96100  Biso   1.000  C
  H62      1.0000 0.31830  0.31400  0.90190  Biso   1.000  H
  O22      1.0000 0.16120  0.63940  0.79400  Biso   1.000  O
  C94      1.0000 0.36250  0.37200  0.86400  Biso   1.000  C
  C95      1.0000 0.40000  0.35010  0.67400  Biso   1.000  C
  H63      1.0000 0.39740  0.31760  0.61240  Biso   1.000  H
  C96      1.0000 0.44150  0.37500  0.57200  Biso   1.000  C
  H64      1.0000 0.46630  0.35950  0.44460  Biso   1.000  H
  C97      1.0000 0.44500  0.42360  0.66500  Biso   1.000  C
  H65      1.0000 0.47250  0.44090  0.59970  Biso   1.000  H
  C98      1.0000 0.40770  0.44620  0.85300  Biso   1.000  C
  H66      1.0000 0.41040  0.47870  0.91380  Biso   1.000  H
  C99      1.0000 0.36590  0.42100  0.95500  Biso   1.000  C
  C100     1.0000 0.32930  0.44500  0.14200  Biso   1.000  C
  H67      1.0000 0.33200  0.47770  0.19880  Biso   1.000  H
  C101     1.0000 0.28870  0.41930  0.24200  Biso   1.000  C
  C102     1.0000 0.25540  0.55440  0.80800  Biso   1.000  C
  H68      1.0000 0.27920  0.57530  0.89500  Biso   1.000  H
  C103     1.0000 0.20730  0.56880  0.80900  Biso   1.000  C
  C104     1.0000 0.17170  0.53760  0.68000  Biso   1.000  C
  H69      1.0000 0.13960  0.54730  0.68070  Biso   1.000  H
  C105     1.0000 0.18420  0.49200  0.55000  Biso   1.000  C
  H70      1.0000 0.16040  0.47120  0.46340  Biso   1.000  H
  C106     1.0000 0.23230  0.47760  0.54900  Biso   1.000  C
  C107     1.0000 0.26780  0.50890  0.67800  Biso   1.000  C
  H71      1.0000 0.30000  0.49920  0.67770  Biso   1.000  H
  C108     1.0000 0.19910  0.61960  0.95400  Biso   1.000  C
  O23      1.0000 0.21430  0.25210  0.85500  Biso   1.000  O
  H72      1.0000 0.19130  0.26440  0.72980  Biso   1.000  H
  O24      1.0000 0.15960  0.62500  0.15200  Biso   1.000  O
  Zn7      1.0000 0.21404  0.71530  0.15440  Biso   1.000  Zn
  N13      1.0000 0.14610  0.73980  0.22200  Biso   1.000  N
  C109     1.0000 0.10870  0.71940  0.06600  Biso   1.000  C
  H73      1.0000 0.11010  0.68910  0.95470  Biso   1.000  H
  N14      1.0000 0.06760  0.74600  0.08100  Biso   1.000  N
  C110     1.0000 0.12940  0.78470  0.35300  Biso   1.000  C
  O25      1.0000 0.85830  0.72780  0.38100  Biso   1.000  O
  C111     1.0000 0.15340  0.82130  0.53900  Biso   1.000  C
  H74      1.0000 0.18600  0.81830  0.59810  Biso   1.000  H
  O26      1.0000 0.86060  0.66120  0.70600  Biso   1.000  O
  C112     1.0000 0.12800  0.86250  0.63600  Biso   1.000  C
  C113     1.0000 0.14990  0.90000  0.82600  Biso   1.000  C
  H75      1.0000 0.18240  0.89740  0.88760  Biso   1.000  H
  C114     1.0000 0.12500  0.94150  0.92800  Biso   1.000  C
  H76      1.0000 0.14050  0.96630  0.05540  Biso   1.000  H
  C115     1.0000 0.07640  0.94500  0.83500  Biso   1.000  C
  H77      1.0000 0.05910  0.97250  0.90030  Biso   1.000  H
  C116     1.0000 0.05380  0.90770  0.64700  Biso   1.000  C
  H78      1.0000 0.02130  0.91040  0.58620  Biso   1.000  H
  C117     1.0000 0.07900  0.86590  0.54500  Biso   1.000  C
  C118     1.0000 0.05500  0.82930  0.35800  Biso   1.000  C
  H79      1.0000 0.02230  0.83200  0.30120  Biso   1.000  H
  C119     1.0000 0.08070  0.78870  0.25800  Biso   1.000  C
  C120     1.0000 0.94560  0.75540  0.69200  Biso   1.000  C
  H80      1.0000 0.92470  0.77920  0.60500  Biso   1.000  H
  C121     1.0000 0.93120  0.70730  0.69100  Biso   1.000  C
  C122     1.0000 0.96240  0.67170  0.82000  Biso   1.000  C
  H81      1.0000 0.95270  0.63960  0.81930  Biso   1.000  H
  C123     1.0000 0.00800  0.68420  0.95000  Biso   1.000  C
  H82      1.0000 0.02880  0.66040  0.03660  Biso   1.000  H
  C124     1.0000 0.02240  0.73230  0.95100  Biso   1.000  C
  C125     1.0000 0.99110  0.76780  0.82200  Biso   1.000  C
  H83      1.0000 0.00080  0.80000  0.82230  Biso   1.000  H
  C126     1.0000 0.88040  0.69910  0.54600  Biso   1.000  C
  O27      1.0000 0.24790  0.71430  0.64500  Biso   1.000  O
  H84      1.0000 0.23560  0.69130  0.77020  Biso   1.000  H
  O28      1.0000 0.87500  0.65960  0.34800  Biso   1.000  O
  Zn8      1.0000 0.78596  0.28470  0.15440  Biso   1.000  Zn
  N15      1.0000 0.85390  0.26020  0.22200  Biso   1.000  N
  C127     1.0000 0.89130  0.28060  0.06600  Biso   1.000  C
  H85      1.0000 0.88990  0.31090  0.95470  Biso   1.000  H
  N16      1.0000 0.93240  0.25400  0.08100  Biso   1.000  N
  C128     1.0000 0.87060  0.21530  0.35300  Biso   1.000  C
  O29      1.0000 0.14170  0.27220  0.38100  Biso   1.000  O
  C129     1.0000 0.84660  0.17870  0.53900  Biso   1.000  C
  H86      1.0000 0.81400  0.18170  0.59810  Biso   1.000  H
  O30      1.0000 0.13940  0.33880  0.70600  Biso   1.000  O
  C130     1.0000 0.87200  0.13750  0.63600  Biso   1.000  C
  C131     1.0000 0.85010  0.10000  0.82600  Biso   1.000  C
  H87      1.0000 0.81760  0.10260  0.88760  Biso   1.000  H
  C132     1.0000 0.87500  0.05850  0.92800  Biso   1.000  C
  H88      1.0000 0.85950  0.03370  0.05540  Biso   1.000  H
  C133     1.0000 0.92360  0.05500  0.83500  Biso   1.000  C
  H89      1.0000 0.94090  0.02750  0.90030  Biso   1.000  H
  C134     1.0000 0.94620  0.09230  0.64700  Biso   1.000  C
  H90      1.0000 0.97870  0.08960  0.58620  Biso   1.000  H
  C135     1.0000 0.92100  0.13410  0.54500  Biso   1.000  C
  C136     1.0000 0.94500  0.17070  0.35800  Biso   1.000  C
  H91      1.0000 0.97770  0.16800  0.30120  Biso   1.000  H
  C137     1.0000 0.91930  0.21130  0.25800  Biso   1.000  C
  C138     1.0000 0.05440  0.24460  0.69200  Biso   1.000  C
  H92      1.0000 0.07530  0.22080  0.60500  Biso   1.000  H
  C139     1.0000 0.06880  0.29270  0.69100  Biso   1.000  C
  C140     1.0000 0.03760  0.32830  0.82000  Biso   1.000  C
  H93      1.0000 0.04730  0.36040  0.81930  Biso   1.000  H
  C141     1.0000 0.99200  0.31580  0.95000  Biso   1.000  C
  H94      1.0000 0.97120  0.33960  0.03660  Biso   1.000  H
  C142     1.0000 0.97760  0.26770  0.95100  Biso   1.000  C
  C143     1.0000 0.00890  0.23220  0.82200  Biso   1.000  C
  H95      1.0000 0.99920  0.20000  0.82230  Biso   1.000  H
  C144     1.0000 0.11960  0.30090  0.54600  Biso   1.000  C
  O31      1.0000 0.75210  0.28570  0.64500  Biso   1.000  O
  H96      1.0000 0.76440  0.30870  0.77020  Biso   1.000  H
  O32      1.0000 0.12500  0.34040  0.34800  Biso   1.000  O
