data_image0
_cell_length_a       12.6177
_cell_length_b       12.5869
_cell_length_c       28.561
_cell_angle_alpha    90
_cell_angle_beta     96.843
_cell_angle_gamma    90

_symmetry_space_group_name_H-M    "P 1"
_symmetry_int_tables_number       1

loop_
  _symmetry_equiv_pos_as_xyz
  'x, y, z'

loop_
  _atom_site_label
  _atom_site_occupancy
  _atom_site_fract_x
  _atom_site_fract_y
  _atom_site_fract_z
  _atom_site_thermal_displace_type
  _atom_site_B_iso_or_equiv
  _atom_site_type_symbol
  Cd1      1.0000 0.56515  0.33110  0.61116  Biso   1.000  Cd
  Cd2      1.0000 0.35594  0.54012  0.60874  Biso   1.000  Cd
  O1       1.0000 0.44200  0.42810  0.56360  Biso   1.000  O
  N1       1.0000 0.97580  0.06600  0.84640  Biso   1.000  N
  N2       1.0000 0.52740  0.76580  0.53310  Biso   1.000  N
  N3       1.0000 0.90000  0.99110  0.84520  Biso   1.000  N
  N4       1.0000 0.94550  0.13680  0.81200  Biso   1.000  N
  N5       1.0000 0.67940  0.24320  0.67000  Biso   1.000  N
  N6       1.0000 0.32290  0.52880  0.46090  Biso   1.000  N
  N7       1.0000 0.52480  0.15960  0.57900  Biso   1.000  N
  N8       1.0000 0.08000  0.81250  0.84140  Biso   1.000  N
  N9       1.0000 0.21300  0.87030  0.80760  Biso   1.000  N
  N10      1.0000 0.39020  0.78350  0.57420  Biso   1.000  N
  N11      1.0000 0.48200  0.66870  0.53620  Biso   1.000  N
  N12      1.0000 0.20140  0.62920  0.42360  Biso   1.000  N
  N13      1.0000 0.15180  0.88790  0.84200  Biso   1.000  N
  N14      1.0000 0.40200  0.68050  0.56130  Biso   1.000  N
  C1       1.0000 0.85270  0.10110  0.79190  Biso   1.000  C
  N15      1.0000 0.82140  0.01240  0.81210  Biso   1.000  N
  C2       1.0000 0.15800  0.54370  0.44320  Biso   1.000  C
  C3       1.0000 0.17410  0.77940  0.78740  Biso   1.000  C
  N16      1.0000 0.09230  0.74260  0.80870  Biso   1.000  N
  C4       1.0000 0.83020  0.24340  0.72930  Biso   1.000  C
  H1       1.0000 0.89140  0.27750  0.74320  Biso   1.000  H
  N17      1.0000 0.28080  0.64350  0.66430  Biso   1.000  N
  C5       1.0000 0.79300  0.15020  0.75030  Biso   1.000  C
  C6       1.0000 0.69390  0.11100  0.73110  Biso   1.000  C
  H2       1.0000 0.66250  0.05430  0.74510  Biso   1.000  H
  N18      1.0000 0.23030  0.48120  0.46630  Biso   1.000  N
  C7       1.0000 0.96990  0.60820  0.42250  Biso   1.000  C
  H3       1.0000 0.99620  0.67510  0.41620  Biso   1.000  H
  N19      1.0000 0.30470  0.61530  0.43630  Biso   1.000  N
  C8       1.0000 0.04000  0.52900  0.43740  Biso   1.000  C
  C9       1.0000 0.60030  0.09970  0.56330  Biso   1.000  C
  H4       1.0000 0.66450  0.13160  0.55840  Biso   1.000  H
  C10      1.0000 0.41210  0.01080  0.57710  Biso   1.000  C
  H5       1.0000 0.34610  0.98260  0.58190  Biso   1.000  H
  C11      1.0000 0.49160  0.94430  0.56220  Biso   1.000  C
  C12      1.0000 0.77610  0.28290  0.68870  Biso   1.000  C
  H6       1.0000 0.80610  0.33850  0.67340  Biso   1.000  H
  N20      1.0000 0.82060  0.49310  0.42290  Biso   1.000  N
  C13      1.0000 0.43200  0.11670  0.58450  Biso   1.000  C
  H7       1.0000 0.37820  0.15970  0.59360  Biso   1.000  H
  C14      1.0000 0.58750  0.99250  0.55400  Biso   1.000  C
  H8       1.0000 0.64140  0.95330  0.54260  Biso   1.000  H
  C15      1.0000 0.21390  0.73260  0.74670  Biso   1.000  C
  C16      1.0000 0.47020  0.83170  0.55610  Biso   1.000  C
  C17      1.0000 0.16500  0.64220  0.72500  Biso   1.000  C
  H9       1.0000 0.10830  0.61030  0.73760  Biso   1.000  H
  C18      1.0000 0.88740  0.41510  0.43830  Biso   1.000  C
  H10      1.0000 0.85910  0.34910  0.44450  Biso   1.000  H
  C19      1.0000 0.29610  0.77750  0.72460  Biso   1.000  C
  H11      1.0000 0.32910  0.83950  0.73660  Biso   1.000  H
  C20      1.0000 0.64380  0.15780  0.69100  Biso   1.000  C
  H12      1.0000 0.58020  0.12770  0.67740  Biso   1.000  H
  C21      1.0000 0.19950  0.60090  0.68550  Biso   1.000  C
  H13      1.0000 0.16590  0.54040  0.67240  Biso   1.000  H
  C22      1.0000 0.86320  0.59150  0.41680  Biso   1.000  C
  H14      1.0000 0.81760  0.64830  0.40840  Biso   1.000  H
  C23      1.0000 0.32890  0.73040  0.68490  Biso   1.000  C
  H15      1.0000 0.38630  0.75980  0.67190  Biso   1.000  H
  C24      1.0000 0.99490  0.42780  0.44510  Biso   1.000  C
  H16      1.0000 0.03890  0.37060  0.45480  Biso   1.000  H
  Cd3      1.0000 0.93485  0.83110  0.88884  Biso   1.000  Cd
  Cd4      1.0000 0.14406  0.04012  0.89126  Biso   1.000  Cd
  O2       1.0000 0.05800  0.92810  0.93640  Biso   1.000  O
  N21      1.0000 0.52420  0.56600  0.65360  Biso   1.000  N
  N22      1.0000 0.97260  0.26580  0.96690  Biso   1.000  N
  N23      1.0000 0.60000  0.49110  0.65480  Biso   1.000  N
  N24      1.0000 0.55450  0.63680  0.68800  Biso   1.000  N
  N25      1.0000 0.82060  0.74320  0.83000  Biso   1.000  N
  N26      1.0000 0.17710  0.02880  0.03910  Biso   1.000  N
  N27      1.0000 0.97520  0.65960  0.92100  Biso   1.000  N
  N28      1.0000 0.42000  0.31250  0.65860  Biso   1.000  N
  N29      1.0000 0.28700  0.37030  0.69240  Biso   1.000  N
  N30      1.0000 0.10980  0.28350  0.92580  Biso   1.000  N
  N31      1.0000 0.01800  0.16870  0.96380  Biso   1.000  N
  N32      1.0000 0.29860  0.12920  0.07640  Biso   1.000  N
  N33      1.0000 0.34820  0.38790  0.65800  Biso   1.000  N
  N34      1.0000 0.09800  0.18050  0.93870  Biso   1.000  N
  C25      1.0000 0.64730  0.60110  0.70810  Biso   1.000  C
  N35      1.0000 0.67860  0.51240  0.68790  Biso   1.000  N
  C26      1.0000 0.34200  0.04370  0.05680  Biso   1.000  C
  C27      1.0000 0.32590  0.27940  0.71260  Biso   1.000  C
  N36      1.0000 0.40770  0.24260  0.69130  Biso   1.000  N
  C28      1.0000 0.66980  0.74340  0.77070  Biso   1.000  C
  H17      1.0000 0.60860  0.77750  0.75680  Biso   1.000  H
  N37      1.0000 0.21920  0.14350  0.83570  Biso   1.000  N
  C29      1.0000 0.70700  0.65020  0.74970  Biso   1.000  C
  C30      1.0000 0.80610  0.61100  0.76890  Biso   1.000  C
  H18      1.0000 0.83750  0.55430  0.75490  Biso   1.000  H
  N38      1.0000 0.26970  0.98120  0.03370  Biso   1.000  N
  C31      1.0000 0.53010  0.10820  0.07750  Biso   1.000  C
  H19      1.0000 0.50380  0.17510  0.08380  Biso   1.000  H
  N39      1.0000 0.19530  0.11530  0.06370  Biso   1.000  N
  C32      1.0000 0.46000  0.02900  0.06260  Biso   1.000  C
  C33      1.0000 0.89970  0.59970  0.93670  Biso   1.000  C
  H20      1.0000 0.83550  0.63160  0.94160  Biso   1.000  H
  C34      1.0000 0.08790  0.51080  0.92290  Biso   1.000  C
  H21      1.0000 0.15390  0.48260  0.91810  Biso   1.000  H
  C35      1.0000 0.00840  0.44430  0.93780  Biso   1.000  C
  C36      1.0000 0.72390  0.78290  0.81130  Biso   1.000  C
  H22      1.0000 0.69390  0.83850  0.82660  Biso   1.000  H
  N40      1.0000 0.67940  0.99310  0.07710  Biso   1.000  N
  C37      1.0000 0.06800  0.61670  0.91550  Biso   1.000  C
  H23      1.0000 0.12180  0.65970  0.90640  Biso   1.000  H
  C38      1.0000 0.91250  0.49250  0.94600  Biso   1.000  C
  H24      1.0000 0.85860  0.45330  0.95740  Biso   1.000  H
  C39      1.0000 0.28610  0.23260  0.75330  Biso   1.000  C
  C40      1.0000 0.02980  0.33170  0.94390  Biso   1.000  C
  C41      1.0000 0.33500  0.14220  0.77500  Biso   1.000  C
  H25      1.0000 0.39170  0.11030  0.76240  Biso   1.000  H
  C42      1.0000 0.61260  0.91510  0.06170  Biso   1.000  C
  H26      1.0000 0.64090  0.84910  0.05550  Biso   1.000  H
  C43      1.0000 0.20390  0.27750  0.77540  Biso   1.000  C
  H27      1.0000 0.17090  0.33950  0.76340  Biso   1.000  H
  C44      1.0000 0.85620  0.65780  0.80900  Biso   1.000  C
  H28      1.0000 0.91980  0.62770  0.82260  Biso   1.000  H
  C45      1.0000 0.30050  0.10090  0.81450  Biso   1.000  C
  H29      1.0000 0.33410  0.04040  0.82760  Biso   1.000  H
  C46      1.0000 0.63680  0.09150  0.08320  Biso   1.000  C
  H30      1.0000 0.68240  0.14830  0.09160  Biso   1.000  H
  C47      1.0000 0.17110  0.23040  0.81510  Biso   1.000  C
  H31      1.0000 0.11370  0.25980  0.82810  Biso   1.000  H
  C48      1.0000 0.50510  0.92780  0.05490  Biso   1.000  C
  H32      1.0000 0.46110  0.87060  0.04520  Biso   1.000  H
  Cd5      1.0000 0.43485  0.66890  0.38884  Biso   1.000  Cd
  Cd6      1.0000 0.64406  0.45988  0.39126  Biso   1.000  Cd
  O3       1.0000 0.55800  0.57190  0.43640  Biso   1.000  O
  N41      1.0000 0.02420  0.93400  0.15360  Biso   1.000  N
  N42      1.0000 0.47260  0.23420  0.46690  Biso   1.000  N
  N43      1.0000 0.10000  0.00890  0.15480  Biso   1.000  N
  N44      1.0000 0.05450  0.86320  0.18800  Biso   1.000  N
  N45      1.0000 0.32060  0.75680  0.33000  Biso   1.000  N
  N46      1.0000 0.67710  0.47120  0.53910  Biso   1.000  N
  N47      1.0000 0.47520  0.84040  0.42100  Biso   1.000  N
  N48      1.0000 0.92000  0.18750  0.15860  Biso   1.000  N
  N49      1.0000 0.78700  0.12970  0.19240  Biso   1.000  N
  N50      1.0000 0.60980  0.21650  0.42580  Biso   1.000  N
  N51      1.0000 0.51800  0.33130  0.46380  Biso   1.000  N
  N52      1.0000 0.79860  0.37080  0.57640  Biso   1.000  N
  N53      1.0000 0.84820  0.11210  0.15800  Biso   1.000  N
  N54      1.0000 0.59800  0.31950  0.43870  Biso   1.000  N
  C49      1.0000 0.14730  0.89890  0.20810  Biso   1.000  C
  N55      1.0000 0.17860  0.98760  0.18790  Biso   1.000  N
  C50      1.0000 0.84200  0.45630  0.55680  Biso   1.000  C
  C51      1.0000 0.82590  0.22060  0.21260  Biso   1.000  C
  N56      1.0000 0.90770  0.25740  0.19130  Biso   1.000  N
  C52      1.0000 0.16980  0.75660  0.27070  Biso   1.000  C
  H33      1.0000 0.10860  0.72250  0.25680  Biso   1.000  H
  N57      1.0000 0.71920  0.35650  0.33570  Biso   1.000  N
  C53      1.0000 0.20700  0.84980  0.24970  Biso   1.000  C
  C54      1.0000 0.30610  0.88900  0.26890  Biso   1.000  C
  H34      1.0000 0.33750  0.94570  0.25490  Biso   1.000  H
  N58      1.0000 0.76970  0.51880  0.53370  Biso   1.000  N
  C55      1.0000 0.03010  0.39180  0.57750  Biso   1.000  C
  H35      1.0000 0.00380  0.32490  0.58380  Biso   1.000  H
  N59      1.0000 0.69530  0.38470  0.56370  Biso   1.000  N
  C56      1.0000 0.96000  0.47100  0.56260  Biso   1.000  C
  C57      1.0000 0.39970  0.90030  0.43670  Biso   1.000  C
  H36      1.0000 0.33550  0.86840  0.44160  Biso   1.000  H
  C58      1.0000 0.58790  0.98920  0.42290  Biso   1.000  C
  H37      1.0000 0.65390  0.01740  0.41810  Biso   1.000  H
  C59      1.0000 0.50840  0.05570  0.43780  Biso   1.000  C
  C60      1.0000 0.22390  0.71710  0.31130  Biso   1.000  C
  H38      1.0000 0.19390  0.66150  0.32660  Biso   1.000  H
  N60      1.0000 0.17940  0.50690  0.57710  Biso   1.000  N
  C61      1.0000 0.56800  0.88330  0.41550  Biso   1.000  C
  H39      1.0000 0.62180  0.84030  0.40640  Biso   1.000  H
  C62      1.0000 0.41250  0.00750  0.44600  Biso   1.000  C
  H40      1.0000 0.35860  0.04670  0.45740  Biso   1.000  H
  C63      1.0000 0.78610  0.26740  0.25330  Biso   1.000  C
  C64      1.0000 0.52980  0.16830  0.44390  Biso   1.000  C
  C65      1.0000 0.83500  0.35780  0.27500  Biso   1.000  C
  H41      1.0000 0.89170  0.38970  0.26240  Biso   1.000  H
  C66      1.0000 0.11260  0.58490  0.56170  Biso   1.000  C
  H42      1.0000 0.14090  0.65090  0.55550  Biso   1.000  H
  C67      1.0000 0.70390  0.22250  0.27540  Biso   1.000  C
  H43      1.0000 0.67090  0.16050  0.26340  Biso   1.000  H
  C68      1.0000 0.35620  0.84220  0.30900  Biso   1.000  C
  H44      1.0000 0.41980  0.87230  0.32260  Biso   1.000  H
  C69      1.0000 0.80050  0.39910  0.31450  Biso   1.000  C
  H45      1.0000 0.83410  0.45960  0.32760  Biso   1.000  H
  C70      1.0000 0.13680  0.40850  0.58320  Biso   1.000  C
  H46      1.0000 0.18240  0.35170  0.59160  Biso   1.000  H
  C71      1.0000 0.67110  0.26960  0.31510  Biso   1.000  C
  H47      1.0000 0.61370  0.24020  0.32810  Biso   1.000  H
  C72      1.0000 0.00510  0.57220  0.55490  Biso   1.000  C
  H48      1.0000 0.96110  0.62940  0.54520  Biso   1.000  H
  Cd7      1.0000 0.06515  0.16890  0.11116  Biso   1.000  Cd
  Cd8      1.0000 0.85594  0.95988  0.10874  Biso   1.000  Cd
  O4       1.0000 0.94200  0.07190  0.06360  Biso   1.000  O
  N61      1.0000 0.47580  0.43400  0.34640  Biso   1.000  N
  N62      1.0000 0.02740  0.73420  0.03310  Biso   1.000  N
  N63      1.0000 0.40000  0.50890  0.34520  Biso   1.000  N
  N64      1.0000 0.44550  0.36320  0.31200  Biso   1.000  N
  N65      1.0000 0.17940  0.25680  0.17000  Biso   1.000  N
  N66      1.0000 0.82290  0.97120  0.96090  Biso   1.000  N
  N67      1.0000 0.02480  0.34040  0.07900  Biso   1.000  N
  N68      1.0000 0.58000  0.68750  0.34140  Biso   1.000  N
  N69      1.0000 0.71300  0.62970  0.30760  Biso   1.000  N
  N70      1.0000 0.89020  0.71650  0.07420  Biso   1.000  N
  N71      1.0000 0.98200  0.83130  0.03620  Biso   1.000  N
  N72      1.0000 0.70140  0.87080  0.92360  Biso   1.000  N
  N73      1.0000 0.65180  0.61210  0.34200  Biso   1.000  N
  N74      1.0000 0.90200  0.81950  0.06130  Biso   1.000  N
  C73      1.0000 0.35270  0.39890  0.29190  Biso   1.000  C
  N75      1.0000 0.32140  0.48760  0.31210  Biso   1.000  N
  C74      1.0000 0.65800  0.95630  0.94320  Biso   1.000  C
  C75      1.0000 0.67410  0.72060  0.28740  Biso   1.000  C
  N76      1.0000 0.59230  0.75740  0.30870  Biso   1.000  N
  C76      1.0000 0.33020  0.25660  0.22930  Biso   1.000  C
  H49      1.0000 0.39140  0.22250  0.24320  Biso   1.000  H
  N77      1.0000 0.78080  0.85650  0.16430  Biso   1.000  N
  C77      1.0000 0.29300  0.34980  0.25030  Biso   1.000  C
  C78      1.0000 0.19390  0.38900  0.23110  Biso   1.000  C
  H50      1.0000 0.16250  0.44570  0.24510  Biso   1.000  H
  N78      1.0000 0.73030  0.01880  0.96630  Biso   1.000  N
  C79      1.0000 0.46990  0.89180  0.92250  Biso   1.000  C
  H51      1.0000 0.49620  0.82490  0.91620  Biso   1.000  H
  N79      1.0000 0.80470  0.88470  0.93630  Biso   1.000  N
  C80      1.0000 0.54000  0.97100  0.93740  Biso   1.000  C
  C81      1.0000 0.10030  0.40030  0.06330  Biso   1.000  C
  H52      1.0000 0.16450  0.36840  0.05840  Biso   1.000  H
  C82      1.0000 0.91210  0.48920  0.07710  Biso   1.000  C
  H53      1.0000 0.84610  0.51740  0.08190  Biso   1.000  H
  C83      1.0000 0.99160  0.55570  0.06220  Biso   1.000  C
  C84      1.0000 0.27610  0.21710  0.18870  Biso   1.000  C
  H54      1.0000 0.30610  0.16150  0.17340  Biso   1.000  H
  N80      1.0000 0.32060  0.00690  0.92290  Biso   1.000  N
  C85      1.0000 0.93200  0.38330  0.08450  Biso   1.000  C
  H55      1.0000 0.87820  0.34030  0.09360  Biso   1.000  H
  C86      1.0000 0.08750  0.50750  0.05400  Biso   1.000  C
  H56      1.0000 0.14140  0.54670  0.04260  Biso   1.000  H
  C87      1.0000 0.71390  0.76740  0.24670  Biso   1.000  C
  C88      1.0000 0.97020  0.66830  0.05610  Biso   1.000  C
  C89      1.0000 0.66500  0.85780  0.22500  Biso   1.000  C
  H57      1.0000 0.60830  0.88970  0.23760  Biso   1.000  H
  C90      1.0000 0.38740  0.08490  0.93830  Biso   1.000  C
  H58      1.0000 0.35910  0.15090  0.94450  Biso   1.000  H
  C91      1.0000 0.79610  0.72250  0.22460  Biso   1.000  C
  H59      1.0000 0.82910  0.66050  0.23660  Biso   1.000  H
  C92      1.0000 0.14380  0.34220  0.19100  Biso   1.000  C
  H60      1.0000 0.08020  0.37230  0.17740  Biso   1.000  H
  C93      1.0000 0.69950  0.89910  0.18550  Biso   1.000  C
  H61      1.0000 0.66590  0.95960  0.17240  Biso   1.000  H
  C94      1.0000 0.36320  0.90850  0.91680  Biso   1.000  C
  H62      1.0000 0.31760  0.85170  0.90840  Biso   1.000  H
  C95      1.0000 0.82890  0.76960  0.18490  Biso   1.000  C
  H63      1.0000 0.88630  0.74020  0.17190  Biso   1.000  H
  C96      1.0000 0.49490  0.07220  0.94510  Biso   1.000  C
  H64      1.0000 0.53890  0.12940  0.95480  Biso   1.000  H
  Cd9      1.0000 0.50000  0.50000  0.50000  Biso   1.000  Cd
  Cd10     1.0000 0.00000  0.00000  0.00000  Biso   1.000  Cd
