data_image0
_cell_length_a       14.044
_cell_length_b       20.297
_cell_length_c       23.635
_cell_angle_alpha    90
_cell_angle_beta     90
_cell_angle_gamma    90

_symmetry_space_group_name_H-M    "P 1"
_symmetry_int_tables_number       1

loop_
  _symmetry_equiv_pos_as_xyz
  'x, y, z'

loop_
  _atom_site_label
  _atom_site_occupancy
  _atom_site_fract_x
  _atom_site_fract_y
  _atom_site_fract_z
  _atom_site_thermal_displace_type
  _atom_site_B_iso_or_equiv
  _atom_site_type_symbol
  N1       1.0000 0.47960  0.70400  0.08320  Biso   1.000  N
  C1       1.0000 0.56460  0.68320  0.08050  Biso   1.000  C
  H1       1.0000 0.59230  0.67080  0.11470  Biso   1.000  H
  C2       1.0000 0.44100  0.72060  0.03330  Biso   1.000  C
  H2       1.0000 0.37930  0.73720  0.03280  Biso   1.000  H
  Cd1      1.0000 0.89999  0.73070  0.83136  Biso   1.000  Cd
  N2       1.0000 0.88700  0.84270  0.85650  Biso   1.000  N
  N3       1.0000 0.88140  0.86390  0.90710  Biso   1.000  N
  N4       1.0000 0.87490  0.92870  0.90410  Biso   1.000  N
  N5       1.0000 0.88460  0.89100  0.81810  Biso   1.000  N
  N6       1.0000 0.85530  0.14330  0.78860  Biso   1.000  N
  N7       1.0000 0.75040  0.70230  0.87190  Biso   1.000  N
  N8       1.0000 0.66750  0.70720  0.84320  Biso   1.000  N
  N9       1.0000 0.59380  0.70390  0.87820  Biso   1.000  N
  N10      1.0000 0.72940  0.69380  0.92630  Biso   1.000  N
  N11      1.0000 0.03920  0.75250  0.77930  Biso   1.000  N
  N12      1.0000 0.12750  0.74940  0.79730  Biso   1.000  N
  C3       1.0000 0.88110  0.94480  0.84990  Biso   1.000  C
  C4       1.0000 0.87420  0.01290  0.82870  Biso   1.000  C
  C5       1.0000 0.86540  0.06530  0.86580  Biso   1.000  C
  H3       1.0000 0.86550  0.05810  0.90460  Biso   1.000  H
  C6       1.0000 0.87120  0.02850  0.77000  Biso   1.000  C
  H4       1.0000 0.87320  0.99540  0.74280  Biso   1.000  H
  C7       1.0000 0.85640  0.12950  0.84430  Biso   1.000  C
  H5       1.0000 0.85090  0.16420  0.86980  Biso   1.000  H
  C8       1.0000 0.86540  0.09160  0.75470  Biso   1.000  C
  H6       1.0000 0.86880  0.10040  0.71620  Biso   1.000  H
  C9       1.0000 0.63400  0.69640  0.93050  Biso   1.000  C
  C10      1.0000 0.58070  0.69470  0.98210  Biso   1.000  C
  C11      1.0000 0.48790  0.71430  0.98350  Biso   1.000  C
  H7       1.0000 0.45640  0.72340  0.94980  Biso   1.000  H
  C12      1.0000 0.62210  0.67660  0.03190  Biso   1.000  C
  H8       1.0000 0.68420  0.66090  0.03370  Biso   1.000  H
  C13      1.0000 0.43700  0.76440  0.79690  Biso   1.000  C
  H9       1.0000 0.47010  0.77470  0.82980  Biso   1.000  H
  C14      1.0000 0.34060  0.76440  0.79800  Biso   1.000  C
  H10      1.0000 0.31010  0.77430  0.83190  Biso   1.000  H
  N13      1.0000 0.02040  0.29600  0.08320  Biso   1.000  N
  C15      1.0000 0.93540  0.31680  0.08050  Biso   1.000  C
  H11      1.0000 0.90770  0.32920  0.11470  Biso   1.000  H
  C16      1.0000 0.05900  0.27940  0.03330  Biso   1.000  C
  H12      1.0000 0.12070  0.26280  0.03280  Biso   1.000  H
  Cd2      1.0000 0.60001  0.26930  0.83136  Biso   1.000  Cd
  N14      1.0000 0.61300  0.15730  0.85650  Biso   1.000  N
  N15      1.0000 0.61860  0.13610  0.90710  Biso   1.000  N
  N16      1.0000 0.62510  0.07130  0.90410  Biso   1.000  N
  N17      1.0000 0.61540  0.10900  0.81810  Biso   1.000  N
  N18      1.0000 0.64470  0.85670  0.78860  Biso   1.000  N
  N19      1.0000 0.74960  0.29770  0.87190  Biso   1.000  N
  N20      1.0000 0.83250  0.29280  0.84320  Biso   1.000  N
  N21      1.0000 0.90620  0.29610  0.87820  Biso   1.000  N
  N22      1.0000 0.77060  0.30620  0.92630  Biso   1.000  N
  N23      1.0000 0.46080  0.24750  0.77930  Biso   1.000  N
  N24      1.0000 0.37250  0.25060  0.79730  Biso   1.000  N
  C17      1.0000 0.61890  0.05520  0.84990  Biso   1.000  C
  C18      1.0000 0.62580  0.98710  0.82870  Biso   1.000  C
  C19      1.0000 0.63460  0.93470  0.86580  Biso   1.000  C
  H13      1.0000 0.63450  0.94190  0.90460  Biso   1.000  H
  C20      1.0000 0.62880  0.97150  0.77000  Biso   1.000  C
  H14      1.0000 0.62680  0.00460  0.74280  Biso   1.000  H
  C21      1.0000 0.64360  0.87050  0.84430  Biso   1.000  C
  H15      1.0000 0.64910  0.83580  0.86980  Biso   1.000  H
  C22      1.0000 0.63460  0.90840  0.75470  Biso   1.000  C
  H16      1.0000 0.63120  0.89960  0.71620  Biso   1.000  H
  C23      1.0000 0.86600  0.30360  0.93050  Biso   1.000  C
  C24      1.0000 0.91930  0.30530  0.98210  Biso   1.000  C
  C25      1.0000 0.01210  0.28570  0.98350  Biso   1.000  C
  H17      1.0000 0.04360  0.27660  0.94980  Biso   1.000  H
  C26      1.0000 0.87790  0.32340  0.03190  Biso   1.000  C
  H18      1.0000 0.81580  0.33910  0.03370  Biso   1.000  H
  C27      1.0000 0.06300  0.23560  0.79690  Biso   1.000  C
  H19      1.0000 0.02990  0.22530  0.82980  Biso   1.000  H
  C28      1.0000 0.15940  0.23560  0.79800  Biso   1.000  C
  H20      1.0000 0.18990  0.22570  0.83190  Biso   1.000  H
  N25      1.0000 0.02040  0.20400  0.41680  Biso   1.000  N
  C29      1.0000 0.93540  0.18320  0.41950  Biso   1.000  C
  H21      1.0000 0.90770  0.17080  0.38530  Biso   1.000  H
  C30      1.0000 0.05900  0.22060  0.46670  Biso   1.000  C
  H22      1.0000 0.12070  0.23720  0.46720  Biso   1.000  H
  Cd3      1.0000 0.60001  0.23070  0.66864  Biso   1.000  Cd
  N26      1.0000 0.61300  0.34270  0.64350  Biso   1.000  N
  N27      1.0000 0.61860  0.36390  0.59290  Biso   1.000  N
  N28      1.0000 0.62510  0.42870  0.59590  Biso   1.000  N
  N29      1.0000 0.61540  0.39100  0.68190  Biso   1.000  N
  N30      1.0000 0.64470  0.64330  0.71140  Biso   1.000  N
  N31      1.0000 0.74960  0.20230  0.62810  Biso   1.000  N
  N32      1.0000 0.83250  0.20720  0.65680  Biso   1.000  N
  N33      1.0000 0.90620  0.20390  0.62180  Biso   1.000  N
  N34      1.0000 0.77060  0.19380  0.57370  Biso   1.000  N
  N35      1.0000 0.46080  0.25250  0.72070  Biso   1.000  N
  N36      1.0000 0.37250  0.24940  0.70270  Biso   1.000  N
  C31      1.0000 0.61890  0.44480  0.65010  Biso   1.000  C
  C32      1.0000 0.62580  0.51290  0.67130  Biso   1.000  C
  C33      1.0000 0.63460  0.56530  0.63420  Biso   1.000  C
  H23      1.0000 0.63450  0.55810  0.59540  Biso   1.000  H
  C34      1.0000 0.62880  0.52850  0.73000  Biso   1.000  C
  H24      1.0000 0.62680  0.49540  0.75720  Biso   1.000  H
  C35      1.0000 0.64360  0.62950  0.65570  Biso   1.000  C
  H25      1.0000 0.64910  0.66420  0.63020  Biso   1.000  H
  C36      1.0000 0.63460  0.59160  0.74530  Biso   1.000  C
  H26      1.0000 0.63120  0.60040  0.78380  Biso   1.000  H
  C37      1.0000 0.86600  0.19640  0.56950  Biso   1.000  C
  C38      1.0000 0.91930  0.19470  0.51790  Biso   1.000  C
  C39      1.0000 0.01210  0.21430  0.51650  Biso   1.000  C
  H27      1.0000 0.04360  0.22340  0.55020  Biso   1.000  H
  C40      1.0000 0.87790  0.17660  0.46810  Biso   1.000  C
  H28      1.0000 0.81580  0.16090  0.46630  Biso   1.000  H
  C41      1.0000 0.06300  0.26440  0.70310  Biso   1.000  C
  H29      1.0000 0.02990  0.27470  0.67020  Biso   1.000  H
  C42      1.0000 0.15940  0.26440  0.70200  Biso   1.000  C
  H30      1.0000 0.18990  0.27430  0.66810  Biso   1.000  H
  N37      1.0000 0.47960  0.79600  0.41680  Biso   1.000  N
  C43      1.0000 0.56460  0.81680  0.41950  Biso   1.000  C
  H31      1.0000 0.59230  0.82920  0.38530  Biso   1.000  H
  C44      1.0000 0.44100  0.77940  0.46670  Biso   1.000  C
  H32      1.0000 0.37930  0.76280  0.46720  Biso   1.000  H
  Cd4      1.0000 0.89999  0.76930  0.66864  Biso   1.000  Cd
  N38      1.0000 0.88700  0.65730  0.64350  Biso   1.000  N
  N39      1.0000 0.88140  0.63610  0.59290  Biso   1.000  N
  N40      1.0000 0.87490  0.57130  0.59590  Biso   1.000  N
  N41      1.0000 0.88460  0.60900  0.68190  Biso   1.000  N
  N42      1.0000 0.85530  0.35670  0.71140  Biso   1.000  N
  N43      1.0000 0.75040  0.79770  0.62810  Biso   1.000  N
  N44      1.0000 0.66750  0.79280  0.65680  Biso   1.000  N
  N45      1.0000 0.59380  0.79610  0.62180  Biso   1.000  N
  N46      1.0000 0.72940  0.80620  0.57370  Biso   1.000  N
  N47      1.0000 0.03920  0.74750  0.72070  Biso   1.000  N
  N48      1.0000 0.12750  0.75060  0.70270  Biso   1.000  N
  C45      1.0000 0.88110  0.55520  0.65010  Biso   1.000  C
  C46      1.0000 0.87420  0.48710  0.67130  Biso   1.000  C
  C47      1.0000 0.86540  0.43470  0.63420  Biso   1.000  C
  H33      1.0000 0.86550  0.44190  0.59540  Biso   1.000  H
  C48      1.0000 0.87120  0.47150  0.73000  Biso   1.000  C
  H34      1.0000 0.87320  0.50460  0.75720  Biso   1.000  H
  C49      1.0000 0.85640  0.37050  0.65570  Biso   1.000  C
  H35      1.0000 0.85090  0.33580  0.63020  Biso   1.000  H
  C50      1.0000 0.86540  0.40840  0.74530  Biso   1.000  C
  H36      1.0000 0.86880  0.39960  0.78380  Biso   1.000  H
  C51      1.0000 0.63400  0.80360  0.56950  Biso   1.000  C
  C52      1.0000 0.58070  0.80530  0.51790  Biso   1.000  C
  C53      1.0000 0.48790  0.78570  0.51650  Biso   1.000  C
  H37      1.0000 0.45640  0.77660  0.55020  Biso   1.000  H
  C54      1.0000 0.62210  0.82340  0.46810  Biso   1.000  C
  H38      1.0000 0.68420  0.83910  0.46630  Biso   1.000  H
  C55      1.0000 0.43700  0.73560  0.70310  Biso   1.000  C
  H39      1.0000 0.47010  0.72530  0.67020  Biso   1.000  H
  C56      1.0000 0.34060  0.73560  0.70200  Biso   1.000  C
  H40      1.0000 0.31010  0.72570  0.66810  Biso   1.000  H
  N49      1.0000 0.52040  0.29600  0.91680  Biso   1.000  N
  C57      1.0000 0.43540  0.31680  0.91950  Biso   1.000  C
  H41      1.0000 0.40770  0.32920  0.88530  Biso   1.000  H
  C58      1.0000 0.55900  0.27940  0.96670  Biso   1.000  C
  H42      1.0000 0.62070  0.26280  0.96720  Biso   1.000  H
  Cd5      1.0000 0.10001  0.26930  0.16864  Biso   1.000  Cd
  N50      1.0000 0.11300  0.15730  0.14350  Biso   1.000  N
  N51      1.0000 0.11860  0.13610  0.09290  Biso   1.000  N
  N52      1.0000 0.12510  0.07130  0.09590  Biso   1.000  N
  N53      1.0000 0.11540  0.10900  0.18190  Biso   1.000  N
  N54      1.0000 0.14470  0.85670  0.21140  Biso   1.000  N
  N55      1.0000 0.24960  0.29770  0.12810  Biso   1.000  N
  N56      1.0000 0.33250  0.29280  0.15680  Biso   1.000  N
  N57      1.0000 0.40620  0.29610  0.12180  Biso   1.000  N
  N58      1.0000 0.27060  0.30620  0.07370  Biso   1.000  N
  N59      1.0000 0.96080  0.24750  0.22070  Biso   1.000  N
  N60      1.0000 0.87250  0.25060  0.20270  Biso   1.000  N
  C59      1.0000 0.11890  0.05520  0.15010  Biso   1.000  C
  C60      1.0000 0.12580  0.98710  0.17130  Biso   1.000  C
  C61      1.0000 0.13460  0.93470  0.13420  Biso   1.000  C
  H43      1.0000 0.13450  0.94190  0.09540  Biso   1.000  H
  C62      1.0000 0.12880  0.97150  0.23000  Biso   1.000  C
  H44      1.0000 0.12680  0.00460  0.25720  Biso   1.000  H
  C63      1.0000 0.14360  0.87050  0.15570  Biso   1.000  C
  H45      1.0000 0.14910  0.83580  0.13020  Biso   1.000  H
  C64      1.0000 0.13460  0.90840  0.24530  Biso   1.000  C
  H46      1.0000 0.13120  0.89960  0.28380  Biso   1.000  H
  C65      1.0000 0.36600  0.30360  0.06950  Biso   1.000  C
  C66      1.0000 0.41930  0.30530  0.01790  Biso   1.000  C
  C67      1.0000 0.51210  0.28570  0.01650  Biso   1.000  C
  H47      1.0000 0.54360  0.27660  0.05020  Biso   1.000  H
  C68      1.0000 0.37790  0.32340  0.96810  Biso   1.000  C
  H48      1.0000 0.31580  0.33910  0.96630  Biso   1.000  H
  C69      1.0000 0.56300  0.23560  0.20310  Biso   1.000  C
  H49      1.0000 0.52990  0.22530  0.17020  Biso   1.000  H
  C70      1.0000 0.65940  0.23560  0.20200  Biso   1.000  C
  H50      1.0000 0.68990  0.22570  0.16810  Biso   1.000  H
  N61      1.0000 0.97960  0.70400  0.91680  Biso   1.000  N
  C71      1.0000 0.06460  0.68320  0.91950  Biso   1.000  C
  H51      1.0000 0.09230  0.67080  0.88530  Biso   1.000  H
  C72      1.0000 0.94100  0.72060  0.96670  Biso   1.000  C
  H52      1.0000 0.87930  0.73720  0.96720  Biso   1.000  H
  Cd6      1.0000 0.39999  0.73070  0.16864  Biso   1.000  Cd
  N62      1.0000 0.38700  0.84270  0.14350  Biso   1.000  N
  N63      1.0000 0.38140  0.86390  0.09290  Biso   1.000  N
  N64      1.0000 0.37490  0.92870  0.09590  Biso   1.000  N
  N65      1.0000 0.38460  0.89100  0.18190  Biso   1.000  N
  N66      1.0000 0.35530  0.14330  0.21140  Biso   1.000  N
  N67      1.0000 0.25040  0.70230  0.12810  Biso   1.000  N
  N68      1.0000 0.16750  0.70720  0.15680  Biso   1.000  N
  N69      1.0000 0.09380  0.70390  0.12180  Biso   1.000  N
  N70      1.0000 0.22940  0.69380  0.07370  Biso   1.000  N
  N71      1.0000 0.53920  0.75250  0.22070  Biso   1.000  N
  N72      1.0000 0.62750  0.74940  0.20270  Biso   1.000  N
  C73      1.0000 0.38110  0.94480  0.15010  Biso   1.000  C
  C74      1.0000 0.37420  0.01290  0.17130  Biso   1.000  C
  C75      1.0000 0.36540  0.06530  0.13420  Biso   1.000  C
  H53      1.0000 0.36550  0.05810  0.09540  Biso   1.000  H
  C76      1.0000 0.37120  0.02850  0.23000  Biso   1.000  C
  H54      1.0000 0.37320  0.99540  0.25720  Biso   1.000  H
  C77      1.0000 0.35640  0.12950  0.15570  Biso   1.000  C
  H55      1.0000 0.35090  0.16420  0.13020  Biso   1.000  H
  C78      1.0000 0.36540  0.09160  0.24530  Biso   1.000  C
  H56      1.0000 0.36880  0.10040  0.28380  Biso   1.000  H
  C79      1.0000 0.13400  0.69640  0.06950  Biso   1.000  C
  C80      1.0000 0.08070  0.69470  0.01790  Biso   1.000  C
  C81      1.0000 0.98790  0.71430  0.01650  Biso   1.000  C
  H57      1.0000 0.95640  0.72340  0.05020  Biso   1.000  H
  C82      1.0000 0.12210  0.67660  0.96810  Biso   1.000  C
  H58      1.0000 0.18420  0.66090  0.96630  Biso   1.000  H
  C83      1.0000 0.93700  0.76440  0.20310  Biso   1.000  C
  H59      1.0000 0.97010  0.77470  0.17020  Biso   1.000  H
  C84      1.0000 0.84060  0.76440  0.20200  Biso   1.000  C
  H60      1.0000 0.81010  0.77430  0.16810  Biso   1.000  H
  N73      1.0000 0.97960  0.79600  0.58320  Biso   1.000  N
  C85      1.0000 0.06460  0.81680  0.58050  Biso   1.000  C
  H61      1.0000 0.09230  0.82920  0.61470  Biso   1.000  H
  C86      1.0000 0.94100  0.77940  0.53330  Biso   1.000  C
  H62      1.0000 0.87930  0.76280  0.53280  Biso   1.000  H
  Cd7      1.0000 0.39999  0.76930  0.33136  Biso   1.000  Cd
  N74      1.0000 0.38700  0.65730  0.35650  Biso   1.000  N
  N75      1.0000 0.38140  0.63610  0.40710  Biso   1.000  N
  N76      1.0000 0.37490  0.57130  0.40410  Biso   1.000  N
  N77      1.0000 0.38460  0.60900  0.31810  Biso   1.000  N
  N78      1.0000 0.35530  0.35670  0.28860  Biso   1.000  N
  N79      1.0000 0.25040  0.79770  0.37190  Biso   1.000  N
  N80      1.0000 0.16750  0.79280  0.34320  Biso   1.000  N
  N81      1.0000 0.09380  0.79610  0.37820  Biso   1.000  N
  N82      1.0000 0.22940  0.80620  0.42630  Biso   1.000  N
  N83      1.0000 0.53920  0.74750  0.27930  Biso   1.000  N
  N84      1.0000 0.62750  0.75060  0.29730  Biso   1.000  N
  C87      1.0000 0.38110  0.55520  0.34990  Biso   1.000  C
  C88      1.0000 0.37420  0.48710  0.32870  Biso   1.000  C
  C89      1.0000 0.36540  0.43470  0.36580  Biso   1.000  C
  H63      1.0000 0.36550  0.44190  0.40460  Biso   1.000  H
  C90      1.0000 0.37120  0.47150  0.27000  Biso   1.000  C
  H64      1.0000 0.37320  0.50460  0.24280  Biso   1.000  H
  C91      1.0000 0.35640  0.37050  0.34430  Biso   1.000  C
  H65      1.0000 0.35090  0.33580  0.36980  Biso   1.000  H
  C92      1.0000 0.36540  0.40840  0.25470  Biso   1.000  C
  H66      1.0000 0.36880  0.39960  0.21620  Biso   1.000  H
  C93      1.0000 0.13400  0.80360  0.43050  Biso   1.000  C
  C94      1.0000 0.08070  0.80530  0.48210  Biso   1.000  C
  C95      1.0000 0.98790  0.78570  0.48350  Biso   1.000  C
  H67      1.0000 0.95640  0.77660  0.44980  Biso   1.000  H
  C96      1.0000 0.12210  0.82340  0.53190  Biso   1.000  C
  H68      1.0000 0.18420  0.83910  0.53370  Biso   1.000  H
  C97      1.0000 0.93700  0.73560  0.29690  Biso   1.000  C
  H69      1.0000 0.97010  0.72530  0.32980  Biso   1.000  H
  C98      1.0000 0.84060  0.73560  0.29800  Biso   1.000  C
  H70      1.0000 0.81010  0.72570  0.33190  Biso   1.000  H
  N85      1.0000 0.52040  0.20400  0.58320  Biso   1.000  N
  C99      1.0000 0.43540  0.18320  0.58050  Biso   1.000  C
  H71      1.0000 0.40770  0.17080  0.61470  Biso   1.000  H
  C100     1.0000 0.55900  0.22060  0.53330  Biso   1.000  C
  H72      1.0000 0.62070  0.23720  0.53280  Biso   1.000  H
  Cd8      1.0000 0.10001  0.23070  0.33136  Biso   1.000  Cd
  N86      1.0000 0.11300  0.34270  0.35650  Biso   1.000  N
  N87      1.0000 0.11860  0.36390  0.40710  Biso   1.000  N
  N88      1.0000 0.12510  0.42870  0.40410  Biso   1.000  N
  N89      1.0000 0.11540  0.39100  0.31810  Biso   1.000  N
  N90      1.0000 0.14470  0.64330  0.28860  Biso   1.000  N
  N91      1.0000 0.24960  0.20230  0.37190  Biso   1.000  N
  N92      1.0000 0.33250  0.20720  0.34320  Biso   1.000  N
  N93      1.0000 0.40620  0.20390  0.37820  Biso   1.000  N
  N94      1.0000 0.27060  0.19380  0.42630  Biso   1.000  N
  N95      1.0000 0.96080  0.25250  0.27930  Biso   1.000  N
  N96      1.0000 0.87250  0.24940  0.29730  Biso   1.000  N
  C101     1.0000 0.11890  0.44480  0.34990  Biso   1.000  C
  C102     1.0000 0.12580  0.51290  0.32870  Biso   1.000  C
  C103     1.0000 0.13460  0.56530  0.36580  Biso   1.000  C
  H73      1.0000 0.13450  0.55810  0.40460  Biso   1.000  H
  C104     1.0000 0.12880  0.52850  0.27000  Biso   1.000  C
  H74      1.0000 0.12680  0.49540  0.24280  Biso   1.000  H
  C105     1.0000 0.14360  0.62950  0.34430  Biso   1.000  C
  H75      1.0000 0.14910  0.66420  0.36980  Biso   1.000  H
  C106     1.0000 0.13460  0.59160  0.25470  Biso   1.000  C
  H76      1.0000 0.13120  0.60040  0.21620  Biso   1.000  H
  C107     1.0000 0.36600  0.19640  0.43050  Biso   1.000  C
  C108     1.0000 0.41930  0.19470  0.48210  Biso   1.000  C
  C109     1.0000 0.51210  0.21430  0.48350  Biso   1.000  C
  H77      1.0000 0.54360  0.22340  0.44980  Biso   1.000  H
  C110     1.0000 0.37790  0.17660  0.53190  Biso   1.000  C
  H78      1.0000 0.31580  0.16090  0.53370  Biso   1.000  H
  C111     1.0000 0.56300  0.26440  0.29690  Biso   1.000  C
  H79      1.0000 0.52990  0.27470  0.32980  Biso   1.000  H
  C112     1.0000 0.65940  0.26440  0.29800  Biso   1.000  C
  H80      1.0000 0.68990  0.27430  0.33190  Biso   1.000  H
  Cd9      1.0000 0.65567  0.75000  0.75000  Biso   1.000  Cd
  O1       1.0000 0.81550  0.75000  0.75000  Biso   1.000  O
  N97      1.0000 0.48610  0.75000  0.75000  Biso   1.000  N
  C113     1.0000 0.18040  0.75000  0.75000  Biso   1.000  C
  C114     1.0000 0.28390  0.75000  0.75000  Biso   1.000  C
  Cd10     1.0000 0.84433  0.25000  0.75000  Biso   1.000  Cd
  O2       1.0000 0.68450  0.25000  0.75000  Biso   1.000  O
  N98      1.0000 0.01390  0.25000  0.75000  Biso   1.000  N
  C115     1.0000 0.31960  0.25000  0.75000  Biso   1.000  C
  C116     1.0000 0.21610  0.25000  0.75000  Biso   1.000  C
  Cd11     1.0000 0.34433  0.25000  0.25000  Biso   1.000  Cd
  O3       1.0000 0.18450  0.25000  0.25000  Biso   1.000  O
  N99      1.0000 0.51390  0.25000  0.25000  Biso   1.000  N
  C117     1.0000 0.81960  0.25000  0.25000  Biso   1.000  C
  C118     1.0000 0.71610  0.25000  0.25000  Biso   1.000  C
  Cd12     1.0000 0.15567  0.75000  0.25000  Biso   1.000  Cd
  O4       1.0000 0.31550  0.75000  0.25000  Biso   1.000  O
  N100     1.0000 0.98610  0.75000  0.25000  Biso   1.000  N
  C119     1.0000 0.68040  0.75000  0.25000  Biso   1.000  C
  C120     1.0000 0.78390  0.75000  0.25000  Biso   1.000  C
