data_image0
_cell_length_a       24.274
_cell_length_b       25.634
_cell_length_c       11.0898
_cell_angle_alpha    90
_cell_angle_beta     114.924
_cell_angle_gamma    90

_symmetry_space_group_name_H-M    "P 1"
_symmetry_int_tables_number       1

loop_
  _symmetry_equiv_pos_as_xyz
  'x, y, z'

loop_
  _atom_site_label
  _atom_site_occupancy
  _atom_site_fract_x
  _atom_site_fract_y
  _atom_site_fract_z
  _atom_site_thermal_displace_type
  _atom_site_B_iso_or_equiv
  _atom_site_type_symbol
  Ni1      1.0000 0.74394  0.42056  0.02015  Biso   1.000  Ni
  Ni2      1.0000 0.75579  0.46172  0.48234  Biso   1.000  Ni
  Ni3      1.0000 0.74908  0.43908  0.74980  Biso   1.000  Ni
  O1       1.0000 0.69920  0.37730  0.71370  Biso   1.000  O
  C1       1.0000 0.52780  0.08690  0.65890  Biso   1.000  C
  H1       1.0000 0.48690  0.09360  0.63530  Biso   1.000  H
  C2       1.0000 0.97690  0.71230  0.94890  Biso   1.000  C
  C3       1.0000 0.52510  0.17400  0.54980  Biso   1.000  C
  C4       1.0000 0.55430  0.12250  0.61730  Biso   1.000  C
  O2       1.0000 0.81760  0.49630  0.79830  Biso   1.000  O
  C5       1.0000 0.94330  0.75730  0.87410  Biso   1.000  C
  C6       1.0000 0.57090  0.25710  0.53160  Biso   1.000  C
  H2       1.0000 0.55110  0.25290  0.43990  Biso   1.000  H
  C7       1.0000 0.92560  0.62210  0.96840  Biso   1.000  C
  H3       1.0000 0.94220  0.62570  0.06040  Biso   1.000  H
  C8       1.0000 0.56310  0.22240  0.61050  Biso   1.000  C
  C9       1.0000 0.97890  0.79330  0.83500  Biso   1.000  C
  H4       1.0000 0.01950  0.78910  0.85160  Biso   1.000  H
  O3       1.0000 0.68850  0.36060  0.91090  Biso   1.000  O
  C10      1.0000 0.91140  0.65410  0.74820  Biso   1.000  C
  H5       1.0000 0.91440  0.67970  0.69160  Biso   1.000  H
  C11      1.0000 0.63460  0.30560  0.72680  Biso   1.000  C
  C12      1.0000 0.88500  0.84580  0.73130  Biso   1.000  C
  C13      1.0000 0.93960  0.66160  0.89440  Biso   1.000  C
  C14      1.0000 0.86450  0.57040  0.77870  Biso   1.000  C
  C15      1.0000 0.58730  0.23150  0.74390  Biso   1.000  C
  H6       1.0000 0.57720  0.20930  0.79780  Biso   1.000  H
  C16      1.0000 0.62730  0.27380  0.80360  Biso   1.000  C
  H7       1.0000 0.64700  0.27760  0.89550  Biso   1.000  H
  C17      1.0000 0.88080  0.60860  0.69910  Biso   1.000  C
  H8       1.0000 0.86940  0.60120  0.60970  Biso   1.000  H
  C18      1.0000 0.61200  0.02940  0.76070  Biso   1.000  C
  C19      1.0000 0.89170  0.58210  0.91790  Biso   1.000  C
  H9       1.0000 0.88450  0.55940  0.97520  Biso   1.000  H
  O4       1.0000 0.80910  0.51480  0.59740  Biso   1.000  O
  C20      1.0000 0.61080  0.30270  0.58740  Biso   1.000  C
  H10      1.0000 0.61920  0.32710  0.53550  Biso   1.000  H
  O5       1.0000 0.71000  0.47010  0.87120  Biso   1.000  O
  H11      1.0000 0.72330  0.50550  0.89870  Biso   1.000  H
  H12      1.0000 0.66600  0.46880  0.82840  Biso   1.000  H
  C21      1.0000 0.93980  0.83810  0.76430  Biso   1.000  C
  H13      1.0000 0.95970  0.86460  0.74100  Biso   1.000  H
  C22      1.0000 0.54820  0.04060  0.73140  Biso   1.000  C
  H14      1.0000 0.52410  0.01950  0.75810  Biso   1.000  H
  C23      1.0000 0.67350  0.35150  0.78450  Biso   1.000  C
  C24      1.0000 0.85550  0.80870  0.77100  Biso   1.000  C
  H15      1.0000 0.81460  0.81270  0.75210  Biso   1.000  H
  O6       1.0000 0.69350  0.47010  0.56840  Biso   1.000  O
  H16      1.0000 0.68320  0.50630  0.57450  Biso   1.000  H
  H17      1.0000 0.65680  0.44980  0.52270  Biso   1.000  H
  O7       1.0000 0.80210  0.39910  0.93050  Biso   1.000  O
  H18      1.0000 0.80370  0.36170  0.91890  Biso   1.000  H
  H19      1.0000 0.84280  0.41320  0.97630  Biso   1.000  H
  C25      1.0000 0.64830  0.06430  0.72400  Biso   1.000  C
  H20      1.0000 0.68870  0.05600  0.74650  Biso   1.000  H
  C26      1.0000 0.62240  0.11460  0.64920  Biso   1.000  C
  H21      1.0000 0.64510  0.13820  0.62500  Biso   1.000  H
  N1       1.0000 0.81740  0.42860  0.43220  Biso   1.000  N
  O8       1.0000 0.82750  0.33140  0.67130  Biso   1.000  O
  C27      1.0000 0.81740  0.36660  0.61110  Biso   1.000  C
  O9       1.0000 0.78450  0.39980  0.63890  Biso   1.000  O
  C28      1.0000 0.87840  0.45410  0.48310  Biso   1.000  C
  H22      1.0000 0.87720  0.48330  0.42650  Biso   1.000  H
  H23      1.0000 0.88940  0.46720  0.57240  Biso   1.000  H
  C29      1.0000 0.88510  0.76810  0.83500  Biso   1.000  C
  H24      1.0000 0.86250  0.74330  0.85620  Biso   1.000  H
  C30      1.0000 0.92430  0.41510  0.48410  Biso   1.000  C
  H25      1.0000 0.96530  0.42510  0.54390  Biso   1.000  H
  H26      1.0000 0.92210  0.40900  0.39580  Biso   1.000  H
  C31      1.0000 0.83360  0.37640  0.49430  Biso   1.000  C
  H27      1.0000 0.81180  0.35050  0.42570  Biso   1.000  H
  C32      1.0000 0.90210  0.36810  0.53600  Biso   1.000  C
  H28      1.0000 0.92350  0.36590  0.63200  Biso   1.000  H
  H29      1.0000 0.90890  0.33610  0.49770  Biso   1.000  H
  C33      1.0000 0.82460  0.52390  0.72320  Biso   1.000  C
  O10      1.0000 0.62140  0.96000  0.90370  Biso   1.000  O
  C34      1.0000 0.64610  0.98700  0.84020  Biso   1.000  C
  O11      1.0000 0.68530  0.97050  0.84840  Biso   1.000  O
  O12      1.0000 0.89580  0.92550  0.62380  Biso   1.000  O
  C35      1.0000 0.86430  0.90090  0.65020  Biso   1.000  C
  O13      1.0000 0.79440  0.90070  0.63570  Biso   1.000  O
  Ni4      1.0000 0.24394  0.92056  0.02015  Biso   1.000  Ni
  Ni5      1.0000 0.25579  0.96172  0.48234  Biso   1.000  Ni
  Ni6      1.0000 0.24908  0.93908  0.74980  Biso   1.000  Ni
  O14      1.0000 0.19920  0.87730  0.71370  Biso   1.000  O
  C36      1.0000 0.02780  0.58690  0.65890  Biso   1.000  C
  H30      1.0000 0.98690  0.59360  0.63530  Biso   1.000  H
  C37      1.0000 0.47690  0.21230  0.94890  Biso   1.000  C
  C38      1.0000 0.02510  0.67400  0.54980  Biso   1.000  C
  C39      1.0000 0.05430  0.62250  0.61730  Biso   1.000  C
  O15      1.0000 0.31760  0.99630  0.79830  Biso   1.000  O
  C40      1.0000 0.44330  0.25730  0.87410  Biso   1.000  C
  C41      1.0000 0.07090  0.75710  0.53160  Biso   1.000  C
  H31      1.0000 0.05110  0.75290  0.43990  Biso   1.000  H
  C42      1.0000 0.42560  0.12210  0.96840  Biso   1.000  C
  H32      1.0000 0.44220  0.12570  0.06040  Biso   1.000  H
  C43      1.0000 0.06310  0.72240  0.61050  Biso   1.000  C
  C44      1.0000 0.47890  0.29330  0.83500  Biso   1.000  C
  H33      1.0000 0.51950  0.28910  0.85160  Biso   1.000  H
  O16      1.0000 0.18850  0.86060  0.91090  Biso   1.000  O
  C45      1.0000 0.41140  0.15410  0.74820  Biso   1.000  C
  H34      1.0000 0.41440  0.17970  0.69160  Biso   1.000  H
  C46      1.0000 0.13460  0.80560  0.72680  Biso   1.000  C
  C47      1.0000 0.38500  0.34580  0.73130  Biso   1.000  C
  C48      1.0000 0.43960  0.16160  0.89440  Biso   1.000  C
  C49      1.0000 0.36450  0.07040  0.77870  Biso   1.000  C
  C50      1.0000 0.08730  0.73150  0.74390  Biso   1.000  C
  H35      1.0000 0.07720  0.70930  0.79780  Biso   1.000  H
  C51      1.0000 0.12730  0.77380  0.80360  Biso   1.000  C
  H36      1.0000 0.14700  0.77760  0.89550  Biso   1.000  H
  C52      1.0000 0.38080  0.10860  0.69910  Biso   1.000  C
  H37      1.0000 0.36940  0.10120  0.60970  Biso   1.000  H
  C53      1.0000 0.11200  0.52940  0.76070  Biso   1.000  C
  C54      1.0000 0.39170  0.08210  0.91790  Biso   1.000  C
  H38      1.0000 0.38450  0.05940  0.97520  Biso   1.000  H
  O17      1.0000 0.30910  0.01480  0.59740  Biso   1.000  O
  C55      1.0000 0.11080  0.80270  0.58740  Biso   1.000  C
  H39      1.0000 0.11920  0.82710  0.53550  Biso   1.000  H
  O18      1.0000 0.21000  0.97010  0.87120  Biso   1.000  O
  H40      1.0000 0.22330  0.00550  0.89870  Biso   1.000  H
  H41      1.0000 0.16600  0.96880  0.82840  Biso   1.000  H
  C56      1.0000 0.43980  0.33810  0.76430  Biso   1.000  C
  H42      1.0000 0.45970  0.36460  0.74100  Biso   1.000  H
  C57      1.0000 0.04820  0.54060  0.73140  Biso   1.000  C
  H43      1.0000 0.02410  0.51950  0.75810  Biso   1.000  H
  C58      1.0000 0.17350  0.85150  0.78450  Biso   1.000  C
  C59      1.0000 0.35550  0.30870  0.77100  Biso   1.000  C
  H44      1.0000 0.31460  0.31270  0.75210  Biso   1.000  H
  O19      1.0000 0.19350  0.97010  0.56840  Biso   1.000  O
  H45      1.0000 0.18320  0.00630  0.57450  Biso   1.000  H
  H46      1.0000 0.15680  0.94980  0.52270  Biso   1.000  H
  O20      1.0000 0.30210  0.89910  0.93050  Biso   1.000  O
  H47      1.0000 0.30370  0.86170  0.91890  Biso   1.000  H
  H48      1.0000 0.34280  0.91320  0.97630  Biso   1.000  H
  C60      1.0000 0.14830  0.56430  0.72400  Biso   1.000  C
  H49      1.0000 0.18870  0.55600  0.74650  Biso   1.000  H
  C61      1.0000 0.12240  0.61460  0.64920  Biso   1.000  C
  H50      1.0000 0.14510  0.63820  0.62500  Biso   1.000  H
  N2       1.0000 0.31740  0.92860  0.43220  Biso   1.000  N
  O21      1.0000 0.32750  0.83140  0.67130  Biso   1.000  O
  C62      1.0000 0.31740  0.86660  0.61110  Biso   1.000  C
  O22      1.0000 0.28450  0.89980  0.63890  Biso   1.000  O
  C63      1.0000 0.37840  0.95410  0.48310  Biso   1.000  C
  H51      1.0000 0.37720  0.98330  0.42650  Biso   1.000  H
  H52      1.0000 0.38940  0.96720  0.57240  Biso   1.000  H
  C64      1.0000 0.38510  0.26810  0.83500  Biso   1.000  C
  H53      1.0000 0.36250  0.24330  0.85620  Biso   1.000  H
  C65      1.0000 0.42430  0.91510  0.48410  Biso   1.000  C
  H54      1.0000 0.46530  0.92510  0.54390  Biso   1.000  H
  H55      1.0000 0.42210  0.90900  0.39580  Biso   1.000  H
  C66      1.0000 0.33360  0.87640  0.49430  Biso   1.000  C
  H56      1.0000 0.31180  0.85050  0.42570  Biso   1.000  H
  C67      1.0000 0.40210  0.86810  0.53600  Biso   1.000  C
  H57      1.0000 0.42350  0.86590  0.63200  Biso   1.000  H
  H58      1.0000 0.40890  0.83610  0.49770  Biso   1.000  H
  C68      1.0000 0.32460  0.02390  0.72320  Biso   1.000  C
  O23      1.0000 0.12140  0.46000  0.90370  Biso   1.000  O
  C69      1.0000 0.14610  0.48700  0.84020  Biso   1.000  C
  O24      1.0000 0.18530  0.47050  0.84840  Biso   1.000  O
  O25      1.0000 0.39580  0.42550  0.62380  Biso   1.000  O
  C70      1.0000 0.36430  0.40090  0.65020  Biso   1.000  C
  O26      1.0000 0.29440  0.40070  0.63570  Biso   1.000  O
  Ni7      1.0000 0.25606  0.42056  0.97985  Biso   1.000  Ni
  Ni8      1.0000 0.24421  0.46172  0.51766  Biso   1.000  Ni
  Ni9      1.0000 0.25092  0.43908  0.25020  Biso   1.000  Ni
  O27      1.0000 0.30080  0.37730  0.28630  Biso   1.000  O
  C71      1.0000 0.47220  0.08690  0.34110  Biso   1.000  C
  H59      1.0000 0.51310  0.09360  0.36470  Biso   1.000  H
  C72      1.0000 0.02310  0.71230  0.05110  Biso   1.000  C
  C73      1.0000 0.47490  0.17400  0.45020  Biso   1.000  C
  C74      1.0000 0.44570  0.12250  0.38270  Biso   1.000  C
  O28      1.0000 0.18240  0.49630  0.20170  Biso   1.000  O
  C75      1.0000 0.05670  0.75730  0.12590  Biso   1.000  C
  C76      1.0000 0.42910  0.25710  0.46840  Biso   1.000  C
  H60      1.0000 0.44890  0.25290  0.56010  Biso   1.000  H
  C77      1.0000 0.07440  0.62210  0.03160  Biso   1.000  C
  H61      1.0000 0.05780  0.62570  0.93960  Biso   1.000  H
  C78      1.0000 0.43690  0.22240  0.38950  Biso   1.000  C
  C79      1.0000 0.02110  0.79330  0.16500  Biso   1.000  C
  H62      1.0000 0.98050  0.78910  0.14840  Biso   1.000  H
  O29      1.0000 0.31150  0.36060  0.08910  Biso   1.000  O
  C80      1.0000 0.08860  0.65410  0.25180  Biso   1.000  C
  H63      1.0000 0.08560  0.67970  0.30840  Biso   1.000  H
  C81      1.0000 0.36540  0.30560  0.27320  Biso   1.000  C
  C82      1.0000 0.11500  0.84580  0.26870  Biso   1.000  C
  C83      1.0000 0.06040  0.66160  0.10560  Biso   1.000  C
  C84      1.0000 0.13550  0.57040  0.22130  Biso   1.000  C
  C85      1.0000 0.41270  0.23150  0.25610  Biso   1.000  C
  H64      1.0000 0.42280  0.20930  0.20220  Biso   1.000  H
  C86      1.0000 0.37270  0.27380  0.19640  Biso   1.000  C
  H65      1.0000 0.35300  0.27760  0.10450  Biso   1.000  H
  C87      1.0000 0.11920  0.60860  0.30090  Biso   1.000  C
  H66      1.0000 0.13060  0.60120  0.39030  Biso   1.000  H
  C88      1.0000 0.38800  0.02940  0.23930  Biso   1.000  C
  C89      1.0000 0.10830  0.58210  0.08210  Biso   1.000  C
  H67      1.0000 0.11550  0.55940  0.02480  Biso   1.000  H
  O30      1.0000 0.19090  0.51480  0.40260  Biso   1.000  O
  C90      1.0000 0.38920  0.30270  0.41260  Biso   1.000  C
  H68      1.0000 0.38080  0.32710  0.46450  Biso   1.000  H
  O31      1.0000 0.29000  0.47010  0.12880  Biso   1.000  O
  H69      1.0000 0.27670  0.50550  0.10130  Biso   1.000  H
  H70      1.0000 0.33400  0.46880  0.17160  Biso   1.000  H
  C91      1.0000 0.06020  0.83810  0.23570  Biso   1.000  C
  H71      1.0000 0.04030  0.86460  0.25900  Biso   1.000  H
  C92      1.0000 0.45180  0.04060  0.26860  Biso   1.000  C
  H72      1.0000 0.47590  0.01950  0.24190  Biso   1.000  H
  C93      1.0000 0.32650  0.35150  0.21550  Biso   1.000  C
  C94      1.0000 0.14450  0.80870  0.22900  Biso   1.000  C
  H73      1.0000 0.18540  0.81270  0.24790  Biso   1.000  H
  O32      1.0000 0.30650  0.47010  0.43160  Biso   1.000  O
  H74      1.0000 0.31680  0.50630  0.42550  Biso   1.000  H
  H75      1.0000 0.34320  0.44980  0.47730  Biso   1.000  H
  O33      1.0000 0.19790  0.39910  0.06950  Biso   1.000  O
  H76      1.0000 0.19630  0.36170  0.08110  Biso   1.000  H
  H77      1.0000 0.15720  0.41320  0.02370  Biso   1.000  H
  C95      1.0000 0.35170  0.06430  0.27600  Biso   1.000  C
  H78      1.0000 0.31130  0.05600  0.25350  Biso   1.000  H
  C96      1.0000 0.37760  0.11460  0.35080  Biso   1.000  C
  H79      1.0000 0.35490  0.13820  0.37500  Biso   1.000  H
  N3       1.0000 0.18260  0.42860  0.56780  Biso   1.000  N
  O34      1.0000 0.17250  0.33140  0.32870  Biso   1.000  O
  C97      1.0000 0.18260  0.36660  0.38890  Biso   1.000  C
  O35      1.0000 0.21550  0.39980  0.36110  Biso   1.000  O
  C98      1.0000 0.12160  0.45410  0.51690  Biso   1.000  C
  H80      1.0000 0.12280  0.48330  0.57350  Biso   1.000  H
  H81      1.0000 0.11060  0.46720  0.42760  Biso   1.000  H
  C99      1.0000 0.11490  0.76810  0.16500  Biso   1.000  C
  H82      1.0000 0.13750  0.74330  0.14380  Biso   1.000  H
  C100     1.0000 0.07570  0.41510  0.51590  Biso   1.000  C
  H83      1.0000 0.03470  0.42510  0.45610  Biso   1.000  H
  H84      1.0000 0.07790  0.40900  0.60420  Biso   1.000  H
  C101     1.0000 0.16640  0.37640  0.50570  Biso   1.000  C
  H85      1.0000 0.18820  0.35050  0.57430  Biso   1.000  H
  C102     1.0000 0.09790  0.36810  0.46400  Biso   1.000  C
  H86      1.0000 0.07650  0.36590  0.36800  Biso   1.000  H
  H87      1.0000 0.09110  0.33610  0.50230  Biso   1.000  H
  C103     1.0000 0.17540  0.52390  0.27680  Biso   1.000  C
  O36      1.0000 0.37860  0.96000  0.09630  Biso   1.000  O
  C104     1.0000 0.35390  0.98700  0.15980  Biso   1.000  C
  O37      1.0000 0.31470  0.97050  0.15160  Biso   1.000  O
  O38      1.0000 0.10420  0.92550  0.37620  Biso   1.000  O
  C105     1.0000 0.13570  0.90090  0.34980  Biso   1.000  C
  O39      1.0000 0.20560  0.90070  0.36430  Biso   1.000  O
  Ni10     1.0000 0.75606  0.92056  0.97985  Biso   1.000  Ni
  Ni11     1.0000 0.74421  0.96172  0.51766  Biso   1.000  Ni
  Ni12     1.0000 0.75092  0.93908  0.25020  Biso   1.000  Ni
  O40      1.0000 0.80080  0.87730  0.28630  Biso   1.000  O
  C106     1.0000 0.97220  0.58690  0.34110  Biso   1.000  C
  H88      1.0000 0.01310  0.59360  0.36470  Biso   1.000  H
  C107     1.0000 0.52310  0.21230  0.05110  Biso   1.000  C
  C108     1.0000 0.97490  0.67400  0.45020  Biso   1.000  C
  C109     1.0000 0.94570  0.62250  0.38270  Biso   1.000  C
  O41      1.0000 0.68240  0.99630  0.20170  Biso   1.000  O
  C110     1.0000 0.55670  0.25730  0.12590  Biso   1.000  C
  C111     1.0000 0.92910  0.75710  0.46840  Biso   1.000  C
  H89      1.0000 0.94890  0.75290  0.56010  Biso   1.000  H
  C112     1.0000 0.57440  0.12210  0.03160  Biso   1.000  C
  H90      1.0000 0.55780  0.12570  0.93960  Biso   1.000  H
  C113     1.0000 0.93690  0.72240  0.38950  Biso   1.000  C
  C114     1.0000 0.52110  0.29330  0.16500  Biso   1.000  C
  H91      1.0000 0.48050  0.28910  0.14840  Biso   1.000  H
  O42      1.0000 0.81150  0.86060  0.08910  Biso   1.000  O
  C115     1.0000 0.58860  0.15410  0.25180  Biso   1.000  C
  H92      1.0000 0.58560  0.17970  0.30840  Biso   1.000  H
  C116     1.0000 0.86540  0.80560  0.27320  Biso   1.000  C
  C117     1.0000 0.61500  0.34580  0.26870  Biso   1.000  C
  C118     1.0000 0.56040  0.16160  0.10560  Biso   1.000  C
  C119     1.0000 0.63550  0.07040  0.22130  Biso   1.000  C
  C120     1.0000 0.91270  0.73150  0.25610  Biso   1.000  C
  H93      1.0000 0.92280  0.70930  0.20220  Biso   1.000  H
  C121     1.0000 0.87270  0.77380  0.19640  Biso   1.000  C
  H94      1.0000 0.85300  0.77760  0.10450  Biso   1.000  H
  C122     1.0000 0.61920  0.10860  0.30090  Biso   1.000  C
  H95      1.0000 0.63060  0.10120  0.39030  Biso   1.000  H
  C123     1.0000 0.88800  0.52940  0.23930  Biso   1.000  C
  C124     1.0000 0.60830  0.08210  0.08210  Biso   1.000  C
  H96      1.0000 0.61550  0.05940  0.02480  Biso   1.000  H
  O43      1.0000 0.69090  0.01480  0.40260  Biso   1.000  O
  C125     1.0000 0.88920  0.80270  0.41260  Biso   1.000  C
  H97      1.0000 0.88080  0.82710  0.46450  Biso   1.000  H
  O44      1.0000 0.79000  0.97010  0.12880  Biso   1.000  O
  H98      1.0000 0.77670  0.00550  0.10130  Biso   1.000  H
  H99      1.0000 0.83400  0.96880  0.17160  Biso   1.000  H
  C126     1.0000 0.56020  0.33810  0.23570  Biso   1.000  C
  H100     1.0000 0.54030  0.36460  0.25900  Biso   1.000  H
  C127     1.0000 0.95180  0.54060  0.26860  Biso   1.000  C
  H101     1.0000 0.97590  0.51950  0.24190  Biso   1.000  H
  C128     1.0000 0.82650  0.85150  0.21550  Biso   1.000  C
  C129     1.0000 0.64450  0.30870  0.22900  Biso   1.000  C
  H102     1.0000 0.68540  0.31270  0.24790  Biso   1.000  H
  O45      1.0000 0.80650  0.97010  0.43160  Biso   1.000  O
  H103     1.0000 0.81680  0.00630  0.42550  Biso   1.000  H
  H104     1.0000 0.84320  0.94980  0.47730  Biso   1.000  H
  O46      1.0000 0.69790  0.89910  0.06950  Biso   1.000  O
  H105     1.0000 0.69630  0.86170  0.08110  Biso   1.000  H
  H106     1.0000 0.65720  0.91320  0.02370  Biso   1.000  H
  C130     1.0000 0.85170  0.56430  0.27600  Biso   1.000  C
  H107     1.0000 0.81130  0.55600  0.25350  Biso   1.000  H
  C131     1.0000 0.87760  0.61460  0.35080  Biso   1.000  C
  H108     1.0000 0.85490  0.63820  0.37500  Biso   1.000  H
  N4       1.0000 0.68260  0.92860  0.56780  Biso   1.000  N
  O47      1.0000 0.67250  0.83140  0.32870  Biso   1.000  O
  C132     1.0000 0.68260  0.86660  0.38890  Biso   1.000  C
  O48      1.0000 0.71550  0.89980  0.36110  Biso   1.000  O
  C133     1.0000 0.62160  0.95410  0.51690  Biso   1.000  C
  H109     1.0000 0.62280  0.98330  0.57350  Biso   1.000  H
  H110     1.0000 0.61060  0.96720  0.42760  Biso   1.000  H
  C134     1.0000 0.61490  0.26810  0.16500  Biso   1.000  C
  H111     1.0000 0.63750  0.24330  0.14380  Biso   1.000  H
  C135     1.0000 0.57570  0.91510  0.51590  Biso   1.000  C
  H112     1.0000 0.53470  0.92510  0.45610  Biso   1.000  H
  H113     1.0000 0.57790  0.90900  0.60420  Biso   1.000  H
  C136     1.0000 0.66640  0.87640  0.50570  Biso   1.000  C
  H114     1.0000 0.68820  0.85050  0.57430  Biso   1.000  H
  C137     1.0000 0.59790  0.86810  0.46400  Biso   1.000  C
  H115     1.0000 0.57650  0.86590  0.36800  Biso   1.000  H
  H116     1.0000 0.59110  0.83610  0.50230  Biso   1.000  H
  C138     1.0000 0.67540  0.02390  0.27680  Biso   1.000  C
  O49      1.0000 0.87860  0.46000  0.09630  Biso   1.000  O
  C139     1.0000 0.85390  0.48700  0.15980  Biso   1.000  C
  O50      1.0000 0.81470  0.47050  0.15160  Biso   1.000  O
  O51      1.0000 0.60420  0.42550  0.37620  Biso   1.000  O
  C140     1.0000 0.63570  0.40090  0.34980  Biso   1.000  C
  O52      1.0000 0.70560  0.40070  0.36430  Biso   1.000  O
