data_image0
_cell_length_a       31.609
_cell_length_b       9.8716
_cell_length_c       24.738
_cell_angle_alpha    90
_cell_angle_beta     104.669
_cell_angle_gamma    90

_symmetry_space_group_name_H-M    "P 1"
_symmetry_int_tables_number       1

loop_
  _symmetry_equiv_pos_as_xyz
  'x, y, z'

loop_
  _atom_site_label
  _atom_site_occupancy
  _atom_site_fract_x
  _atom_site_fract_y
  _atom_site_fract_z
  _atom_site_thermal_displace_type
  _atom_site_B_iso_or_equiv
  _atom_site_type_symbol
  O1       1.0000 0.90154  0.61550  0.18492  Biso   1.000  O
  O2       1.0000 0.85002  0.52020  0.22045  Biso   1.000  O
  O3       1.0000 0.36216  0.09830  0.60421  Biso   1.000  O
  O4       1.0000 0.29482  0.14480  0.60964  Biso   1.000  O
  Mn1      1.0000 0.12003  0.60878  0.40290  Biso   1.000  Mn
  Mn2      1.0000 0.21126  0.52708  0.34083  Biso   1.000  Mn
  Cl1      1.0000 0.19351  0.71309  0.40111  Biso   1.000  Cl
  N1       1.0000 0.14964  0.57350  0.49917  Biso   1.000  N
  N2       1.0000 0.18427  0.46380  0.60588  Biso   1.000  N
  N3       1.0000 0.06407  0.51060  0.43894  Biso   1.000  N
  N4       1.0000 0.05513  0.38090  0.51059  Biso   1.000  N
  N5       1.0000 0.01857  0.38160  0.46806  Biso   1.000  N
  H1       1.0000 0.99510  0.33760  0.46810  Biso   1.000  H
  N6       1.0000 0.23109  0.67790  0.27730  Biso   1.000  N
  N7       1.0000 0.26108  0.86800  0.21180  Biso   1.000  N
  N8       1.0000 0.28431  0.58940  0.37888  Biso   1.000  N
  N9       1.0000 0.34059  0.71630  0.36539  Biso   1.000  N
  N10      1.0000 0.35286  0.64480  0.41359  Biso   1.000  N
  H2       1.0000 0.37860  0.64690  0.43600  Biso   1.000  H
  C1       1.0000 0.19045  0.60160  0.52924  Biso   1.000  C
  H3       1.0000 0.20770  0.65980  0.51440  Biso   1.000  H
  C2       1.0000 0.20738  0.54640  0.58148  Biso   1.000  C
  H4       1.0000 0.23600  0.56750  0.60040  Biso   1.000  H
  C3       1.0000 0.14374  0.43640  0.57677  Biso   1.000  C
  H5       1.0000 0.12650  0.37930  0.59220  Biso   1.000  H
  C4       1.0000 0.12615  0.49120  0.52335  Biso   1.000  C
  C5       1.0000 0.08135  0.46070  0.49125  Biso   1.000  C
  C6       1.0000 0.02360  0.46010  0.42548  Biso   1.000  C
  C7       1.0000 0.98881  0.48660  0.37486  Biso   1.000  C
  C8       1.0000 0.94849  0.42130  0.36569  Biso   1.000  C
  H6       1.0000 0.94350  0.35990  0.39190  Biso   1.000  H
  C9       1.0000 0.91577  0.44750  0.31770  Biso   1.000  C
  H7       1.0000 0.88900  0.40370  0.31230  Biso   1.000  H
  C10      1.0000 0.92239  0.53790  0.27766  Biso   1.000  C
  C11      1.0000 0.96200  0.60560  0.28829  Biso   1.000  C
  H8       1.0000 0.96660  0.66940  0.26270  Biso   1.000  H
  C12      1.0000 0.99499  0.58070  0.33616  Biso   1.000  C
  H9       1.0000 0.02130  0.62740  0.34220  Biso   1.000  H
  C13      1.0000 0.88859  0.55980  0.22352  Biso   1.000  C
  C14      1.0000 0.20654  0.71610  0.22734  Biso   1.000  C
  H10      1.0000 0.17880  0.67920  0.21410  Biso   1.000  H
  C15      1.0000 0.22172  0.80990  0.19484  Biso   1.000  C
  H11      1.0000 0.20390  0.83320  0.16010  Biso   1.000  H
  C16      1.0000 0.28569  0.82850  0.26157  Biso   1.000  C
  H12      1.0000 0.31320  0.86660  0.27510  Biso   1.000  H
  C17      1.0000 0.27116  0.73200  0.29348  Biso   1.000  C
  C18      1.0000 0.29923  0.68090  0.34609  Biso   1.000  C
  C19      1.0000 0.31939  0.56990  0.42166  Biso   1.000  C
  C20      1.0000 0.32282  0.47860  0.46969  Biso   1.000  C
  C21      1.0000 0.36212  0.41620  0.49442  Biso   1.000  C
  H13      1.0000 0.38720  0.43860  0.48320  Biso   1.000  H
  C22      1.0000 0.36416  0.32070  0.53586  Biso   1.000  C
  H14      1.0000 0.39060  0.27840  0.55200  Biso   1.000  H
  C23      1.0000 0.32698  0.28680  0.55376  Biso   1.000  C
  C24      1.0000 0.28842  0.35730  0.53164  Biso   1.000  C
  H15      1.0000 0.26390  0.34080  0.54500  Biso   1.000  H
  C25      1.0000 0.28629  0.45250  0.48941  Biso   1.000  C
  H16      1.0000 0.26030  0.49870  0.47440  Biso   1.000  H
  C26      1.0000 0.32834  0.16480  0.59347  Biso   1.000  C
  O5       1.0000 0.40154  0.11550  0.18492  Biso   1.000  O
  O6       1.0000 0.35002  0.02020  0.22045  Biso   1.000  O
  O7       1.0000 0.86216  0.59830  0.60421  Biso   1.000  O
  O8       1.0000 0.79482  0.64480  0.60964  Biso   1.000  O
  Mn3      1.0000 0.62003  0.10878  0.40290  Biso   1.000  Mn
  Mn4      1.0000 0.71126  0.02708  0.34083  Biso   1.000  Mn
  Cl2      1.0000 0.69351  0.21309  0.40111  Biso   1.000  Cl
  N11      1.0000 0.64964  0.07350  0.49917  Biso   1.000  N
  N12      1.0000 0.68427  0.96380  0.60588  Biso   1.000  N
  N13      1.0000 0.56407  0.01060  0.43894  Biso   1.000  N
  N14      1.0000 0.55513  0.88090  0.51059  Biso   1.000  N
  N15      1.0000 0.51857  0.88160  0.46806  Biso   1.000  N
  H17      1.0000 0.49510  0.83760  0.46810  Biso   1.000  H
  N16      1.0000 0.73109  0.17790  0.27730  Biso   1.000  N
  N17      1.0000 0.76108  0.36800  0.21180  Biso   1.000  N
  N18      1.0000 0.78431  0.08940  0.37888  Biso   1.000  N
  N19      1.0000 0.84059  0.21630  0.36539  Biso   1.000  N
  N20      1.0000 0.85286  0.14480  0.41359  Biso   1.000  N
  H18      1.0000 0.87860  0.14690  0.43600  Biso   1.000  H
  C27      1.0000 0.69045  0.10160  0.52924  Biso   1.000  C
  H19      1.0000 0.70770  0.15980  0.51440  Biso   1.000  H
  C28      1.0000 0.70738  0.04640  0.58148  Biso   1.000  C
  H20      1.0000 0.73600  0.06750  0.60040  Biso   1.000  H
  C29      1.0000 0.64374  0.93640  0.57677  Biso   1.000  C
  H21      1.0000 0.62650  0.87930  0.59220  Biso   1.000  H
  C30      1.0000 0.62615  0.99120  0.52335  Biso   1.000  C
  C31      1.0000 0.58135  0.96070  0.49125  Biso   1.000  C
  C32      1.0000 0.52360  0.96010  0.42548  Biso   1.000  C
  C33      1.0000 0.48881  0.98660  0.37486  Biso   1.000  C
  C34      1.0000 0.44849  0.92130  0.36569  Biso   1.000  C
  H22      1.0000 0.44350  0.85990  0.39190  Biso   1.000  H
  C35      1.0000 0.41577  0.94750  0.31770  Biso   1.000  C
  H23      1.0000 0.38900  0.90370  0.31230  Biso   1.000  H
  C36      1.0000 0.42239  0.03790  0.27766  Biso   1.000  C
  C37      1.0000 0.46200  0.10560  0.28829  Biso   1.000  C
  H24      1.0000 0.46660  0.16940  0.26270  Biso   1.000  H
  C38      1.0000 0.49499  0.08070  0.33616  Biso   1.000  C
  H25      1.0000 0.52130  0.12740  0.34220  Biso   1.000  H
  C39      1.0000 0.38859  0.05980  0.22352  Biso   1.000  C
  C40      1.0000 0.70654  0.21610  0.22734  Biso   1.000  C
  H26      1.0000 0.67880  0.17920  0.21410  Biso   1.000  H
  C41      1.0000 0.72172  0.30990  0.19484  Biso   1.000  C
  H27      1.0000 0.70390  0.33320  0.16010  Biso   1.000  H
  C42      1.0000 0.78569  0.32850  0.26157  Biso   1.000  C
  H28      1.0000 0.81320  0.36660  0.27510  Biso   1.000  H
  C43      1.0000 0.77116  0.23200  0.29348  Biso   1.000  C
  C44      1.0000 0.79923  0.18090  0.34609  Biso   1.000  C
  C45      1.0000 0.81939  0.06990  0.42166  Biso   1.000  C
  C46      1.0000 0.82282  0.97860  0.46969  Biso   1.000  C
  C47      1.0000 0.86212  0.91620  0.49442  Biso   1.000  C
  H29      1.0000 0.88720  0.93860  0.48320  Biso   1.000  H
  C48      1.0000 0.86416  0.82070  0.53586  Biso   1.000  C
  H30      1.0000 0.89060  0.77840  0.55200  Biso   1.000  H
  C49      1.0000 0.82698  0.78680  0.55376  Biso   1.000  C
  C50      1.0000 0.78842  0.85730  0.53164  Biso   1.000  C
  H31      1.0000 0.76390  0.84080  0.54500  Biso   1.000  H
  C51      1.0000 0.78629  0.95250  0.48941  Biso   1.000  C
  H32      1.0000 0.76030  0.99870  0.47440  Biso   1.000  H
  C52      1.0000 0.82834  0.66480  0.59347  Biso   1.000  C
  O9       1.0000 0.09846  0.61550  0.31508  Biso   1.000  O
  O10      1.0000 0.14998  0.52020  0.27955  Biso   1.000  O
  O11      1.0000 0.63784  0.09830  0.89579  Biso   1.000  O
  O12      1.0000 0.70518  0.14480  0.89036  Biso   1.000  O
  Mn5      1.0000 0.87997  0.60878  0.09710  Biso   1.000  Mn
  Mn6      1.0000 0.78874  0.52708  0.15917  Biso   1.000  Mn
  Cl3      1.0000 0.80649  0.71309  0.09889  Biso   1.000  Cl
  N21      1.0000 0.85036  0.57350  0.00083  Biso   1.000  N
  N22      1.0000 0.81573  0.46380  0.89412  Biso   1.000  N
  N23      1.0000 0.93593  0.51060  0.06106  Biso   1.000  N
  N24      1.0000 0.94487  0.38090  0.98941  Biso   1.000  N
  N25      1.0000 0.98143  0.38160  0.03194  Biso   1.000  N
  H33      1.0000 0.00490  0.33760  0.03190  Biso   1.000  H
  N26      1.0000 0.76891  0.67790  0.22270  Biso   1.000  N
  N27      1.0000 0.73892  0.86800  0.28820  Biso   1.000  N
  N28      1.0000 0.71569  0.58940  0.12112  Biso   1.000  N
  N29      1.0000 0.65941  0.71630  0.13461  Biso   1.000  N
  N30      1.0000 0.64714  0.64480  0.08641  Biso   1.000  N
  H34      1.0000 0.62140  0.64690  0.06400  Biso   1.000  H
  C53      1.0000 0.80955  0.60160  0.97076  Biso   1.000  C
  H35      1.0000 0.79230  0.65980  0.98560  Biso   1.000  H
  C54      1.0000 0.79262  0.54640  0.91852  Biso   1.000  C
  H36      1.0000 0.76400  0.56750  0.89960  Biso   1.000  H
  C55      1.0000 0.85626  0.43640  0.92323  Biso   1.000  C
  H37      1.0000 0.87350  0.37930  0.90780  Biso   1.000  H
  C56      1.0000 0.87385  0.49120  0.97665  Biso   1.000  C
  C57      1.0000 0.91865  0.46070  0.00875  Biso   1.000  C
  C58      1.0000 0.97640  0.46010  0.07452  Biso   1.000  C
  C59      1.0000 0.01119  0.48660  0.12514  Biso   1.000  C
  C60      1.0000 0.05151  0.42130  0.13431  Biso   1.000  C
  H38      1.0000 0.05650  0.35990  0.10810  Biso   1.000  H
  C61      1.0000 0.08423  0.44750  0.18230  Biso   1.000  C
  H39      1.0000 0.11100  0.40370  0.18770  Biso   1.000  H
  C62      1.0000 0.07761  0.53790  0.22234  Biso   1.000  C
  C63      1.0000 0.03800  0.60560  0.21171  Biso   1.000  C
  H40      1.0000 0.03340  0.66940  0.23730  Biso   1.000  H
  C64      1.0000 0.00501  0.58070  0.16384  Biso   1.000  C
  H41      1.0000 0.97870  0.62740  0.15780  Biso   1.000  H
  C65      1.0000 0.11141  0.55980  0.27648  Biso   1.000  C
  C66      1.0000 0.79346  0.71610  0.27266  Biso   1.000  C
  H42      1.0000 0.82120  0.67920  0.28590  Biso   1.000  H
  C67      1.0000 0.77828  0.80990  0.30516  Biso   1.000  C
  H43      1.0000 0.79610  0.83320  0.33990  Biso   1.000  H
  C68      1.0000 0.71431  0.82850  0.23843  Biso   1.000  C
  H44      1.0000 0.68680  0.86660  0.22490  Biso   1.000  H
  C69      1.0000 0.72884  0.73200  0.20652  Biso   1.000  C
  C70      1.0000 0.70077  0.68090  0.15391  Biso   1.000  C
  C71      1.0000 0.68061  0.56990  0.07834  Biso   1.000  C
  C72      1.0000 0.67718  0.47860  0.03031  Biso   1.000  C
  C73      1.0000 0.63788  0.41620  0.00558  Biso   1.000  C
  H45      1.0000 0.61280  0.43860  0.01680  Biso   1.000  H
  C74      1.0000 0.63584  0.32070  0.96414  Biso   1.000  C
  H46      1.0000 0.60940  0.27840  0.94800  Biso   1.000  H
  C75      1.0000 0.67302  0.28680  0.94624  Biso   1.000  C
  C76      1.0000 0.71158  0.35730  0.96836  Biso   1.000  C
  H47      1.0000 0.73610  0.34080  0.95500  Biso   1.000  H
  C77      1.0000 0.71371  0.45250  0.01059  Biso   1.000  C
  H48      1.0000 0.73970  0.49870  0.02560  Biso   1.000  H
  C78      1.0000 0.67166  0.16480  0.90653  Biso   1.000  C
  O13      1.0000 0.59846  0.11550  0.31508  Biso   1.000  O
  O14      1.0000 0.64998  0.02020  0.27955  Biso   1.000  O
  O15      1.0000 0.13784  0.59830  0.89579  Biso   1.000  O
  O16      1.0000 0.20518  0.64480  0.89036  Biso   1.000  O
  Mn7      1.0000 0.37997  0.10878  0.09710  Biso   1.000  Mn
  Mn8      1.0000 0.28874  0.02708  0.15917  Biso   1.000  Mn
  Cl4      1.0000 0.30649  0.21309  0.09889  Biso   1.000  Cl
  N31      1.0000 0.35036  0.07350  0.00083  Biso   1.000  N
  N32      1.0000 0.31573  0.96380  0.89412  Biso   1.000  N
  N33      1.0000 0.43593  0.01060  0.06106  Biso   1.000  N
  N34      1.0000 0.44487  0.88090  0.98941  Biso   1.000  N
  N35      1.0000 0.48143  0.88160  0.03194  Biso   1.000  N
  H49      1.0000 0.50490  0.83760  0.03190  Biso   1.000  H
  N36      1.0000 0.26891  0.17790  0.22270  Biso   1.000  N
  N37      1.0000 0.23892  0.36800  0.28820  Biso   1.000  N
  N38      1.0000 0.21569  0.08940  0.12112  Biso   1.000  N
  N39      1.0000 0.15941  0.21630  0.13461  Biso   1.000  N
  N40      1.0000 0.14714  0.14480  0.08641  Biso   1.000  N
  H50      1.0000 0.12140  0.14690  0.06400  Biso   1.000  H
  C79      1.0000 0.30955  0.10160  0.97076  Biso   1.000  C
  H51      1.0000 0.29230  0.15980  0.98560  Biso   1.000  H
  C80      1.0000 0.29262  0.04640  0.91852  Biso   1.000  C
  H52      1.0000 0.26400  0.06750  0.89960  Biso   1.000  H
  C81      1.0000 0.35626  0.93640  0.92323  Biso   1.000  C
  H53      1.0000 0.37350  0.87930  0.90780  Biso   1.000  H
  C82      1.0000 0.37385  0.99120  0.97665  Biso   1.000  C
  C83      1.0000 0.41865  0.96070  0.00875  Biso   1.000  C
  C84      1.0000 0.47640  0.96010  0.07452  Biso   1.000  C
  C85      1.0000 0.51119  0.98660  0.12514  Biso   1.000  C
  C86      1.0000 0.55151  0.92130  0.13431  Biso   1.000  C
  H54      1.0000 0.55650  0.85990  0.10810  Biso   1.000  H
  C87      1.0000 0.58423  0.94750  0.18230  Biso   1.000  C
  H55      1.0000 0.61100  0.90370  0.18770  Biso   1.000  H
  C88      1.0000 0.57761  0.03790  0.22234  Biso   1.000  C
  C89      1.0000 0.53800  0.10560  0.21171  Biso   1.000  C
  H56      1.0000 0.53340  0.16940  0.23730  Biso   1.000  H
  C90      1.0000 0.50501  0.08070  0.16384  Biso   1.000  C
  H57      1.0000 0.47870  0.12740  0.15780  Biso   1.000  H
  C91      1.0000 0.61141  0.05980  0.27648  Biso   1.000  C
  C92      1.0000 0.29346  0.21610  0.27266  Biso   1.000  C
  H58      1.0000 0.32120  0.17920  0.28590  Biso   1.000  H
  C93      1.0000 0.27828  0.30990  0.30516  Biso   1.000  C
  H59      1.0000 0.29610  0.33320  0.33990  Biso   1.000  H
  C94      1.0000 0.21431  0.32850  0.23843  Biso   1.000  C
  H60      1.0000 0.18680  0.36660  0.22490  Biso   1.000  H
  C95      1.0000 0.22884  0.23200  0.20652  Biso   1.000  C
  C96      1.0000 0.20077  0.18090  0.15391  Biso   1.000  C
  C97      1.0000 0.18061  0.06990  0.07834  Biso   1.000  C
  C98      1.0000 0.17718  0.97860  0.03031  Biso   1.000  C
  C99      1.0000 0.13788  0.91620  0.00558  Biso   1.000  C
  H61      1.0000 0.11280  0.93860  0.01680  Biso   1.000  H
  C100     1.0000 0.13584  0.82070  0.96414  Biso   1.000  C
  H62      1.0000 0.10940  0.77840  0.94800  Biso   1.000  H
  C101     1.0000 0.17302  0.78680  0.94624  Biso   1.000  C
  C102     1.0000 0.21158  0.85730  0.96836  Biso   1.000  C
  H63      1.0000 0.23610  0.84080  0.95500  Biso   1.000  H
  C103     1.0000 0.21371  0.95250  0.01059  Biso   1.000  C
  H64      1.0000 0.23970  0.99870  0.02560  Biso   1.000  H
  C104     1.0000 0.17166  0.66480  0.90653  Biso   1.000  C
  O17      1.0000 0.09846  0.38450  0.81508  Biso   1.000  O
  O18      1.0000 0.14998  0.47980  0.77955  Biso   1.000  O
  O19      1.0000 0.63784  0.90170  0.39579  Biso   1.000  O
  O20      1.0000 0.70518  0.85520  0.39036  Biso   1.000  O
  Mn9      1.0000 0.87997  0.39122  0.59710  Biso   1.000  Mn
  Mn10     1.0000 0.78874  0.47292  0.65917  Biso   1.000  Mn
  Cl5      1.0000 0.80649  0.28691  0.59889  Biso   1.000  Cl
  N41      1.0000 0.85036  0.42650  0.50083  Biso   1.000  N
  N42      1.0000 0.81573  0.53620  0.39412  Biso   1.000  N
  N43      1.0000 0.93593  0.48940  0.56106  Biso   1.000  N
  N44      1.0000 0.94487  0.61910  0.48941  Biso   1.000  N
  N45      1.0000 0.98143  0.61840  0.53194  Biso   1.000  N
  H65      1.0000 0.00490  0.66240  0.53190  Biso   1.000  H
  N46      1.0000 0.76891  0.32210  0.72270  Biso   1.000  N
  N47      1.0000 0.73892  0.13200  0.78820  Biso   1.000  N
  N48      1.0000 0.71569  0.41060  0.62112  Biso   1.000  N
  N49      1.0000 0.65941  0.28370  0.63461  Biso   1.000  N
  N50      1.0000 0.64714  0.35520  0.58641  Biso   1.000  N
  H66      1.0000 0.62140  0.35310  0.56400  Biso   1.000  H
  C105     1.0000 0.80955  0.39840  0.47076  Biso   1.000  C
  H67      1.0000 0.79230  0.34020  0.48560  Biso   1.000  H
  C106     1.0000 0.79262  0.45360  0.41852  Biso   1.000  C
  H68      1.0000 0.76400  0.43250  0.39960  Biso   1.000  H
  C107     1.0000 0.85626  0.56360  0.42323  Biso   1.000  C
  H69      1.0000 0.87350  0.62070  0.40780  Biso   1.000  H
  C108     1.0000 0.87385  0.50880  0.47665  Biso   1.000  C
  C109     1.0000 0.91865  0.53930  0.50875  Biso   1.000  C
  C110     1.0000 0.97640  0.53990  0.57452  Biso   1.000  C
  C111     1.0000 0.01119  0.51340  0.62514  Biso   1.000  C
  C112     1.0000 0.05151  0.57870  0.63431  Biso   1.000  C
  H70      1.0000 0.05650  0.64010  0.60810  Biso   1.000  H
  C113     1.0000 0.08423  0.55250  0.68230  Biso   1.000  C
  H71      1.0000 0.11100  0.59630  0.68770  Biso   1.000  H
  C114     1.0000 0.07761  0.46210  0.72234  Biso   1.000  C
  C115     1.0000 0.03800  0.39440  0.71171  Biso   1.000  C
  H72      1.0000 0.03340  0.33060  0.73730  Biso   1.000  H
  C116     1.0000 0.00501  0.41930  0.66384  Biso   1.000  C
  H73      1.0000 0.97870  0.37260  0.65780  Biso   1.000  H
  C117     1.0000 0.11141  0.44020  0.77648  Biso   1.000  C
  C118     1.0000 0.79346  0.28390  0.77266  Biso   1.000  C
  H74      1.0000 0.82120  0.32080  0.78590  Biso   1.000  H
  C119     1.0000 0.77828  0.19010  0.80516  Biso   1.000  C
  H75      1.0000 0.79610  0.16680  0.83990  Biso   1.000  H
  C120     1.0000 0.71431  0.17150  0.73843  Biso   1.000  C
  H76      1.0000 0.68680  0.13340  0.72490  Biso   1.000  H
  C121     1.0000 0.72884  0.26800  0.70652  Biso   1.000  C
  C122     1.0000 0.70077  0.31910  0.65391  Biso   1.000  C
  C123     1.0000 0.68061  0.43010  0.57834  Biso   1.000  C
  C124     1.0000 0.67718  0.52140  0.53031  Biso   1.000  C
  C125     1.0000 0.63788  0.58380  0.50558  Biso   1.000  C
  H77      1.0000 0.61280  0.56140  0.51680  Biso   1.000  H
  C126     1.0000 0.63584  0.67930  0.46414  Biso   1.000  C
  H78      1.0000 0.60940  0.72160  0.44800  Biso   1.000  H
  C127     1.0000 0.67302  0.71320  0.44624  Biso   1.000  C
  C128     1.0000 0.71158  0.64270  0.46836  Biso   1.000  C
  H79      1.0000 0.73610  0.65920  0.45500  Biso   1.000  H
  C129     1.0000 0.71371  0.54750  0.51059  Biso   1.000  C
  H80      1.0000 0.73970  0.50130  0.52560  Biso   1.000  H
  C130     1.0000 0.67166  0.83520  0.40653  Biso   1.000  C
  O21      1.0000 0.59846  0.88450  0.81508  Biso   1.000  O
  O22      1.0000 0.64998  0.97980  0.77955  Biso   1.000  O
  O23      1.0000 0.13784  0.40170  0.39579  Biso   1.000  O
  O24      1.0000 0.20518  0.35520  0.39036  Biso   1.000  O
  Mn11     1.0000 0.37997  0.89122  0.59710  Biso   1.000  Mn
  Mn12     1.0000 0.28874  0.97292  0.65917  Biso   1.000  Mn
  Cl6      1.0000 0.30649  0.78691  0.59889  Biso   1.000  Cl
  N51      1.0000 0.35036  0.92650  0.50083  Biso   1.000  N
  N52      1.0000 0.31573  0.03620  0.39412  Biso   1.000  N
  N53      1.0000 0.43593  0.98940  0.56106  Biso   1.000  N
  N54      1.0000 0.44487  0.11910  0.48941  Biso   1.000  N
  N55      1.0000 0.48143  0.11840  0.53194  Biso   1.000  N
  H81      1.0000 0.50490  0.16240  0.53190  Biso   1.000  H
  N56      1.0000 0.26891  0.82210  0.72270  Biso   1.000  N
  N57      1.0000 0.23892  0.63200  0.78820  Biso   1.000  N
  N58      1.0000 0.21569  0.91060  0.62112  Biso   1.000  N
  N59      1.0000 0.15941  0.78370  0.63461  Biso   1.000  N
  N60      1.0000 0.14714  0.85520  0.58641  Biso   1.000  N
  H82      1.0000 0.12140  0.85310  0.56400  Biso   1.000  H
  C131     1.0000 0.30955  0.89840  0.47076  Biso   1.000  C
  H83      1.0000 0.29230  0.84020  0.48560  Biso   1.000  H
  C132     1.0000 0.29262  0.95360  0.41852  Biso   1.000  C
  H84      1.0000 0.26400  0.93250  0.39960  Biso   1.000  H
  C133     1.0000 0.35626  0.06360  0.42323  Biso   1.000  C
  H85      1.0000 0.37350  0.12070  0.40780  Biso   1.000  H
  C134     1.0000 0.37385  0.00880  0.47665  Biso   1.000  C
  C135     1.0000 0.41865  0.03930  0.50875  Biso   1.000  C
  C136     1.0000 0.47640  0.03990  0.57452  Biso   1.000  C
  C137     1.0000 0.51119  0.01340  0.62514  Biso   1.000  C
  C138     1.0000 0.55151  0.07870  0.63431  Biso   1.000  C
  H86      1.0000 0.55650  0.14010  0.60810  Biso   1.000  H
  C139     1.0000 0.58423  0.05250  0.68230  Biso   1.000  C
  H87      1.0000 0.61100  0.09630  0.68770  Biso   1.000  H
  C140     1.0000 0.57761  0.96210  0.72234  Biso   1.000  C
  C141     1.0000 0.53800  0.89440  0.71171  Biso   1.000  C
  H88      1.0000 0.53340  0.83060  0.73730  Biso   1.000  H
  C142     1.0000 0.50501  0.91930  0.66384  Biso   1.000  C
  H89      1.0000 0.47870  0.87260  0.65780  Biso   1.000  H
  C143     1.0000 0.61141  0.94020  0.77648  Biso   1.000  C
  C144     1.0000 0.29346  0.78390  0.77266  Biso   1.000  C
  H90      1.0000 0.32120  0.82080  0.78590  Biso   1.000  H
  C145     1.0000 0.27828  0.69010  0.80516  Biso   1.000  C
  H91      1.0000 0.29610  0.66680  0.83990  Biso   1.000  H
  C146     1.0000 0.21431  0.67150  0.73843  Biso   1.000  C
  H92      1.0000 0.18680  0.63340  0.72490  Biso   1.000  H
  C147     1.0000 0.22884  0.76800  0.70652  Biso   1.000  C
  C148     1.0000 0.20077  0.81910  0.65391  Biso   1.000  C
  C149     1.0000 0.18061  0.93010  0.57834  Biso   1.000  C
  C150     1.0000 0.17718  0.02140  0.53031  Biso   1.000  C
  C151     1.0000 0.13788  0.08380  0.50558  Biso   1.000  C
  H93      1.0000 0.11280  0.06140  0.51680  Biso   1.000  H
  C152     1.0000 0.13584  0.17930  0.46414  Biso   1.000  C
  H94      1.0000 0.10940  0.22160  0.44800  Biso   1.000  H
  C153     1.0000 0.17302  0.21320  0.44624  Biso   1.000  C
  C154     1.0000 0.21158  0.14270  0.46836  Biso   1.000  C
  H95      1.0000 0.23610  0.15920  0.45500  Biso   1.000  H
  C155     1.0000 0.21371  0.04750  0.51059  Biso   1.000  C
  H96      1.0000 0.23970  0.00130  0.52560  Biso   1.000  H
  C156     1.0000 0.17166  0.33520  0.40653  Biso   1.000  C
  O25      1.0000 0.90154  0.38450  0.68492  Biso   1.000  O
  O26      1.0000 0.85002  0.47980  0.72045  Biso   1.000  O
  O27      1.0000 0.36216  0.90170  0.10421  Biso   1.000  O
  O28      1.0000 0.29482  0.85520  0.10964  Biso   1.000  O
  Mn13     1.0000 0.12003  0.39122  0.90290  Biso   1.000  Mn
  Mn14     1.0000 0.21126  0.47292  0.84083  Biso   1.000  Mn
  Cl7      1.0000 0.19351  0.28691  0.90111  Biso   1.000  Cl
  N61      1.0000 0.14964  0.42650  0.99917  Biso   1.000  N
  N62      1.0000 0.18427  0.53620  0.10588  Biso   1.000  N
  N63      1.0000 0.06407  0.48940  0.93894  Biso   1.000  N
  N64      1.0000 0.05513  0.61910  0.01059  Biso   1.000  N
  N65      1.0000 0.01857  0.61840  0.96806  Biso   1.000  N
  H97      1.0000 0.99510  0.66240  0.96810  Biso   1.000  H
  N66      1.0000 0.23109  0.32210  0.77730  Biso   1.000  N
  N67      1.0000 0.26108  0.13200  0.71180  Biso   1.000  N
  N68      1.0000 0.28431  0.41060  0.87888  Biso   1.000  N
  N69      1.0000 0.34059  0.28370  0.86539  Biso   1.000  N
  N70      1.0000 0.35286  0.35520  0.91359  Biso   1.000  N
  H98      1.0000 0.37860  0.35310  0.93600  Biso   1.000  H
  C157     1.0000 0.19045  0.39840  0.02924  Biso   1.000  C
  H99      1.0000 0.20770  0.34020  0.01440  Biso   1.000  H
  C158     1.0000 0.20738  0.45360  0.08148  Biso   1.000  C
  H100     1.0000 0.23600  0.43250  0.10040  Biso   1.000  H
  C159     1.0000 0.14374  0.56360  0.07677  Biso   1.000  C
  H101     1.0000 0.12650  0.62070  0.09220  Biso   1.000  H
  C160     1.0000 0.12615  0.50880  0.02335  Biso   1.000  C
  C161     1.0000 0.08135  0.53930  0.99125  Biso   1.000  C
  C162     1.0000 0.02360  0.53990  0.92548  Biso   1.000  C
  C163     1.0000 0.98881  0.51340  0.87486  Biso   1.000  C
  C164     1.0000 0.94849  0.57870  0.86569  Biso   1.000  C
  H102     1.0000 0.94350  0.64010  0.89190  Biso   1.000  H
  C165     1.0000 0.91577  0.55250  0.81770  Biso   1.000  C
  H103     1.0000 0.88900  0.59630  0.81230  Biso   1.000  H
  C166     1.0000 0.92239  0.46210  0.77766  Biso   1.000  C
  C167     1.0000 0.96200  0.39440  0.78829  Biso   1.000  C
  H104     1.0000 0.96660  0.33060  0.76270  Biso   1.000  H
  C168     1.0000 0.99499  0.41930  0.83616  Biso   1.000  C
  H105     1.0000 0.02130  0.37260  0.84220  Biso   1.000  H
  C169     1.0000 0.88859  0.44020  0.72352  Biso   1.000  C
  C170     1.0000 0.20654  0.28390  0.72734  Biso   1.000  C
  H106     1.0000 0.17880  0.32080  0.71410  Biso   1.000  H
  C171     1.0000 0.22172  0.19010  0.69484  Biso   1.000  C
  H107     1.0000 0.20390  0.16680  0.66010  Biso   1.000  H
  C172     1.0000 0.28569  0.17150  0.76157  Biso   1.000  C
  H108     1.0000 0.31320  0.13340  0.77510  Biso   1.000  H
  C173     1.0000 0.27116  0.26800  0.79348  Biso   1.000  C
  C174     1.0000 0.29923  0.31910  0.84609  Biso   1.000  C
  C175     1.0000 0.31939  0.43010  0.92166  Biso   1.000  C
  C176     1.0000 0.32282  0.52140  0.96969  Biso   1.000  C
  C177     1.0000 0.36212  0.58380  0.99442  Biso   1.000  C
  H109     1.0000 0.38720  0.56140  0.98320  Biso   1.000  H
  C178     1.0000 0.36416  0.67930  0.03586  Biso   1.000  C
  H110     1.0000 0.39060  0.72160  0.05200  Biso   1.000  H
  C179     1.0000 0.32698  0.71320  0.05376  Biso   1.000  C
  C180     1.0000 0.28842  0.64270  0.03164  Biso   1.000  C
  H111     1.0000 0.26390  0.65920  0.04500  Biso   1.000  H
  C181     1.0000 0.28629  0.54750  0.98941  Biso   1.000  C
  H112     1.0000 0.26030  0.50130  0.97440  Biso   1.000  H
  C182     1.0000 0.32834  0.83520  0.09347  Biso   1.000  C
  O29      1.0000 0.40154  0.88450  0.68492  Biso   1.000  O
  O30      1.0000 0.35002  0.97980  0.72045  Biso   1.000  O
  O31      1.0000 0.86216  0.40170  0.10421  Biso   1.000  O
  O32      1.0000 0.79482  0.35520  0.10964  Biso   1.000  O
  Mn15     1.0000 0.62003  0.89122  0.90290  Biso   1.000  Mn
  Mn16     1.0000 0.71126  0.97292  0.84083  Biso   1.000  Mn
  Cl8      1.0000 0.69351  0.78691  0.90111  Biso   1.000  Cl
  N71      1.0000 0.64964  0.92650  0.99917  Biso   1.000  N
  N72      1.0000 0.68427  0.03620  0.10588  Biso   1.000  N
  N73      1.0000 0.56407  0.98940  0.93894  Biso   1.000  N
  N74      1.0000 0.55513  0.11910  0.01059  Biso   1.000  N
  N75      1.0000 0.51857  0.11840  0.96806  Biso   1.000  N
  H113     1.0000 0.49510  0.16240  0.96810  Biso   1.000  H
  N76      1.0000 0.73109  0.82210  0.77730  Biso   1.000  N
  N77      1.0000 0.76108  0.63200  0.71180  Biso   1.000  N
  N78      1.0000 0.78431  0.91060  0.87888  Biso   1.000  N
  N79      1.0000 0.84059  0.78370  0.86539  Biso   1.000  N
  N80      1.0000 0.85286  0.85520  0.91359  Biso   1.000  N
  H114     1.0000 0.87860  0.85310  0.93600  Biso   1.000  H
  C183     1.0000 0.69045  0.89840  0.02924  Biso   1.000  C
  H115     1.0000 0.70770  0.84020  0.01440  Biso   1.000  H
  C184     1.0000 0.70738  0.95360  0.08148  Biso   1.000  C
  H116     1.0000 0.73600  0.93250  0.10040  Biso   1.000  H
  C185     1.0000 0.64374  0.06360  0.07677  Biso   1.000  C
  H117     1.0000 0.62650  0.12070  0.09220  Biso   1.000  H
  C186     1.0000 0.62615  0.00880  0.02335  Biso   1.000  C
  C187     1.0000 0.58135  0.03930  0.99125  Biso   1.000  C
  C188     1.0000 0.52360  0.03990  0.92548  Biso   1.000  C
  C189     1.0000 0.48881  0.01340  0.87486  Biso   1.000  C
  C190     1.0000 0.44849  0.07870  0.86569  Biso   1.000  C
  H118     1.0000 0.44350  0.14010  0.89190  Biso   1.000  H
  C191     1.0000 0.41577  0.05250  0.81770  Biso   1.000  C
  H119     1.0000 0.38900  0.09630  0.81230  Biso   1.000  H
  C192     1.0000 0.42239  0.96210  0.77766  Biso   1.000  C
  C193     1.0000 0.46200  0.89440  0.78829  Biso   1.000  C
  H120     1.0000 0.46660  0.83060  0.76270  Biso   1.000  H
  C194     1.0000 0.49499  0.91930  0.83616  Biso   1.000  C
  H121     1.0000 0.52130  0.87260  0.84220  Biso   1.000  H
  C195     1.0000 0.38859  0.94020  0.72352  Biso   1.000  C
  C196     1.0000 0.70654  0.78390  0.72734  Biso   1.000  C
  H122     1.0000 0.67880  0.82080  0.71410  Biso   1.000  H
  C197     1.0000 0.72172  0.69010  0.69484  Biso   1.000  C
  H123     1.0000 0.70390  0.66680  0.66010  Biso   1.000  H
  C198     1.0000 0.78569  0.67150  0.76157  Biso   1.000  C
  H124     1.0000 0.81320  0.63340  0.77510  Biso   1.000  H
  C199     1.0000 0.77116  0.76800  0.79348  Biso   1.000  C
  C200     1.0000 0.79923  0.81910  0.84609  Biso   1.000  C
  C201     1.0000 0.81939  0.93010  0.92166  Biso   1.000  C
  C202     1.0000 0.82282  0.02140  0.96969  Biso   1.000  C
  C203     1.0000 0.86212  0.08380  0.99442  Biso   1.000  C
  H125     1.0000 0.88720  0.06140  0.98320  Biso   1.000  H
  C204     1.0000 0.86416  0.17930  0.03586  Biso   1.000  C
  H126     1.0000 0.89060  0.22160  0.05200  Biso   1.000  H
  C205     1.0000 0.82698  0.21320  0.05376  Biso   1.000  C
  C206     1.0000 0.78842  0.14270  0.03164  Biso   1.000  C
  H127     1.0000 0.76390  0.15920  0.04500  Biso   1.000  H
  C207     1.0000 0.78629  0.04750  0.98941  Biso   1.000  C
  H128     1.0000 0.76030  0.00130  0.97440  Biso   1.000  H
  C208     1.0000 0.82834  0.33520  0.09347  Biso   1.000  C
