data_FUYYAA_clean
_audit_creation_date              2014-07-02
_audit_creation_method            'Materials Studio'
_symmetry_space_group_name_H-M    'P1'
_symmetry_Int_Tables_number       1
_symmetry_cell_setting            triclinic
loop_
_symmetry_equiv_pos_as_xyz
  x,y,z
_cell_length_a                    8.8230
_cell_length_b                    9.3960
_cell_length_c                    14.5460
_cell_angle_alpha                 81.8500
_cell_angle_beta                  72.7980
_cell_angle_gamma                 65.3680
loop_
_atom_site_label
_atom_site_type_symbol
_atom_site_fract_x
_atom_site_fract_y
_atom_site_fract_z
_atom_site_U_iso_or_equiv
_atom_site_adp_type
_atom_site_occupancy
Nd1    Nd    0.07647   0.18795   0.63437   0.01267  Uiso   1.00
Nd2    Nd    0.92353   0.81205   0.36563   0.01267  Uiso   1.00
Cu1    Cu    0.42703   0.38274   0.93446   0.01267  Uiso   1.00
Cu2    Cu    0.57297   0.61726   0.06554   0.01267  Uiso   1.00
H1     H     0.72380   0.29710   0.14740   0.01267  Uiso   1.00
H2     H     0.97880   0.07770   0.11130   0.01267  Uiso   1.00
H3     H     0.51180   0.89690   0.92820   0.01267  Uiso   1.00
H4     H     0.04190   0.53910   0.77420   0.01267  Uiso   1.00
H5     H     0.65770   0.96450   0.78220   0.01267  Uiso   1.00
H6     H     0.92100   0.78260   0.70250   0.01267  Uiso   1.00
H7     H     0.18440   0.07750   0.96990   0.01267  Uiso   1.00
H8     H     0.27620   0.70290   0.85260   0.01267  Uiso   1.00
H9     H     0.02120   0.92230   0.88870   0.01267  Uiso   1.00
H10    H     0.48820   0.10310   0.07180   0.01267  Uiso   1.00
H11    H     0.95810   0.46090   0.22580   0.01267  Uiso   1.00
H12    H     0.34230   0.03550   0.21780   0.01267  Uiso   1.00
H13    H     0.07900   0.21740   0.29750   0.01267  Uiso   1.00
H14    H     0.81560   0.92250   0.03010   0.01267  Uiso   1.00
C1     C     0.95980   0.46850   0.47170   0.01267  Uiso   1.00
C2     C     0.89820   0.42470   0.94900   0.01267  Uiso   1.00
C3     C     0.84060   0.57670   0.89340   0.01267  Uiso   1.00
C4     C     0.69160   0.38370   0.78390   0.01267  Uiso   1.00
C5     C     0.75400   0.22040   0.83330   0.01267  Uiso   1.00
C6     C     0.80790   0.29620   0.09080   0.01267  Uiso   1.00
C7     C     0.95960   0.16430   0.06960   0.01267  Uiso   1.00
C8     C     0.61940   0.82480   0.89660   0.01267  Uiso   1.00
C9     C     0.93390   0.61180   0.80470   0.01267  Uiso   1.00
C10    C     0.70500   0.86550   0.80940   0.01267  Uiso   1.00
C11    C     0.86200   0.75790   0.76270   0.01267  Uiso   1.00
C12    C     0.05340   0.29400   0.92280   0.01267  Uiso   1.00
C13    C     0.19870   0.27630   0.83110   0.01267  Uiso   1.00
C14    C     0.08120   0.16520   0.98550   0.01267  Uiso   1.00
C15    C     0.90800   0.02120   0.53330   0.01267  Uiso   1.00
C16    C     0.04020   0.53150   0.52830   0.01267  Uiso   1.00
C17    C     0.10180   0.57530   0.05100   0.01267  Uiso   1.00
C18    C     0.15940   0.42330   0.10660   0.01267  Uiso   1.00
C19    C     0.30840   0.61630   0.21610   0.01267  Uiso   1.00
C20    C     0.24600   0.77960   0.16670   0.01267  Uiso   1.00
C21    C     0.19210   0.70380   0.90920   0.01267  Uiso   1.00
C22    C     0.04040   0.83570   0.93040   0.01267  Uiso   1.00
C23    C     0.38060   0.17520   0.10340   0.01267  Uiso   1.00
C24    C     0.06610   0.38820   0.19530   0.01267  Uiso   1.00
C25    C     0.29500   0.13450   0.19060   0.01267  Uiso   1.00
C26    C     0.13800   0.24210   0.23730   0.01267  Uiso   1.00
C27    C     0.94660   0.70600   0.07720   0.01267  Uiso   1.00
C28    C     0.80130   0.72370   0.16890   0.01267  Uiso   1.00
C29    C     0.91880   0.83480   0.01450   0.01267  Uiso   1.00
C30    C     0.09200   0.97880   0.46670   0.01267  Uiso   1.00
N1     N     0.77870   0.42210   0.03220   0.01267  Uiso   1.00
N2     N     0.68630   0.68370   0.93780   0.01267  Uiso   1.00
N3     N     0.22130   0.57790   0.96780   0.01267  Uiso   1.00
N4     N     0.31370   0.31630   0.06220   0.01267  Uiso   1.00
O1     O     0.96120   0.33400   0.49580   0.01267  Uiso   1.00
O2     O     0.64980   0.20150   0.91120   0.01267  Uiso   1.00
O3     O     0.54360   0.48150   0.82580   0.01267  Uiso   1.00
O4     O     0.78810   0.40710   0.70730   0.01267  Uiso   1.00
O5     O     0.17870   0.24100   0.75760   0.01267  Uiso   1.00
O6     O     0.89880   0.12380   0.79500   0.01267  Uiso   1.00
O7     O     0.32960   0.29020   0.83660   0.01267  Uiso   1.00
O8     O     0.89870   0.55630   0.40710   0.01267  Uiso   1.00
O9     O     0.87320   0.08840   0.61050   0.01267  Uiso   1.00
O10    O     0.80640   0.98660   0.50530   0.01267  Uiso   1.00
O11    O     0.03880   0.66600   0.50420   0.01267  Uiso   1.00
O12    O     0.35020   0.79850   0.08880   0.01267  Uiso   1.00
O13    O     0.45640   0.51850   0.17420   0.01267  Uiso   1.00
O14    O     0.21190   0.59290   0.29270   0.01267  Uiso   1.00
O15    O     0.82130   0.75900   0.24240   0.01267  Uiso   1.00
O16    O     0.10120   0.87620   0.20500   0.01267  Uiso   1.00
O17    O     0.67040   0.70980   0.16340   0.01267  Uiso   1.00
O18    O     0.10130   0.44370   0.59290   0.01267  Uiso   1.00
O19    O     0.12680   0.91160   0.38950   0.01267  Uiso   1.00
O20    O     0.19360   0.01340   0.49470   0.01267  Uiso   1.00
