data_image0
_cell_length_a       21.969
_cell_length_b       22.463
_cell_length_c       8.7866
_cell_angle_alpha    90
_cell_angle_beta     90
_cell_angle_gamma    90

_symmetry_space_group_name_H-M    "P 1"
_symmetry_int_tables_number       1

loop_
  _symmetry_equiv_pos_as_xyz
  'x, y, z'

loop_
  _atom_site_label
  _atom_site_occupancy
  _atom_site_fract_x
  _atom_site_fract_y
  _atom_site_fract_z
  _atom_site_thermal_displace_type
  _atom_site_B_iso_or_equiv
  _atom_site_type_symbol
  C1       1.0000 0.34190  0.16850  0.67600  Biso   1.000  C
  C2       1.0000 0.39810  0.13490  0.64550  Biso   1.000  C
  C3       1.0000 0.41840  0.08950  0.73840  Biso   1.000  C
  H1       1.0000 0.39420  0.07760  0.81970  Biso   1.000  H
  C4       1.0000 0.50570  0.07850  0.59660  Biso   1.000  C
  H2       1.0000 0.54280  0.05950  0.58080  Biso   1.000  H
  C5       1.0000 0.48860  0.12230  0.49630  Biso   1.000  C
  H3       1.0000 0.51310  0.13230  0.41390  Biso   1.000  H
  C6       1.0000 0.43430  0.15100  0.52070  Biso   1.000  C
  H4       1.0000 0.42170  0.18100  0.45490  Biso   1.000  H
  N1       1.0000 0.47189  0.06165  0.71600  Biso   1.000  N
  N2       1.0000 0.29820  0.14380  0.75910  Biso   1.000  N
  H5       1.0000 0.30090  0.10760  0.79060  Biso   1.000  H
  N3       1.0000 0.24705  0.17960  0.79380  Biso   1.000  N
  H6       1.0000 0.24980  0.19440  0.88870  Biso   1.000  H
  H7       1.0000 0.21240  0.15860  0.78570  Biso   1.000  H
  O1       1.0000 0.33637  0.21883  0.62200  Biso   1.000  O
  C7       1.0000 0.34190  0.66850  0.17600  Biso   1.000  C
  C8       1.0000 0.39810  0.63490  0.14550  Biso   1.000  C
  C9       1.0000 0.41840  0.58950  0.23840  Biso   1.000  C
  H8       1.0000 0.39420  0.57760  0.31970  Biso   1.000  H
  C10      1.0000 0.50570  0.57850  0.09660  Biso   1.000  C
  H9       1.0000 0.54280  0.55950  0.08080  Biso   1.000  H
  C11      1.0000 0.48860  0.62230  0.99630  Biso   1.000  C
  H10      1.0000 0.51310  0.63230  0.91390  Biso   1.000  H
  C12      1.0000 0.43430  0.65100  0.02070  Biso   1.000  C
  H11      1.0000 0.42170  0.68100  0.95490  Biso   1.000  H
  N4       1.0000 0.47189  0.56165  0.21600  Biso   1.000  N
  N5       1.0000 0.29820  0.64380  0.25910  Biso   1.000  N
  H12      1.0000 0.30090  0.60760  0.29060  Biso   1.000  H
  N6       1.0000 0.24705  0.67960  0.29380  Biso   1.000  N
  H13      1.0000 0.24980  0.69440  0.38870  Biso   1.000  H
  H14      1.0000 0.21240  0.65860  0.28570  Biso   1.000  H
  O2       1.0000 0.33637  0.71883  0.12200  Biso   1.000  O
  C13      1.0000 0.84190  0.16850  0.17600  Biso   1.000  C
  C14      1.0000 0.89810  0.13490  0.14550  Biso   1.000  C
  C15      1.0000 0.91840  0.08950  0.23840  Biso   1.000  C
  H15      1.0000 0.89420  0.07760  0.31970  Biso   1.000  H
  C16      1.0000 0.00570  0.07850  0.09660  Biso   1.000  C
  H16      1.0000 0.04280  0.05950  0.08080  Biso   1.000  H
  C17      1.0000 0.98860  0.12230  0.99630  Biso   1.000  C
  H17      1.0000 0.01310  0.13230  0.91390  Biso   1.000  H
  C18      1.0000 0.93430  0.15100  0.02070  Biso   1.000  C
  H18      1.0000 0.92170  0.18100  0.95490  Biso   1.000  H
  N7       1.0000 0.97189  0.06165  0.21600  Biso   1.000  N
  N8       1.0000 0.79820  0.14380  0.25910  Biso   1.000  N
  H19      1.0000 0.80090  0.10760  0.29060  Biso   1.000  H
  N9       1.0000 0.74705  0.17960  0.29380  Biso   1.000  N
  H20      1.0000 0.74980  0.19440  0.38870  Biso   1.000  H
  H21      1.0000 0.71240  0.15860  0.28570  Biso   1.000  H
  O3       1.0000 0.83637  0.21883  0.12200  Biso   1.000  O
  C19      1.0000 0.84190  0.66850  0.67600  Biso   1.000  C
  C20      1.0000 0.89810  0.63490  0.64550  Biso   1.000  C
  C21      1.0000 0.91840  0.58950  0.73840  Biso   1.000  C
  H22      1.0000 0.89420  0.57760  0.81970  Biso   1.000  H
  C22      1.0000 0.00570  0.57850  0.59660  Biso   1.000  C
  H23      1.0000 0.04280  0.55950  0.58080  Biso   1.000  H
  C23      1.0000 0.98860  0.62230  0.49630  Biso   1.000  C
  H24      1.0000 0.01310  0.63230  0.41390  Biso   1.000  H
  C24      1.0000 0.93430  0.65100  0.52070  Biso   1.000  C
  H25      1.0000 0.92170  0.68100  0.45490  Biso   1.000  H
  N10      1.0000 0.97189  0.56165  0.71600  Biso   1.000  N
  N11      1.0000 0.79820  0.64380  0.75910  Biso   1.000  N
  H26      1.0000 0.80090  0.60760  0.79060  Biso   1.000  H
  N12      1.0000 0.74705  0.67960  0.79380  Biso   1.000  N
  H27      1.0000 0.74980  0.69440  0.88870  Biso   1.000  H
  H28      1.0000 0.71240  0.65860  0.78570  Biso   1.000  H
  O4       1.0000 0.83637  0.71883  0.62200  Biso   1.000  O
  C25      1.0000 0.65810  0.83150  0.67600  Biso   1.000  C
  C26      1.0000 0.60190  0.86510  0.64550  Biso   1.000  C
  C27      1.0000 0.58160  0.91050  0.73840  Biso   1.000  C
  H29      1.0000 0.60580  0.92240  0.81970  Biso   1.000  H
  C28      1.0000 0.49430  0.92150  0.59660  Biso   1.000  C
  H30      1.0000 0.45720  0.94050  0.58080  Biso   1.000  H
  C29      1.0000 0.51140  0.87770  0.49630  Biso   1.000  C
  H31      1.0000 0.48690  0.86770  0.41390  Biso   1.000  H
  C30      1.0000 0.56570  0.84900  0.52070  Biso   1.000  C
  H32      1.0000 0.57830  0.81900  0.45490  Biso   1.000  H
  N13      1.0000 0.52811  0.93835  0.71600  Biso   1.000  N
  N14      1.0000 0.70180  0.85620  0.75910  Biso   1.000  N
  H33      1.0000 0.69910  0.89240  0.79060  Biso   1.000  H
  N15      1.0000 0.75295  0.82040  0.79380  Biso   1.000  N
  H34      1.0000 0.75020  0.80560  0.88870  Biso   1.000  H
  H35      1.0000 0.78760  0.84140  0.78570  Biso   1.000  H
  O5       1.0000 0.66363  0.78117  0.62200  Biso   1.000  O
  C31      1.0000 0.65810  0.33150  0.17600  Biso   1.000  C
  C32      1.0000 0.60190  0.36510  0.14550  Biso   1.000  C
  C33      1.0000 0.58160  0.41050  0.23840  Biso   1.000  C
  H36      1.0000 0.60580  0.42240  0.31970  Biso   1.000  H
  C34      1.0000 0.49430  0.42150  0.09660  Biso   1.000  C
  H37      1.0000 0.45720  0.44050  0.08080  Biso   1.000  H
  C35      1.0000 0.51140  0.37770  0.99630  Biso   1.000  C
  H38      1.0000 0.48690  0.36770  0.91390  Biso   1.000  H
  C36      1.0000 0.56570  0.34900  0.02070  Biso   1.000  C
  H39      1.0000 0.57830  0.31900  0.95490  Biso   1.000  H
  N16      1.0000 0.52811  0.43835  0.21600  Biso   1.000  N
  N17      1.0000 0.70180  0.35620  0.25910  Biso   1.000  N
  H40      1.0000 0.69910  0.39240  0.29060  Biso   1.000  H
  N18      1.0000 0.75295  0.32040  0.29380  Biso   1.000  N
  H41      1.0000 0.75020  0.30560  0.38870  Biso   1.000  H
  H42      1.0000 0.78760  0.34140  0.28570  Biso   1.000  H
  O6       1.0000 0.66363  0.28117  0.12200  Biso   1.000  O
  C37      1.0000 0.15810  0.83150  0.17600  Biso   1.000  C
  C38      1.0000 0.10190  0.86510  0.14550  Biso   1.000  C
  C39      1.0000 0.08160  0.91050  0.23840  Biso   1.000  C
  H43      1.0000 0.10580  0.92240  0.31970  Biso   1.000  H
  C40      1.0000 0.99430  0.92150  0.09660  Biso   1.000  C
  H44      1.0000 0.95720  0.94050  0.08080  Biso   1.000  H
  C41      1.0000 0.01140  0.87770  0.99630  Biso   1.000  C
  H45      1.0000 0.98690  0.86770  0.91390  Biso   1.000  H
  C42      1.0000 0.06570  0.84900  0.02070  Biso   1.000  C
  H46      1.0000 0.07830  0.81900  0.95490  Biso   1.000  H
  N19      1.0000 0.02811  0.93835  0.21600  Biso   1.000  N
  N20      1.0000 0.20180  0.85620  0.25910  Biso   1.000  N
  H47      1.0000 0.19910  0.89240  0.29060  Biso   1.000  H
  N21      1.0000 0.25295  0.82040  0.29380  Biso   1.000  N
  H48      1.0000 0.25020  0.80560  0.38870  Biso   1.000  H
  H49      1.0000 0.28760  0.84140  0.28570  Biso   1.000  H
  O7       1.0000 0.16363  0.78117  0.12200  Biso   1.000  O
  C43      1.0000 0.15810  0.33150  0.67600  Biso   1.000  C
  C44      1.0000 0.10190  0.36510  0.64550  Biso   1.000  C
  C45      1.0000 0.08160  0.41050  0.73840  Biso   1.000  C
  H50      1.0000 0.10580  0.42240  0.81970  Biso   1.000  H
  C46      1.0000 0.99430  0.42150  0.59660  Biso   1.000  C
  H51      1.0000 0.95720  0.44050  0.58080  Biso   1.000  H
  C47      1.0000 0.01140  0.37770  0.49630  Biso   1.000  C
  H52      1.0000 0.98690  0.36770  0.41390  Biso   1.000  H
  C48      1.0000 0.06570  0.34900  0.52070  Biso   1.000  C
  H53      1.0000 0.07830  0.31900  0.45490  Biso   1.000  H
  N22      1.0000 0.02811  0.43835  0.71600  Biso   1.000  N
  N23      1.0000 0.20180  0.35620  0.75910  Biso   1.000  N
  H54      1.0000 0.19910  0.39240  0.79060  Biso   1.000  H
  N24      1.0000 0.25295  0.32040  0.79380  Biso   1.000  N
  H55      1.0000 0.25020  0.30560  0.88870  Biso   1.000  H
  H56      1.0000 0.28760  0.34140  0.78570  Biso   1.000  H
  O8       1.0000 0.16363  0.28117  0.62200  Biso   1.000  O
  C49      1.0000 0.59190  0.08150  0.92600  Biso   1.000  C
  C50      1.0000 0.64810  0.11510  0.89550  Biso   1.000  C
  C51      1.0000 0.66840  0.16050  0.98840  Biso   1.000  C
  H57      1.0000 0.64420  0.17240  0.06970  Biso   1.000  H
  C52      1.0000 0.75570  0.17150  0.84660  Biso   1.000  C
  H58      1.0000 0.79280  0.19050  0.83080  Biso   1.000  H
  C53      1.0000 0.73860  0.12770  0.74630  Biso   1.000  C
  H59      1.0000 0.76310  0.11770  0.66390  Biso   1.000  H
  C54      1.0000 0.68430  0.09900  0.77070  Biso   1.000  C
  H60      1.0000 0.67170  0.06900  0.70490  Biso   1.000  H
  N25      1.0000 0.72189  0.18835  0.96600  Biso   1.000  N
  N26      1.0000 0.54820  0.10620  0.00910  Biso   1.000  N
  H61      1.0000 0.55090  0.14240  0.04060  Biso   1.000  H
  N27      1.0000 0.49705  0.07040  0.04380  Biso   1.000  N
  H62      1.0000 0.49980  0.05560  0.13870  Biso   1.000  H
  H63      1.0000 0.46240  0.09140  0.03570  Biso   1.000  H
  O9       1.0000 0.58637  0.03117  0.87200  Biso   1.000  O
  C55      1.0000 0.59190  0.58150  0.42600  Biso   1.000  C
  C56      1.0000 0.64810  0.61510  0.39550  Biso   1.000  C
  C57      1.0000 0.66840  0.66050  0.48840  Biso   1.000  C
  H64      1.0000 0.64420  0.67240  0.56970  Biso   1.000  H
  C58      1.0000 0.75570  0.67150  0.34660  Biso   1.000  C
  H65      1.0000 0.79280  0.69050  0.33080  Biso   1.000  H
  C59      1.0000 0.73860  0.62770  0.24630  Biso   1.000  C
  H66      1.0000 0.76310  0.61770  0.16390  Biso   1.000  H
  C60      1.0000 0.68430  0.59900  0.27070  Biso   1.000  C
  H67      1.0000 0.67170  0.56900  0.20490  Biso   1.000  H
  N28      1.0000 0.72189  0.68835  0.46600  Biso   1.000  N
  N29      1.0000 0.54820  0.60620  0.50910  Biso   1.000  N
  H68      1.0000 0.55090  0.64240  0.54060  Biso   1.000  H
  N30      1.0000 0.49705  0.57040  0.54380  Biso   1.000  N
  H69      1.0000 0.49980  0.55560  0.63870  Biso   1.000  H
  H70      1.0000 0.46240  0.59140  0.53570  Biso   1.000  H
  O10      1.0000 0.58637  0.53117  0.37200  Biso   1.000  O
  C61      1.0000 0.09190  0.08150  0.42600  Biso   1.000  C
  C62      1.0000 0.14810  0.11510  0.39550  Biso   1.000  C
  C63      1.0000 0.16840  0.16050  0.48840  Biso   1.000  C
  H71      1.0000 0.14420  0.17240  0.56970  Biso   1.000  H
  C64      1.0000 0.25570  0.17150  0.34660  Biso   1.000  C
  H72      1.0000 0.29280  0.19050  0.33080  Biso   1.000  H
  C65      1.0000 0.23860  0.12770  0.24630  Biso   1.000  C
  H73      1.0000 0.26310  0.11770  0.16390  Biso   1.000  H
  C66      1.0000 0.18430  0.09900  0.27070  Biso   1.000  C
  H74      1.0000 0.17170  0.06900  0.20490  Biso   1.000  H
  N31      1.0000 0.22189  0.18835  0.46600  Biso   1.000  N
  N32      1.0000 0.04820  0.10620  0.50910  Biso   1.000  N
  H75      1.0000 0.05090  0.14240  0.54060  Biso   1.000  H
  N33      1.0000 0.99705  0.07040  0.54380  Biso   1.000  N
  H76      1.0000 0.99980  0.05560  0.63870  Biso   1.000  H
  H77      1.0000 0.96240  0.09140  0.53570  Biso   1.000  H
  O11      1.0000 0.08637  0.03117  0.37200  Biso   1.000  O
  C67      1.0000 0.09190  0.58150  0.92600  Biso   1.000  C
  C68      1.0000 0.14810  0.61510  0.89550  Biso   1.000  C
  C69      1.0000 0.16840  0.66050  0.98840  Biso   1.000  C
  H78      1.0000 0.14420  0.67240  0.06970  Biso   1.000  H
  C70      1.0000 0.25570  0.67150  0.84660  Biso   1.000  C
  H79      1.0000 0.29280  0.69050  0.83080  Biso   1.000  H
  C71      1.0000 0.23860  0.62770  0.74630  Biso   1.000  C
  H80      1.0000 0.26310  0.61770  0.66390  Biso   1.000  H
  C72      1.0000 0.18430  0.59900  0.77070  Biso   1.000  C
  H81      1.0000 0.17170  0.56900  0.70490  Biso   1.000  H
  N34      1.0000 0.22189  0.68835  0.96600  Biso   1.000  N
  N35      1.0000 0.04820  0.60620  0.00910  Biso   1.000  N
  H82      1.0000 0.05090  0.64240  0.04060  Biso   1.000  H
  N36      1.0000 0.99705  0.57040  0.04380  Biso   1.000  N
  H83      1.0000 0.99980  0.55560  0.13870  Biso   1.000  H
  H84      1.0000 0.96240  0.59140  0.03570  Biso   1.000  H
  O12      1.0000 0.08637  0.53117  0.87200  Biso   1.000  O
  C73      1.0000 0.90810  0.41850  0.92600  Biso   1.000  C
  C74      1.0000 0.85190  0.38490  0.89550  Biso   1.000  C
  C75      1.0000 0.83160  0.33950  0.98840  Biso   1.000  C
  H85      1.0000 0.85580  0.32760  0.06970  Biso   1.000  H
  C76      1.0000 0.74430  0.32850  0.84660  Biso   1.000  C
  H86      1.0000 0.70720  0.30950  0.83080  Biso   1.000  H
  C77      1.0000 0.76140  0.37230  0.74630  Biso   1.000  C
  H87      1.0000 0.73690  0.38230  0.66390  Biso   1.000  H
  C78      1.0000 0.81570  0.40100  0.77070  Biso   1.000  C
  H88      1.0000 0.82830  0.43100  0.70490  Biso   1.000  H
  N37      1.0000 0.77811  0.31165  0.96600  Biso   1.000  N
  N38      1.0000 0.95180  0.39380  0.00910  Biso   1.000  N
  H89      1.0000 0.94910  0.35760  0.04060  Biso   1.000  H
  N39      1.0000 0.00295  0.42960  0.04380  Biso   1.000  N
  H90      1.0000 0.00020  0.44440  0.13870  Biso   1.000  H
  H91      1.0000 0.03760  0.40860  0.03570  Biso   1.000  H
  O13      1.0000 0.91363  0.46883  0.87200  Biso   1.000  O
  C79      1.0000 0.90810  0.91850  0.42600  Biso   1.000  C
  C80      1.0000 0.85190  0.88490  0.39550  Biso   1.000  C
  C81      1.0000 0.83160  0.83950  0.48840  Biso   1.000  C
  H92      1.0000 0.85580  0.82760  0.56970  Biso   1.000  H
  C82      1.0000 0.74430  0.82850  0.34660  Biso   1.000  C
  H93      1.0000 0.70720  0.80950  0.33080  Biso   1.000  H
  C83      1.0000 0.76140  0.87230  0.24630  Biso   1.000  C
  H94      1.0000 0.73690  0.88230  0.16390  Biso   1.000  H
  C84      1.0000 0.81570  0.90100  0.27070  Biso   1.000  C
  H95      1.0000 0.82830  0.93100  0.20490  Biso   1.000  H
  N40      1.0000 0.77811  0.81165  0.46600  Biso   1.000  N
  N41      1.0000 0.95180  0.89380  0.50910  Biso   1.000  N
  H96      1.0000 0.94910  0.85760  0.54060  Biso   1.000  H
  N42      1.0000 0.00295  0.92960  0.54380  Biso   1.000  N
  H97      1.0000 0.00020  0.94440  0.63870  Biso   1.000  H
  H98      1.0000 0.03760  0.90860  0.53570  Biso   1.000  H
  O14      1.0000 0.91363  0.96883  0.37200  Biso   1.000  O
  C85      1.0000 0.40810  0.41850  0.42600  Biso   1.000  C
  C86      1.0000 0.35190  0.38490  0.39550  Biso   1.000  C
  C87      1.0000 0.33160  0.33950  0.48840  Biso   1.000  C
  H99      1.0000 0.35580  0.32760  0.56970  Biso   1.000  H
  C88      1.0000 0.24430  0.32850  0.34660  Biso   1.000  C
  H100     1.0000 0.20720  0.30950  0.33080  Biso   1.000  H
  C89      1.0000 0.26140  0.37230  0.24630  Biso   1.000  C
  H101     1.0000 0.23690  0.38230  0.16390  Biso   1.000  H
  C90      1.0000 0.31570  0.40100  0.27070  Biso   1.000  C
  H102     1.0000 0.32830  0.43100  0.20490  Biso   1.000  H
  N43      1.0000 0.27811  0.31165  0.46600  Biso   1.000  N
  N44      1.0000 0.45180  0.39380  0.50910  Biso   1.000  N
  H103     1.0000 0.44910  0.35760  0.54060  Biso   1.000  H
  N45      1.0000 0.50295  0.42960  0.54380  Biso   1.000  N
  H104     1.0000 0.50020  0.44440  0.63870  Biso   1.000  H
  H105     1.0000 0.53760  0.40860  0.53570  Biso   1.000  H
  O15      1.0000 0.41363  0.46883  0.37200  Biso   1.000  O
  C91      1.0000 0.40810  0.91850  0.92600  Biso   1.000  C
  C92      1.0000 0.35190  0.88490  0.89550  Biso   1.000  C
  C93      1.0000 0.33160  0.83950  0.98840  Biso   1.000  C
  H106     1.0000 0.35580  0.82760  0.06970  Biso   1.000  H
  C94      1.0000 0.24430  0.82850  0.84660  Biso   1.000  C
  H107     1.0000 0.20720  0.80950  0.83080  Biso   1.000  H
  C95      1.0000 0.26140  0.87230  0.74630  Biso   1.000  C
  H108     1.0000 0.23690  0.88230  0.66390  Biso   1.000  H
  C96      1.0000 0.31570  0.90100  0.77070  Biso   1.000  C
  H109     1.0000 0.32830  0.93100  0.70490  Biso   1.000  H
  N46      1.0000 0.27811  0.81165  0.96600  Biso   1.000  N
  N47      1.0000 0.45180  0.89380  0.00910  Biso   1.000  N
  H110     1.0000 0.44910  0.85760  0.04060  Biso   1.000  H
  N48      1.0000 0.50295  0.92960  0.04380  Biso   1.000  N
  H111     1.0000 0.50020  0.94440  0.13870  Biso   1.000  H
  H112     1.0000 0.53760  0.90860  0.03570  Biso   1.000  H
  O16      1.0000 0.41363  0.96883  0.87200  Biso   1.000  O
  Ni1      1.0000 0.25000  0.25000  0.62703  Biso   1.000  Ni
  Ni2      1.0000 0.25000  0.75000  0.12703  Biso   1.000  Ni
  Ni3      1.0000 0.75000  0.75000  0.62703  Biso   1.000  Ni
  Ni4      1.0000 0.75000  0.25000  0.12703  Biso   1.000  Ni
  Ni5      1.0000 0.50000  0.00000  0.87703  Biso   1.000  Ni
  Ni6      1.0000 0.50000  0.50000  0.37703  Biso   1.000  Ni
  Ni7      1.0000 0.00000  0.50000  0.87703  Biso   1.000  Ni
  Ni8      1.0000 0.00000  0.00000  0.37703  Biso   1.000  Ni
