data_image0
_cell_length_a       31.84
_cell_length_b       13.478
_cell_length_c       19.854
_cell_angle_alpha    90
_cell_angle_beta     91.365
_cell_angle_gamma    90

_symmetry_space_group_name_H-M    "P 1"
_symmetry_int_tables_number       1

loop_
  _symmetry_equiv_pos_as_xyz
  'x, y, z'

loop_
  _atom_site_label
  _atom_site_occupancy
  _atom_site_fract_x
  _atom_site_fract_y
  _atom_site_fract_z
  _atom_site_thermal_displace_type
  _atom_site_B_iso_or_equiv
  _atom_site_type_symbol
  O1       1.0000 0.14111  0.47130  0.36160  Biso   1.000  O
  Cd1      1.0000 0.17482  0.61990  0.35995  Biso   1.000  Cd
  Cd2      1.0000 0.10360  0.66435  0.49003  Biso   1.000  Cd
  C1       1.0000 0.09890  0.29610  0.39330  Biso   1.000  C
  H1       1.0000 0.12630  0.29230  0.37830  Biso   1.000  H
  C2       1.0000 0.13840  0.92060  0.39340  Biso   1.000  C
  C3       1.0000 0.08060  0.38910  0.39910  Biso   1.000  C
  C4       1.0000 0.09870  0.10790  0.40420  Biso   1.000  C
  C5       1.0000 0.15640  0.82080  0.38370  Biso   1.000  C
  C6       1.0000 0.07840  0.20890  0.40880  Biso   1.000  C
  C7       1.0000 0.07620  0.02280  0.40450  Biso   1.000  C
  H2       1.0000 0.04710  0.02650  0.40610  Biso   1.000  H
  C8       1.0000 0.14270  0.10020  0.39830  Biso   1.000  C
  H3       1.0000 0.15890  0.15750  0.39930  Biso   1.000  H
  C9       1.0000 0.03800  0.21790  0.43500  Biso   1.000  C
  H4       1.0000 0.02420  0.16130  0.44960  Biso   1.000  H
  C10      1.0000 0.16210  0.00930  0.39110  Biso   1.000  C
  C11      1.0000 0.04080  0.39600  0.42340  Biso   1.000  C
  H5       1.0000 0.02880  0.45820  0.42930  Biso   1.000  H
  C12      1.0000 0.01790  0.31020  0.43980  Biso   1.000  C
  C13      1.0000 0.09540  0.92880  0.40240  Biso   1.000  C
  H6       1.0000 0.07920  0.87190  0.40710  Biso   1.000  H
  C14      1.0000 0.27890  0.98420  0.43760  Biso   1.000  C
  C15      1.0000 0.29650  0.02180  0.37810  Biso   1.000  C
  H7       1.0000 0.32560  0.02630  0.37490  Biso   1.000  H
  C16      1.0000 0.27070  0.05240  0.32370  Biso   1.000  C
  C17      1.0000 0.20910  0.00980  0.38780  Biso   1.000  C
  C18      1.0000 0.23540  0.97910  0.43990  Biso   1.000  C
  H8       1.0000 0.22330  0.95370  0.47850  Biso   1.000  H
  C19      1.0000 0.22780  0.04580  0.32990  Biso   1.000  C
  H9       1.0000 0.21060  0.06610  0.29400  Biso   1.000  H
  C20      1.0000 0.30680  0.94440  0.49170  Biso   1.000  C
  C21      1.0000 0.29050  0.08290  0.25890  Biso   1.000  C
  C22      1.0000 0.97450  0.31810  0.46520  Biso   1.000  C
  O2       1.0000 0.26843  0.08120  0.20640  Biso   1.000  O
  O3       1.0000 0.95261  0.39450  0.45110  Biso   1.000  O
  O4       1.0000 0.32865  0.10900  0.26040  Biso   1.000  O
  O5       1.0000 0.28910  0.91690  0.54580  Biso   1.000  O
  O6       1.0000 0.34556  0.94490  0.48350  Biso   1.000  O
  O7       1.0000 0.96028  0.25040  0.50070  Biso   1.000  O
  C23      1.0000 0.10540  0.48040  0.38450  Biso   1.000  C
  O8       1.0000 0.08805  0.56340  0.39690  Biso   1.000  O
  O9       1.0000 0.18920  0.80620  0.35370  Biso   1.000  O
  O10      1.0000 0.13561  0.74410  0.40530  Biso   1.000  O
  O11      1.0000 0.64111  0.97130  0.36160  Biso   1.000  O
  Cd3      1.0000 0.67482  0.11990  0.35995  Biso   1.000  Cd
  Cd4      1.0000 0.60360  0.16435  0.49003  Biso   1.000  Cd
  C24      1.0000 0.59890  0.79610  0.39330  Biso   1.000  C
  H10      1.0000 0.62630  0.79230  0.37830  Biso   1.000  H
  C25      1.0000 0.63840  0.42060  0.39340  Biso   1.000  C
  C26      1.0000 0.58060  0.88910  0.39910  Biso   1.000  C
  C27      1.0000 0.59870  0.60790  0.40420  Biso   1.000  C
  C28      1.0000 0.65640  0.32080  0.38370  Biso   1.000  C
  C29      1.0000 0.57840  0.70890  0.40880  Biso   1.000  C
  C30      1.0000 0.57620  0.52280  0.40450  Biso   1.000  C
  H11      1.0000 0.54710  0.52650  0.40610  Biso   1.000  H
  C31      1.0000 0.64270  0.60020  0.39830  Biso   1.000  C
  H12      1.0000 0.65890  0.65750  0.39930  Biso   1.000  H
  C32      1.0000 0.53800  0.71790  0.43500  Biso   1.000  C
  H13      1.0000 0.52420  0.66130  0.44960  Biso   1.000  H
  C33      1.0000 0.66210  0.50930  0.39110  Biso   1.000  C
  C34      1.0000 0.54080  0.89600  0.42340  Biso   1.000  C
  H14      1.0000 0.52880  0.95820  0.42930  Biso   1.000  H
  C35      1.0000 0.51790  0.81020  0.43980  Biso   1.000  C
  C36      1.0000 0.59540  0.42880  0.40240  Biso   1.000  C
  H15      1.0000 0.57920  0.37190  0.40710  Biso   1.000  H
  C37      1.0000 0.77890  0.48420  0.43760  Biso   1.000  C
  C38      1.0000 0.79650  0.52180  0.37810  Biso   1.000  C
  H16      1.0000 0.82560  0.52630  0.37490  Biso   1.000  H
  C39      1.0000 0.77070  0.55240  0.32370  Biso   1.000  C
  C40      1.0000 0.70910  0.50980  0.38780  Biso   1.000  C
  C41      1.0000 0.73540  0.47910  0.43990  Biso   1.000  C
  H17      1.0000 0.72330  0.45370  0.47850  Biso   1.000  H
  C42      1.0000 0.72780  0.54580  0.32990  Biso   1.000  C
  H18      1.0000 0.71060  0.56610  0.29400  Biso   1.000  H
  C43      1.0000 0.80680  0.44440  0.49170  Biso   1.000  C
  C44      1.0000 0.79050  0.58290  0.25890  Biso   1.000  C
  C45      1.0000 0.47450  0.81810  0.46520  Biso   1.000  C
  O12      1.0000 0.76843  0.58120  0.20640  Biso   1.000  O
  O13      1.0000 0.45261  0.89450  0.45110  Biso   1.000  O
  O14      1.0000 0.82865  0.60900  0.26040  Biso   1.000  O
  O15      1.0000 0.78910  0.41690  0.54580  Biso   1.000  O
  O16      1.0000 0.84556  0.44490  0.48350  Biso   1.000  O
  O17      1.0000 0.46028  0.75040  0.50070  Biso   1.000  O
  C46      1.0000 0.60540  0.98040  0.38450  Biso   1.000  C
  O18      1.0000 0.58805  0.06340  0.39690  Biso   1.000  O
  O19      1.0000 0.68920  0.30620  0.35370  Biso   1.000  O
  O20      1.0000 0.63561  0.24410  0.40530  Biso   1.000  O
  O21      1.0000 0.85889  0.47130  0.13840  Biso   1.000  O
  Cd5      1.0000 0.82518  0.61990  0.14005  Biso   1.000  Cd
  Cd6      1.0000 0.89640  0.66435  0.00997  Biso   1.000  Cd
  C47      1.0000 0.90110  0.29610  0.10670  Biso   1.000  C
  H19      1.0000 0.87370  0.29230  0.12170  Biso   1.000  H
  C48      1.0000 0.86160  0.92060  0.10660  Biso   1.000  C
  C49      1.0000 0.91940  0.38910  0.10090  Biso   1.000  C
  C50      1.0000 0.90130  0.10790  0.09580  Biso   1.000  C
  C51      1.0000 0.84360  0.82080  0.11630  Biso   1.000  C
  C52      1.0000 0.92160  0.20890  0.09120  Biso   1.000  C
  C53      1.0000 0.92380  0.02280  0.09550  Biso   1.000  C
  H20      1.0000 0.95290  0.02650  0.09390  Biso   1.000  H
  C54      1.0000 0.85730  0.10020  0.10170  Biso   1.000  C
  H21      1.0000 0.84110  0.15750  0.10070  Biso   1.000  H
  C55      1.0000 0.96200  0.21790  0.06500  Biso   1.000  C
  H22      1.0000 0.97580  0.16130  0.05040  Biso   1.000  H
  C56      1.0000 0.83790  0.00930  0.10890  Biso   1.000  C
  C57      1.0000 0.95920  0.39600  0.07660  Biso   1.000  C
  H23      1.0000 0.97120  0.45820  0.07070  Biso   1.000  H
  C58      1.0000 0.98210  0.31020  0.06020  Biso   1.000  C
  C59      1.0000 0.90460  0.92880  0.09760  Biso   1.000  C
  H24      1.0000 0.92080  0.87190  0.09290  Biso   1.000  H
  C60      1.0000 0.72110  0.98420  0.06240  Biso   1.000  C
  C61      1.0000 0.70350  0.02180  0.12190  Biso   1.000  C
  H25      1.0000 0.67440  0.02630  0.12510  Biso   1.000  H
  C62      1.0000 0.72930  0.05240  0.17630  Biso   1.000  C
  C63      1.0000 0.79090  0.00980  0.11220  Biso   1.000  C
  C64      1.0000 0.76460  0.97910  0.06010  Biso   1.000  C
  H26      1.0000 0.77670  0.95370  0.02150  Biso   1.000  H
  C65      1.0000 0.77220  0.04580  0.17010  Biso   1.000  C
  H27      1.0000 0.78940  0.06610  0.20600  Biso   1.000  H
  C66      1.0000 0.69320  0.94440  0.00830  Biso   1.000  C
  C67      1.0000 0.70950  0.08290  0.24110  Biso   1.000  C
  C68      1.0000 0.02550  0.31810  0.03480  Biso   1.000  C
  O22      1.0000 0.73157  0.08120  0.29360  Biso   1.000  O
  O23      1.0000 0.04739  0.39450  0.04890  Biso   1.000  O
  O24      1.0000 0.67135  0.10900  0.23960  Biso   1.000  O
  O25      1.0000 0.71090  0.91690  0.95420  Biso   1.000  O
  O26      1.0000 0.65444  0.94490  0.01650  Biso   1.000  O
  O27      1.0000 0.03972  0.25040  0.99930  Biso   1.000  O
  C69      1.0000 0.89460  0.48040  0.11550  Biso   1.000  C
  O28      1.0000 0.91195  0.56340  0.10310  Biso   1.000  O
  O29      1.0000 0.81080  0.80620  0.14630  Biso   1.000  O
  O30      1.0000 0.86439  0.74410  0.09470  Biso   1.000  O
  O31      1.0000 0.35889  0.97130  0.13840  Biso   1.000  O
  Cd7      1.0000 0.32518  0.11990  0.14005  Biso   1.000  Cd
  Cd8      1.0000 0.39640  0.16435  0.00997  Biso   1.000  Cd
  C70      1.0000 0.40110  0.79610  0.10670  Biso   1.000  C
  H28      1.0000 0.37370  0.79230  0.12170  Biso   1.000  H
  C71      1.0000 0.36160  0.42060  0.10660  Biso   1.000  C
  C72      1.0000 0.41940  0.88910  0.10090  Biso   1.000  C
  C73      1.0000 0.40130  0.60790  0.09580  Biso   1.000  C
  C74      1.0000 0.34360  0.32080  0.11630  Biso   1.000  C
  C75      1.0000 0.42160  0.70890  0.09120  Biso   1.000  C
  C76      1.0000 0.42380  0.52280  0.09550  Biso   1.000  C
  H29      1.0000 0.45290  0.52650  0.09390  Biso   1.000  H
  C77      1.0000 0.35730  0.60020  0.10170  Biso   1.000  C
  H30      1.0000 0.34110  0.65750  0.10070  Biso   1.000  H
  C78      1.0000 0.46200  0.71790  0.06500  Biso   1.000  C
  H31      1.0000 0.47580  0.66130  0.05040  Biso   1.000  H
  C79      1.0000 0.33790  0.50930  0.10890  Biso   1.000  C
  C80      1.0000 0.45920  0.89600  0.07660  Biso   1.000  C
  H32      1.0000 0.47120  0.95820  0.07070  Biso   1.000  H
  C81      1.0000 0.48210  0.81020  0.06020  Biso   1.000  C
  C82      1.0000 0.40460  0.42880  0.09760  Biso   1.000  C
  H33      1.0000 0.42080  0.37190  0.09290  Biso   1.000  H
  C83      1.0000 0.22110  0.48420  0.06240  Biso   1.000  C
  C84      1.0000 0.20350  0.52180  0.12190  Biso   1.000  C
  H34      1.0000 0.17440  0.52630  0.12510  Biso   1.000  H
  C85      1.0000 0.22930  0.55240  0.17630  Biso   1.000  C
  C86      1.0000 0.29090  0.50980  0.11220  Biso   1.000  C
  C87      1.0000 0.26460  0.47910  0.06010  Biso   1.000  C
  H35      1.0000 0.27670  0.45370  0.02150  Biso   1.000  H
  C88      1.0000 0.27220  0.54580  0.17010  Biso   1.000  C
  H36      1.0000 0.28940  0.56610  0.20600  Biso   1.000  H
  C89      1.0000 0.19320  0.44440  0.00830  Biso   1.000  C
  C90      1.0000 0.20950  0.58290  0.24110  Biso   1.000  C
  C91      1.0000 0.52550  0.81810  0.03480  Biso   1.000  C
  O32      1.0000 0.23157  0.58120  0.29360  Biso   1.000  O
  O33      1.0000 0.54739  0.89450  0.04890  Biso   1.000  O
  O34      1.0000 0.17135  0.60900  0.23960  Biso   1.000  O
  O35      1.0000 0.21090  0.41690  0.95420  Biso   1.000  O
  O36      1.0000 0.15444  0.44490  0.01650  Biso   1.000  O
  O37      1.0000 0.53972  0.75040  0.99930  Biso   1.000  O
  C92      1.0000 0.39460  0.98040  0.11550  Biso   1.000  C
  O38      1.0000 0.41195  0.06340  0.10310  Biso   1.000  O
  O39      1.0000 0.31080  0.30620  0.14630  Biso   1.000  O
  O40      1.0000 0.36439  0.24410  0.09470  Biso   1.000  O
  O41      1.0000 0.85889  0.52870  0.63840  Biso   1.000  O
  Cd9      1.0000 0.82518  0.38010  0.64005  Biso   1.000  Cd
  Cd10     1.0000 0.89640  0.33565  0.50997  Biso   1.000  Cd
  C93      1.0000 0.90110  0.70390  0.60670  Biso   1.000  C
  H37      1.0000 0.87370  0.70770  0.62170  Biso   1.000  H
  C94      1.0000 0.86160  0.07940  0.60660  Biso   1.000  C
  C95      1.0000 0.91940  0.61090  0.60090  Biso   1.000  C
  C96      1.0000 0.90130  0.89210  0.59580  Biso   1.000  C
  C97      1.0000 0.84360  0.17920  0.61630  Biso   1.000  C
  C98      1.0000 0.92160  0.79110  0.59120  Biso   1.000  C
  C99      1.0000 0.92380  0.97720  0.59550  Biso   1.000  C
  H38      1.0000 0.95290  0.97350  0.59390  Biso   1.000  H
  C100     1.0000 0.85730  0.89980  0.60170  Biso   1.000  C
  H39      1.0000 0.84110  0.84250  0.60070  Biso   1.000  H
  C101     1.0000 0.96200  0.78210  0.56500  Biso   1.000  C
  H40      1.0000 0.97580  0.83870  0.55040  Biso   1.000  H
  C102     1.0000 0.83790  0.99070  0.60890  Biso   1.000  C
  C103     1.0000 0.95920  0.60400  0.57660  Biso   1.000  C
  H41      1.0000 0.97120  0.54180  0.57070  Biso   1.000  H
  C104     1.0000 0.98210  0.68980  0.56020  Biso   1.000  C
  C105     1.0000 0.90460  0.07120  0.59760  Biso   1.000  C
  H42      1.0000 0.92080  0.12810  0.59290  Biso   1.000  H
  C106     1.0000 0.72110  0.01580  0.56240  Biso   1.000  C
  C107     1.0000 0.70350  0.97820  0.62190  Biso   1.000  C
  H43      1.0000 0.67440  0.97370  0.62510  Biso   1.000  H
  C108     1.0000 0.72930  0.94760  0.67630  Biso   1.000  C
  C109     1.0000 0.79090  0.99020  0.61220  Biso   1.000  C
  C110     1.0000 0.76460  0.02090  0.56010  Biso   1.000  C
  H44      1.0000 0.77670  0.04630  0.52150  Biso   1.000  H
  C111     1.0000 0.77220  0.95420  0.67010  Biso   1.000  C
  H45      1.0000 0.78940  0.93390  0.70600  Biso   1.000  H
  C112     1.0000 0.69320  0.05560  0.50830  Biso   1.000  C
  C113     1.0000 0.70950  0.91710  0.74110  Biso   1.000  C
  C114     1.0000 0.02550  0.68190  0.53480  Biso   1.000  C
  O42      1.0000 0.73157  0.91880  0.79360  Biso   1.000  O
  O43      1.0000 0.04739  0.60550  0.54890  Biso   1.000  O
  O44      1.0000 0.67135  0.89100  0.73960  Biso   1.000  O
  O45      1.0000 0.71090  0.08310  0.45420  Biso   1.000  O
  O46      1.0000 0.65444  0.05510  0.51650  Biso   1.000  O
  O47      1.0000 0.03972  0.74960  0.49930  Biso   1.000  O
  C115     1.0000 0.89460  0.51960  0.61550  Biso   1.000  C
  O48      1.0000 0.91195  0.43660  0.60310  Biso   1.000  O
  O49      1.0000 0.81080  0.19380  0.64630  Biso   1.000  O
  O50      1.0000 0.86439  0.25590  0.59470  Biso   1.000  O
  O51      1.0000 0.35889  0.02870  0.63840  Biso   1.000  O
  Cd11     1.0000 0.32518  0.88010  0.64005  Biso   1.000  Cd
  Cd12     1.0000 0.39640  0.83565  0.50997  Biso   1.000  Cd
  C116     1.0000 0.40110  0.20390  0.60670  Biso   1.000  C
  H46      1.0000 0.37370  0.20770  0.62170  Biso   1.000  H
  C117     1.0000 0.36160  0.57940  0.60660  Biso   1.000  C
  C118     1.0000 0.41940  0.11090  0.60090  Biso   1.000  C
  C119     1.0000 0.40130  0.39210  0.59580  Biso   1.000  C
  C120     1.0000 0.34360  0.67920  0.61630  Biso   1.000  C
  C121     1.0000 0.42160  0.29110  0.59120  Biso   1.000  C
  C122     1.0000 0.42380  0.47720  0.59550  Biso   1.000  C
  H47      1.0000 0.45290  0.47350  0.59390  Biso   1.000  H
  C123     1.0000 0.35730  0.39980  0.60170  Biso   1.000  C
  H48      1.0000 0.34110  0.34250  0.60070  Biso   1.000  H
  C124     1.0000 0.46200  0.28210  0.56500  Biso   1.000  C
  H49      1.0000 0.47580  0.33870  0.55040  Biso   1.000  H
  C125     1.0000 0.33790  0.49070  0.60890  Biso   1.000  C
  C126     1.0000 0.45920  0.10400  0.57660  Biso   1.000  C
  H50      1.0000 0.47120  0.04180  0.57070  Biso   1.000  H
  C127     1.0000 0.48210  0.18980  0.56020  Biso   1.000  C
  C128     1.0000 0.40460  0.57120  0.59760  Biso   1.000  C
  H51      1.0000 0.42080  0.62810  0.59290  Biso   1.000  H
  C129     1.0000 0.22110  0.51580  0.56240  Biso   1.000  C
  C130     1.0000 0.20350  0.47820  0.62190  Biso   1.000  C
  H52      1.0000 0.17440  0.47370  0.62510  Biso   1.000  H
  C131     1.0000 0.22930  0.44760  0.67630  Biso   1.000  C
  C132     1.0000 0.29090  0.49020  0.61220  Biso   1.000  C
  C133     1.0000 0.26460  0.52090  0.56010  Biso   1.000  C
  H53      1.0000 0.27670  0.54630  0.52150  Biso   1.000  H
  C134     1.0000 0.27220  0.45420  0.67010  Biso   1.000  C
  H54      1.0000 0.28940  0.43390  0.70600  Biso   1.000  H
  C135     1.0000 0.19320  0.55560  0.50830  Biso   1.000  C
  C136     1.0000 0.20950  0.41710  0.74110  Biso   1.000  C
  C137     1.0000 0.52550  0.18190  0.53480  Biso   1.000  C
  O52      1.0000 0.23157  0.41880  0.79360  Biso   1.000  O
  O53      1.0000 0.54739  0.10550  0.54890  Biso   1.000  O
  O54      1.0000 0.17135  0.39100  0.73960  Biso   1.000  O
  O55      1.0000 0.21090  0.58310  0.45420  Biso   1.000  O
  O56      1.0000 0.15444  0.55510  0.51650  Biso   1.000  O
  O57      1.0000 0.53972  0.24960  0.49930  Biso   1.000  O
  C138     1.0000 0.39460  0.01960  0.61550  Biso   1.000  C
  O58      1.0000 0.41195  0.93660  0.60310  Biso   1.000  O
  O59      1.0000 0.31080  0.69380  0.64630  Biso   1.000  O
  O60      1.0000 0.36439  0.75590  0.59470  Biso   1.000  O
  O61      1.0000 0.14111  0.52870  0.86160  Biso   1.000  O
  Cd13     1.0000 0.17482  0.38010  0.85995  Biso   1.000  Cd
  Cd14     1.0000 0.10360  0.33565  0.99003  Biso   1.000  Cd
  C139     1.0000 0.09890  0.70390  0.89330  Biso   1.000  C
  H55      1.0000 0.12630  0.70770  0.87830  Biso   1.000  H
  C140     1.0000 0.13840  0.07940  0.89340  Biso   1.000  C
  C141     1.0000 0.08060  0.61090  0.89910  Biso   1.000  C
  C142     1.0000 0.09870  0.89210  0.90420  Biso   1.000  C
  C143     1.0000 0.15640  0.17920  0.88370  Biso   1.000  C
  C144     1.0000 0.07840  0.79110  0.90880  Biso   1.000  C
  C145     1.0000 0.07620  0.97720  0.90450  Biso   1.000  C
  H56      1.0000 0.04710  0.97350  0.90610  Biso   1.000  H
  C146     1.0000 0.14270  0.89980  0.89830  Biso   1.000  C
  H57      1.0000 0.15890  0.84250  0.89930  Biso   1.000  H
  C147     1.0000 0.03800  0.78210  0.93500  Biso   1.000  C
  H58      1.0000 0.02420  0.83870  0.94960  Biso   1.000  H
  C148     1.0000 0.16210  0.99070  0.89110  Biso   1.000  C
  C149     1.0000 0.04080  0.60400  0.92340  Biso   1.000  C
  H59      1.0000 0.02880  0.54180  0.92930  Biso   1.000  H
  C150     1.0000 0.01790  0.68980  0.93980  Biso   1.000  C
  C151     1.0000 0.09540  0.07120  0.90240  Biso   1.000  C
  H60      1.0000 0.07920  0.12810  0.90710  Biso   1.000  H
  C152     1.0000 0.27890  0.01580  0.93760  Biso   1.000  C
  C153     1.0000 0.29650  0.97820  0.87810  Biso   1.000  C
  H61      1.0000 0.32560  0.97370  0.87490  Biso   1.000  H
  C154     1.0000 0.27070  0.94760  0.82370  Biso   1.000  C
  C155     1.0000 0.20910  0.99020  0.88780  Biso   1.000  C
  C156     1.0000 0.23540  0.02090  0.93990  Biso   1.000  C
  H62      1.0000 0.22330  0.04630  0.97850  Biso   1.000  H
  C157     1.0000 0.22780  0.95420  0.82990  Biso   1.000  C
  H63      1.0000 0.21060  0.93390  0.79400  Biso   1.000  H
  C158     1.0000 0.30680  0.05560  0.99170  Biso   1.000  C
  C159     1.0000 0.29050  0.91710  0.75890  Biso   1.000  C
  C160     1.0000 0.97450  0.68190  0.96520  Biso   1.000  C
  O62      1.0000 0.26843  0.91880  0.70640  Biso   1.000  O
  O63      1.0000 0.95261  0.60550  0.95110  Biso   1.000  O
  O64      1.0000 0.32865  0.89100  0.76040  Biso   1.000  O
  O65      1.0000 0.28910  0.08310  0.04580  Biso   1.000  O
  O66      1.0000 0.34556  0.05510  0.98350  Biso   1.000  O
  O67      1.0000 0.96028  0.74960  0.00070  Biso   1.000  O
  C161     1.0000 0.10540  0.51960  0.88450  Biso   1.000  C
  O68      1.0000 0.08805  0.43660  0.89690  Biso   1.000  O
  O69      1.0000 0.18920  0.19380  0.85370  Biso   1.000  O
  O70      1.0000 0.13561  0.25590  0.90530  Biso   1.000  O
  O71      1.0000 0.64111  0.02870  0.86160  Biso   1.000  O
  Cd15     1.0000 0.67482  0.88010  0.85995  Biso   1.000  Cd
  Cd16     1.0000 0.60360  0.83565  0.99003  Biso   1.000  Cd
  C162     1.0000 0.59890  0.20390  0.89330  Biso   1.000  C
  H64      1.0000 0.62630  0.20770  0.87830  Biso   1.000  H
  C163     1.0000 0.63840  0.57940  0.89340  Biso   1.000  C
  C164     1.0000 0.58060  0.11090  0.89910  Biso   1.000  C
  C165     1.0000 0.59870  0.39210  0.90420  Biso   1.000  C
  C166     1.0000 0.65640  0.67920  0.88370  Biso   1.000  C
  C167     1.0000 0.57840  0.29110  0.90880  Biso   1.000  C
  C168     1.0000 0.57620  0.47720  0.90450  Biso   1.000  C
  H65      1.0000 0.54710  0.47350  0.90610  Biso   1.000  H
  C169     1.0000 0.64270  0.39980  0.89830  Biso   1.000  C
  H66      1.0000 0.65890  0.34250  0.89930  Biso   1.000  H
  C170     1.0000 0.53800  0.28210  0.93500  Biso   1.000  C
  H67      1.0000 0.52420  0.33870  0.94960  Biso   1.000  H
  C171     1.0000 0.66210  0.49070  0.89110  Biso   1.000  C
  C172     1.0000 0.54080  0.10400  0.92340  Biso   1.000  C
  H68      1.0000 0.52880  0.04180  0.92930  Biso   1.000  H
  C173     1.0000 0.51790  0.18980  0.93980  Biso   1.000  C
  C174     1.0000 0.59540  0.57120  0.90240  Biso   1.000  C
  H69      1.0000 0.57920  0.62810  0.90710  Biso   1.000  H
  C175     1.0000 0.77890  0.51580  0.93760  Biso   1.000  C
  C176     1.0000 0.79650  0.47820  0.87810  Biso   1.000  C
  H70      1.0000 0.82560  0.47370  0.87490  Biso   1.000  H
  C177     1.0000 0.77070  0.44760  0.82370  Biso   1.000  C
  C178     1.0000 0.70910  0.49020  0.88780  Biso   1.000  C
  C179     1.0000 0.73540  0.52090  0.93990  Biso   1.000  C
  H71      1.0000 0.72330  0.54630  0.97850  Biso   1.000  H
  C180     1.0000 0.72780  0.45420  0.82990  Biso   1.000  C
  H72      1.0000 0.71060  0.43390  0.79400  Biso   1.000  H
  C181     1.0000 0.80680  0.55560  0.99170  Biso   1.000  C
  C182     1.0000 0.79050  0.41710  0.75890  Biso   1.000  C
  C183     1.0000 0.47450  0.18190  0.96520  Biso   1.000  C
  O72      1.0000 0.76843  0.41880  0.70640  Biso   1.000  O
  O73      1.0000 0.45261  0.10550  0.95110  Biso   1.000  O
  O74      1.0000 0.82865  0.39100  0.76040  Biso   1.000  O
  O75      1.0000 0.78910  0.58310  0.04580  Biso   1.000  O
  O76      1.0000 0.84556  0.55510  0.98350  Biso   1.000  O
  O77      1.0000 0.46028  0.24960  0.00070  Biso   1.000  O
  C184     1.0000 0.60540  0.01960  0.88450  Biso   1.000  C
  O78      1.0000 0.58805  0.93660  0.89690  Biso   1.000  O
  O79      1.0000 0.68920  0.69380  0.85370  Biso   1.000  O
  O80      1.0000 0.63561  0.75590  0.90530  Biso   1.000  O
