data_image0
_cell_length_a       9.787
_cell_length_b       12.157
_cell_length_c       15.182
_cell_angle_alpha    90
_cell_angle_beta     90
_cell_angle_gamma    90

_symmetry_space_group_name_H-M    "P 1"
_symmetry_int_tables_number       1

loop_
  _symmetry_equiv_pos_as_xyz
  'x, y, z'

loop_
  _atom_site_label
  _atom_site_occupancy
  _atom_site_fract_x
  _atom_site_fract_y
  _atom_site_fract_z
  _atom_site_thermal_displace_type
  _atom_site_B_iso_or_equiv
  _atom_site_type_symbol
  C1       1.0000 0.37850  0.82060  0.86230  Biso   1.000  C
  C2       1.0000 0.37830  0.75680  0.78770  Biso   1.000  C
  H1       1.0000 0.29450  0.73770  0.76010  Biso   1.000  H
  C3       1.0000 0.24850  0.86550  0.90250  Biso   1.000  C
  O1       1.0000 0.15110  0.88100  0.85290  Biso   1.000  O
  O2       1.0000 0.25530  0.88440  0.98250  Biso   1.000  O
  O3       1.0000 0.38650  0.61840  0.64550  Biso   1.000  O
  C4       1.0000 0.87850  0.32060  0.36230  Biso   1.000  C
  C5       1.0000 0.87830  0.25680  0.28770  Biso   1.000  C
  H2       1.0000 0.79450  0.23770  0.26010  Biso   1.000  H
  C6       1.0000 0.74850  0.36550  0.40250  Biso   1.000  C
  O4       1.0000 0.65110  0.38100  0.35290  Biso   1.000  O
  O5       1.0000 0.75530  0.38440  0.48250  Biso   1.000  O
  O6       1.0000 0.88650  0.11840  0.14550  Biso   1.000  O
  C7       1.0000 0.62150  0.17940  0.86230  Biso   1.000  C
  C8       1.0000 0.62170  0.24320  0.78770  Biso   1.000  C
  H3       1.0000 0.70550  0.26230  0.76010  Biso   1.000  H
  C9       1.0000 0.75150  0.13450  0.90250  Biso   1.000  C
  O7       1.0000 0.84890  0.11900  0.85290  Biso   1.000  O
  O8       1.0000 0.74470  0.11560  0.98250  Biso   1.000  O
  O9       1.0000 0.61350  0.38160  0.64550  Biso   1.000  O
  C10      1.0000 0.12150  0.67940  0.36230  Biso   1.000  C
  C11      1.0000 0.12170  0.74320  0.28770  Biso   1.000  C
  H4       1.0000 0.20550  0.76230  0.26010  Biso   1.000  H
  C12      1.0000 0.25150  0.63450  0.40250  Biso   1.000  C
  O10      1.0000 0.34890  0.61900  0.35290  Biso   1.000  O
  O11      1.0000 0.24470  0.61560  0.48250  Biso   1.000  O
  O12      1.0000 0.11350  0.88160  0.14550  Biso   1.000  O
  C13      1.0000 0.37850  0.17940  0.86230  Biso   1.000  C
  C14      1.0000 0.37830  0.24320  0.78770  Biso   1.000  C
  H5       1.0000 0.29450  0.26230  0.76010  Biso   1.000  H
  C15      1.0000 0.24850  0.13450  0.90250  Biso   1.000  C
  O13      1.0000 0.15110  0.11900  0.85290  Biso   1.000  O
  O14      1.0000 0.25530  0.11560  0.98250  Biso   1.000  O
  O15      1.0000 0.38650  0.38160  0.64550  Biso   1.000  O
  C16      1.0000 0.87850  0.67940  0.36230  Biso   1.000  C
  C17      1.0000 0.87830  0.74320  0.28770  Biso   1.000  C
  H6       1.0000 0.79450  0.76230  0.26010  Biso   1.000  H
  C18      1.0000 0.74850  0.63450  0.40250  Biso   1.000  C
  O16      1.0000 0.65110  0.61900  0.35290  Biso   1.000  O
  O17      1.0000 0.75530  0.61560  0.48250  Biso   1.000  O
  O18      1.0000 0.88650  0.88160  0.14550  Biso   1.000  O
  C19      1.0000 0.62150  0.82060  0.86230  Biso   1.000  C
  C20      1.0000 0.62170  0.75680  0.78770  Biso   1.000  C
  H7       1.0000 0.70550  0.73770  0.76010  Biso   1.000  H
  C21      1.0000 0.75150  0.86550  0.90250  Biso   1.000  C
  O19      1.0000 0.84890  0.88100  0.85290  Biso   1.000  O
  O20      1.0000 0.74470  0.88440  0.98250  Biso   1.000  O
  O21      1.0000 0.61350  0.61840  0.64550  Biso   1.000  O
  C22      1.0000 0.12150  0.32060  0.36230  Biso   1.000  C
  C23      1.0000 0.12170  0.25680  0.28770  Biso   1.000  C
  H8       1.0000 0.20550  0.23770  0.26010  Biso   1.000  H
  C24      1.0000 0.25150  0.36550  0.40250  Biso   1.000  C
  O22      1.0000 0.34890  0.38100  0.35290  Biso   1.000  O
  O23      1.0000 0.24470  0.38440  0.48250  Biso   1.000  O
  O24      1.0000 0.11350  0.11840  0.14550  Biso   1.000  O
  C25      1.0000 0.50000  0.85300  0.89950  Biso   1.000  C
  H9       1.0000 0.50000  0.89780  0.95080  Biso   1.000  H
  C26      1.0000 0.50000  0.72100  0.75330  Biso   1.000  C
  C27      1.0000 0.50000  0.64780  0.67380  Biso   1.000  C
  C28      1.0000 0.00000  0.35300  0.39950  Biso   1.000  C
  H10      1.0000 0.00000  0.39780  0.45080  Biso   1.000  H
  C29      1.0000 0.00000  0.22100  0.25330  Biso   1.000  C
  C30      1.0000 0.00000  0.14780  0.17380  Biso   1.000  C
  C31      1.0000 0.50000  0.14700  0.89950  Biso   1.000  C
  H11      1.0000 0.50000  0.10220  0.95080  Biso   1.000  H
  C32      1.0000 0.50000  0.27900  0.75330  Biso   1.000  C
  C33      1.0000 0.50000  0.35220  0.67380  Biso   1.000  C
  C34      1.0000 0.00000  0.64700  0.39950  Biso   1.000  C
  H12      1.0000 0.00000  0.60220  0.45080  Biso   1.000  H
  C35      1.0000 0.00000  0.77900  0.25330  Biso   1.000  C
  C36      1.0000 0.00000  0.85220  0.17380  Biso   1.000  C
  Ni1      1.0000 0.00000  0.00000  0.86322  Biso   1.000  Ni
  O25      1.0000 0.00000  0.00000  0.99090  Biso   1.000  O
  Ni2      1.0000 0.50000  0.50000  0.36322  Biso   1.000  Ni
  O26      1.0000 0.50000  0.50000  0.49090  Biso   1.000  O
  Ni3      1.0000 0.83138  0.00000  0.06020  Biso   1.000  Ni
  Ni4      1.0000 0.33138  0.50000  0.56020  Biso   1.000  Ni
  Ni5      1.0000 0.16862  0.00000  0.06020  Biso   1.000  Ni
  Ni6      1.0000 0.66862  0.50000  0.56020  Biso   1.000  Ni
