data_image0
_cell_length_a       30.8851
_cell_length_b       17.4665
_cell_length_c       20.3272
_cell_angle_alpha    90
_cell_angle_beta     127.705
_cell_angle_gamma    90

_symmetry_space_group_name_H-M    "P 1"
_symmetry_int_tables_number       1

loop_
  _symmetry_equiv_pos_as_xyz
  'x, y, z'

loop_
  _atom_site_label
  _atom_site_occupancy
  _atom_site_fract_x
  _atom_site_fract_y
  _atom_site_fract_z
  _atom_site_thermal_displace_type
  _atom_site_B_iso_or_equiv
  _atom_site_type_symbol
  C1       1.0000 0.33000  0.92610  0.58640  Biso   1.000  C
  C2       1.0000 0.30410  0.00200  0.55820  Biso   1.000  C
  C3       1.0000 0.26300  0.01720  0.47450  Biso   1.000  C
  H1       1.0000 0.24990  0.97820  0.43550  Biso   1.000  H
  C4       1.0000 0.24150  0.09060  0.44930  Biso   1.000  C
  H2       1.0000 0.21410  0.10080  0.39340  Biso   1.000  H
  C5       1.0000 0.26120  0.14880  0.50770  Biso   1.000  C
  C6       1.0000 0.30220  0.13370  0.59140  Biso   1.000  C
  H3       1.0000 0.31530  0.17260  0.63040  Biso   1.000  H
  C7       1.0000 0.32370  0.06020  0.61660  Biso   1.000  C
  H4       1.0000 0.35120  0.05010  0.67250  Biso   1.000  H
  C8       1.0000 0.39490  0.70620  0.70220  Biso   1.000  C
  C9       1.0000 0.41820  0.65370  0.77410  Biso   1.000  C
  C10      1.0000 0.47200  0.62880  0.82290  Biso   1.000  C
  H5       1.0000 0.49480  0.64500  0.81030  Biso   1.000  H
  C11      1.0000 0.49230  0.58120  0.88880  Biso   1.000  C
  H6       1.0000 0.52830  0.56440  0.91980  Biso   1.000  H
  C12      1.0000 0.45950  0.55760  0.90990  Biso   1.000  C
  C13      1.0000 0.40510  0.57910  0.86210  Biso   1.000  C
  H7       1.0000 0.38250  0.56290  0.87520  Biso   1.000  H
  C14      1.0000 0.38510  0.62620  0.79340  Biso   1.000  C
  H8       1.0000 0.34830  0.63960  0.75940  Biso   1.000  H
  C15      1.0000 0.55820  0.06160  0.61530  Biso   1.000  C
  C16      1.0000 0.42050  0.92110  0.54980  Biso   1.000  C
  H9       1.0000 0.38420  0.93630  0.51170  Biso   1.000  H
  C17      1.0000 0.45920  0.96750  0.55990  Biso   1.000  C
  H10      1.0000 0.44940  0.01240  0.52920  Biso   1.000  H
  C18      1.0000 0.51400  0.94660  0.61740  Biso   1.000  C
  C19      1.0000 0.52540  0.87610  0.65900  Biso   1.000  C
  H11      1.0000 0.56120  0.85870  0.69600  Biso   1.000  H
  C20      1.0000 0.48320  0.83380  0.64420  Biso   1.000  C
  H12      1.0000 0.49150  0.78790  0.67300  Biso   1.000  H
  C21      1.0000 0.75380  0.02270  0.80460  Biso   1.000  C
  C22      1.0000 0.61480  0.09060  0.65100  Biso   1.000  C
  C23      1.0000 0.62040  0.16330  0.62960  Biso   1.000  C
  H13      1.0000 0.59010  0.19300  0.59080  Biso   1.000  H
  C24      1.0000 0.67420  0.19030  0.66960  Biso   1.000  C
  H14      1.0000 0.68030  0.23990  0.66040  Biso   1.000  H
  C25      1.0000 0.71790  0.14140  0.72290  Biso   1.000  C
  H15      1.0000 0.75340  0.15590  0.74480  Biso   1.000  H
  C26      1.0000 0.70820  0.07140  0.74310  Biso   1.000  C
  C27      1.0000 0.85530  0.84110  0.98870  Biso   1.000  C
  H16      1.0000 0.89310  0.84500  0.02880  Biso   1.000  H
  C28      1.0000 0.82920  0.89930  0.93080  Biso   1.000  C
  H17      1.0000 0.84900  0.93950  0.93120  Biso   1.000  H
  C29      1.0000 0.77270  0.89630  0.87220  Biso   1.000  C
  C30      1.0000 0.74660  0.83310  0.87460  Biso   1.000  C
  H18      1.0000 0.70880  0.82850  0.83590  Biso   1.000  H
  C31      1.0000 0.77580  0.77770  0.93350  Biso   1.000  C
  H19      1.0000 0.75710  0.73610  0.93380  Biso   1.000  H
  N1       1.0000 0.43023  0.85440  0.59050  Biso   1.000  N
  N2       1.0000 0.55860  0.98780  0.63710  Biso   1.000  N
  N3       1.0000 0.73980  0.95100  0.81110  Biso   1.000  N
  N4       1.0000 0.83130  0.78070  0.99190  Biso   1.000  N
  N5       1.0000 0.65680  0.04490  0.70470  Biso   1.000  N
  N6       1.0000 0.23870  0.22530  0.47990  Biso   1.000  N
  N7       1.0000 0.47520  0.50630  0.97760  Biso   1.000  N
  O1       1.0000 0.42607  0.72600  0.68460  Biso   1.000  O
  O2       1.0000 0.34580  0.72520  0.65790  Biso   1.000  O
  O3       1.0000 0.36730  0.91390  0.66130  Biso   1.000  O
  O4       1.0000 0.31340  0.87820  0.53120  Biso   1.000  O
  O5       1.0000 0.51820  0.10260  0.57270  Biso   1.000  O
  O6       1.0000 0.80140  0.04920  0.85510  Biso   1.000  O
  Zn1      1.0000 0.37006  0.79669  0.58608  Biso   1.000  Zn
  H20      1.0000 0.70750  0.93550  0.77300  Biso   1.000  H
  H21      1.0000 0.58320  0.95760  0.64600  Biso   1.000  H
  C32      1.0000 0.83000  0.42610  0.58640  Biso   1.000  C
  C33      1.0000 0.80410  0.50200  0.55820  Biso   1.000  C
  C34      1.0000 0.76300  0.51720  0.47450  Biso   1.000  C
  H22      1.0000 0.74990  0.47820  0.43550  Biso   1.000  H
  C35      1.0000 0.74150  0.59060  0.44930  Biso   1.000  C
  H23      1.0000 0.71410  0.60080  0.39340  Biso   1.000  H
  C36      1.0000 0.76120  0.64880  0.50770  Biso   1.000  C
  C37      1.0000 0.80220  0.63370  0.59140  Biso   1.000  C
  H24      1.0000 0.81530  0.67260  0.63040  Biso   1.000  H
  C38      1.0000 0.82370  0.56020  0.61660  Biso   1.000  C
  H25      1.0000 0.85120  0.55010  0.67250  Biso   1.000  H
  C39      1.0000 0.89490  0.20620  0.70220  Biso   1.000  C
  C40      1.0000 0.91820  0.15370  0.77410  Biso   1.000  C
  C41      1.0000 0.97200  0.12880  0.82290  Biso   1.000  C
  H26      1.0000 0.99480  0.14500  0.81030  Biso   1.000  H
  C42      1.0000 0.99230  0.08120  0.88880  Biso   1.000  C
  H27      1.0000 0.02830  0.06440  0.91980  Biso   1.000  H
  C43      1.0000 0.95950  0.05760  0.90990  Biso   1.000  C
  C44      1.0000 0.90510  0.07910  0.86210  Biso   1.000  C
  H28      1.0000 0.88250  0.06290  0.87520  Biso   1.000  H
  C45      1.0000 0.88510  0.12620  0.79340  Biso   1.000  C
  H29      1.0000 0.84830  0.13960  0.75940  Biso   1.000  H
  C46      1.0000 0.05820  0.56160  0.61530  Biso   1.000  C
  C47      1.0000 0.92050  0.42110  0.54980  Biso   1.000  C
  H30      1.0000 0.88420  0.43630  0.51170  Biso   1.000  H
  C48      1.0000 0.95920  0.46750  0.55990  Biso   1.000  C
  H31      1.0000 0.94940  0.51240  0.52920  Biso   1.000  H
  C49      1.0000 0.01400  0.44660  0.61740  Biso   1.000  C
  C50      1.0000 0.02540  0.37610  0.65900  Biso   1.000  C
  H32      1.0000 0.06120  0.35870  0.69600  Biso   1.000  H
  C51      1.0000 0.98320  0.33380  0.64420  Biso   1.000  C
  H33      1.0000 0.99150  0.28790  0.67300  Biso   1.000  H
  C52      1.0000 0.25380  0.52270  0.80460  Biso   1.000  C
  C53      1.0000 0.11480  0.59060  0.65100  Biso   1.000  C
  C54      1.0000 0.12040  0.66330  0.62960  Biso   1.000  C
  H34      1.0000 0.09010  0.69300  0.59080  Biso   1.000  H
  C55      1.0000 0.17420  0.69030  0.66960  Biso   1.000  C
  H35      1.0000 0.18030  0.73990  0.66040  Biso   1.000  H
  C56      1.0000 0.21790  0.64140  0.72290  Biso   1.000  C
  H36      1.0000 0.25340  0.65590  0.74480  Biso   1.000  H
  C57      1.0000 0.20820  0.57140  0.74310  Biso   1.000  C
  C58      1.0000 0.35530  0.34110  0.98870  Biso   1.000  C
  H37      1.0000 0.39310  0.34500  0.02880  Biso   1.000  H
  C59      1.0000 0.32920  0.39930  0.93080  Biso   1.000  C
  H38      1.0000 0.34900  0.43950  0.93120  Biso   1.000  H
  C60      1.0000 0.27270  0.39630  0.87220  Biso   1.000  C
  C61      1.0000 0.24660  0.33310  0.87460  Biso   1.000  C
  H39      1.0000 0.20880  0.32850  0.83590  Biso   1.000  H
  C62      1.0000 0.27580  0.27770  0.93350  Biso   1.000  C
  H40      1.0000 0.25710  0.23610  0.93380  Biso   1.000  H
  N8       1.0000 0.93023  0.35440  0.59050  Biso   1.000  N
  N9       1.0000 0.05860  0.48780  0.63710  Biso   1.000  N
  N10      1.0000 0.23980  0.45100  0.81110  Biso   1.000  N
  N11      1.0000 0.33130  0.28070  0.99190  Biso   1.000  N
  N12      1.0000 0.15680  0.54490  0.70470  Biso   1.000  N
  N13      1.0000 0.73870  0.72530  0.47990  Biso   1.000  N
  N14      1.0000 0.97520  0.00630  0.97760  Biso   1.000  N
  O7       1.0000 0.92607  0.22600  0.68460  Biso   1.000  O
  O8       1.0000 0.84580  0.22520  0.65790  Biso   1.000  O
  O9       1.0000 0.86730  0.41390  0.66130  Biso   1.000  O
  O10      1.0000 0.81340  0.37820  0.53120  Biso   1.000  O
  O11      1.0000 0.01820  0.60260  0.57270  Biso   1.000  O
  O12      1.0000 0.30140  0.54920  0.85510  Biso   1.000  O
  Zn2      1.0000 0.87006  0.29669  0.58608  Biso   1.000  Zn
  H41      1.0000 0.20750  0.43550  0.77300  Biso   1.000  H
  H42      1.0000 0.08320  0.45760  0.64600  Biso   1.000  H
  C63      1.0000 0.67000  0.92610  0.91360  Biso   1.000  C
  C64      1.0000 0.69590  0.00200  0.94180  Biso   1.000  C
  C65      1.0000 0.73700  0.01720  0.02550  Biso   1.000  C
  H43      1.0000 0.75010  0.97820  0.06450  Biso   1.000  H
  C66      1.0000 0.75850  0.09060  0.05070  Biso   1.000  C
  H44      1.0000 0.78590  0.10080  0.10660  Biso   1.000  H
  C67      1.0000 0.73880  0.14880  0.99230  Biso   1.000  C
  C68      1.0000 0.69780  0.13370  0.90860  Biso   1.000  C
  H45      1.0000 0.68470  0.17260  0.86960  Biso   1.000  H
  C69      1.0000 0.67630  0.06020  0.88340  Biso   1.000  C
  H46      1.0000 0.64880  0.05010  0.82750  Biso   1.000  H
  C70      1.0000 0.60510  0.70620  0.79780  Biso   1.000  C
  C71      1.0000 0.58180  0.65370  0.72590  Biso   1.000  C
  C72      1.0000 0.52800  0.62880  0.67710  Biso   1.000  C
  H47      1.0000 0.50520  0.64500  0.68970  Biso   1.000  H
  C73      1.0000 0.50770  0.58120  0.61120  Biso   1.000  C
  H48      1.0000 0.47170  0.56440  0.58020  Biso   1.000  H
  C74      1.0000 0.54050  0.55760  0.59010  Biso   1.000  C
  C75      1.0000 0.59490  0.57910  0.63790  Biso   1.000  C
  H49      1.0000 0.61750  0.56290  0.62480  Biso   1.000  H
  C76      1.0000 0.61490  0.62620  0.70660  Biso   1.000  C
  H50      1.0000 0.65170  0.63960  0.74060  Biso   1.000  H
  C77      1.0000 0.44180  0.06160  0.88470  Biso   1.000  C
  C78      1.0000 0.57950  0.92110  0.95020  Biso   1.000  C
  H51      1.0000 0.61580  0.93630  0.98830  Biso   1.000  H
  C79      1.0000 0.54080  0.96750  0.94010  Biso   1.000  C
  H52      1.0000 0.55060  0.01240  0.97080  Biso   1.000  H
  C80      1.0000 0.48600  0.94660  0.88260  Biso   1.000  C
  C81      1.0000 0.47460  0.87610  0.84100  Biso   1.000  C
  H53      1.0000 0.43880  0.85870  0.80400  Biso   1.000  H
  C82      1.0000 0.51680  0.83380  0.85580  Biso   1.000  C
  H54      1.0000 0.50850  0.78790  0.82700  Biso   1.000  H
  C83      1.0000 0.24620  0.02270  0.69540  Biso   1.000  C
  C84      1.0000 0.38520  0.09060  0.84900  Biso   1.000  C
  C85      1.0000 0.37960  0.16330  0.87040  Biso   1.000  C
  H55      1.0000 0.40990  0.19300  0.90920  Biso   1.000  H
  C86      1.0000 0.32580  0.19030  0.83040  Biso   1.000  C
  H56      1.0000 0.31970  0.23990  0.83960  Biso   1.000  H
  C87      1.0000 0.28210  0.14140  0.77710  Biso   1.000  C
  H57      1.0000 0.24660  0.15590  0.75520  Biso   1.000  H
  C88      1.0000 0.29180  0.07140  0.75690  Biso   1.000  C
  C89      1.0000 0.14470  0.84110  0.51130  Biso   1.000  C
  H58      1.0000 0.10690  0.84500  0.47120  Biso   1.000  H
  C90      1.0000 0.17080  0.89930  0.56920  Biso   1.000  C
  H59      1.0000 0.15100  0.93950  0.56880  Biso   1.000  H
  C91      1.0000 0.22730  0.89630  0.62780  Biso   1.000  C
  C92      1.0000 0.25340  0.83310  0.62540  Biso   1.000  C
  H60      1.0000 0.29120  0.82850  0.66410  Biso   1.000  H
  C93      1.0000 0.22420  0.77770  0.56650  Biso   1.000  C
  H61      1.0000 0.24290  0.73610  0.56620  Biso   1.000  H
  N15      1.0000 0.56977  0.85440  0.90950  Biso   1.000  N
  N16      1.0000 0.44140  0.98780  0.86290  Biso   1.000  N
  N17      1.0000 0.26020  0.95100  0.68890  Biso   1.000  N
  N18      1.0000 0.16870  0.78070  0.50810  Biso   1.000  N
  N19      1.0000 0.34320  0.04490  0.79530  Biso   1.000  N
  N20      1.0000 0.76130  0.22530  0.02010  Biso   1.000  N
  N21      1.0000 0.52480  0.50630  0.52240  Biso   1.000  N
  O13      1.0000 0.57393  0.72600  0.81540  Biso   1.000  O
  O14      1.0000 0.65420  0.72520  0.84210  Biso   1.000  O
  O15      1.0000 0.63270  0.91390  0.83870  Biso   1.000  O
  O16      1.0000 0.68660  0.87820  0.96880  Biso   1.000  O
  O17      1.0000 0.48180  0.10260  0.92730  Biso   1.000  O
  O18      1.0000 0.19860  0.04920  0.64490  Biso   1.000  O
  Zn3      1.0000 0.62994  0.79669  0.91392  Biso   1.000  Zn
  H62      1.0000 0.29250  0.93550  0.72700  Biso   1.000  H
  H63      1.0000 0.41680  0.95760  0.85400  Biso   1.000  H
  C94      1.0000 0.17000  0.42610  0.91360  Biso   1.000  C
  C95      1.0000 0.19590  0.50200  0.94180  Biso   1.000  C
  C96      1.0000 0.23700  0.51720  0.02550  Biso   1.000  C
  H64      1.0000 0.25010  0.47820  0.06450  Biso   1.000  H
  C97      1.0000 0.25850  0.59060  0.05070  Biso   1.000  C
  H65      1.0000 0.28590  0.60080  0.10660  Biso   1.000  H
  C98      1.0000 0.23880  0.64880  0.99230  Biso   1.000  C
  C99      1.0000 0.19780  0.63370  0.90860  Biso   1.000  C
  H66      1.0000 0.18470  0.67260  0.86960  Biso   1.000  H
  C100     1.0000 0.17630  0.56020  0.88340  Biso   1.000  C
  H67      1.0000 0.14880  0.55010  0.82750  Biso   1.000  H
  C101     1.0000 0.10510  0.20620  0.79780  Biso   1.000  C
  C102     1.0000 0.08180  0.15370  0.72590  Biso   1.000  C
  C103     1.0000 0.02800  0.12880  0.67710  Biso   1.000  C
  H68      1.0000 0.00520  0.14500  0.68970  Biso   1.000  H
  C104     1.0000 0.00770  0.08120  0.61120  Biso   1.000  C
  H69      1.0000 0.97170  0.06440  0.58020  Biso   1.000  H
  C105     1.0000 0.04050  0.05760  0.59010  Biso   1.000  C
  C106     1.0000 0.09490  0.07910  0.63790  Biso   1.000  C
  H70      1.0000 0.11750  0.06290  0.62480  Biso   1.000  H
  C107     1.0000 0.11490  0.12620  0.70660  Biso   1.000  C
  H71      1.0000 0.15170  0.13960  0.74060  Biso   1.000  H
  C108     1.0000 0.94180  0.56160  0.88470  Biso   1.000  C
  C109     1.0000 0.07950  0.42110  0.95020  Biso   1.000  C
  H72      1.0000 0.11580  0.43630  0.98830  Biso   1.000  H
  C110     1.0000 0.04080  0.46750  0.94010  Biso   1.000  C
  H73      1.0000 0.05060  0.51240  0.97080  Biso   1.000  H
  C111     1.0000 0.98600  0.44660  0.88260  Biso   1.000  C
  C112     1.0000 0.97460  0.37610  0.84100  Biso   1.000  C
  H74      1.0000 0.93880  0.35870  0.80400  Biso   1.000  H
  C113     1.0000 0.01680  0.33380  0.85580  Biso   1.000  C
  H75      1.0000 0.00850  0.28790  0.82700  Biso   1.000  H
  C114     1.0000 0.74620  0.52270  0.69540  Biso   1.000  C
  C115     1.0000 0.88520  0.59060  0.84900  Biso   1.000  C
  C116     1.0000 0.87960  0.66330  0.87040  Biso   1.000  C
  H76      1.0000 0.90990  0.69300  0.90920  Biso   1.000  H
  C117     1.0000 0.82580  0.69030  0.83040  Biso   1.000  C
  H77      1.0000 0.81970  0.73990  0.83960  Biso   1.000  H
  C118     1.0000 0.78210  0.64140  0.77710  Biso   1.000  C
  H78      1.0000 0.74660  0.65590  0.75520  Biso   1.000  H
  C119     1.0000 0.79180  0.57140  0.75690  Biso   1.000  C
  C120     1.0000 0.64470  0.34110  0.51130  Biso   1.000  C
  H79      1.0000 0.60690  0.34500  0.47120  Biso   1.000  H
  C121     1.0000 0.67080  0.39930  0.56920  Biso   1.000  C
  H80      1.0000 0.65100  0.43950  0.56880  Biso   1.000  H
  C122     1.0000 0.72730  0.39630  0.62780  Biso   1.000  C
  C123     1.0000 0.75340  0.33310  0.62540  Biso   1.000  C
  H81      1.0000 0.79120  0.32850  0.66410  Biso   1.000  H
  C124     1.0000 0.72420  0.27770  0.56650  Biso   1.000  C
  H82      1.0000 0.74290  0.23610  0.56620  Biso   1.000  H
  N22      1.0000 0.06977  0.35440  0.90950  Biso   1.000  N
  N23      1.0000 0.94140  0.48780  0.86290  Biso   1.000  N
  N24      1.0000 0.76020  0.45100  0.68890  Biso   1.000  N
  N25      1.0000 0.66870  0.28070  0.50810  Biso   1.000  N
  N26      1.0000 0.84320  0.54490  0.79530  Biso   1.000  N
  N27      1.0000 0.26130  0.72530  0.02010  Biso   1.000  N
  N28      1.0000 0.02480  0.00630  0.52240  Biso   1.000  N
  O19      1.0000 0.07393  0.22600  0.81540  Biso   1.000  O
  O20      1.0000 0.15420  0.22520  0.84210  Biso   1.000  O
  O21      1.0000 0.13270  0.41390  0.83870  Biso   1.000  O
  O22      1.0000 0.18660  0.37820  0.96880  Biso   1.000  O
  O23      1.0000 0.98180  0.60260  0.92730  Biso   1.000  O
  O24      1.0000 0.69860  0.54920  0.64490  Biso   1.000  O
  Zn4      1.0000 0.12994  0.29669  0.91392  Biso   1.000  Zn
  H83      1.0000 0.79250  0.43550  0.72700  Biso   1.000  H
  H84      1.0000 0.91680  0.45760  0.85400  Biso   1.000  H
  C125     1.0000 0.67000  0.07390  0.41360  Biso   1.000  C
  C126     1.0000 0.69590  0.99800  0.44180  Biso   1.000  C
  C127     1.0000 0.73700  0.98280  0.52550  Biso   1.000  C
  H85      1.0000 0.75010  0.02180  0.56450  Biso   1.000  H
  C128     1.0000 0.75850  0.90940  0.55070  Biso   1.000  C
  H86      1.0000 0.78590  0.89920  0.60660  Biso   1.000  H
  C129     1.0000 0.73880  0.85120  0.49230  Biso   1.000  C
  C130     1.0000 0.69780  0.86630  0.40860  Biso   1.000  C
  H87      1.0000 0.68470  0.82740  0.36960  Biso   1.000  H
  C131     1.0000 0.67630  0.93980  0.38340  Biso   1.000  C
  H88      1.0000 0.64880  0.94990  0.32750  Biso   1.000  H
  C132     1.0000 0.60510  0.29380  0.29780  Biso   1.000  C
  C133     1.0000 0.58180  0.34630  0.22590  Biso   1.000  C
  C134     1.0000 0.52800  0.37120  0.17710  Biso   1.000  C
  H89      1.0000 0.50520  0.35500  0.18970  Biso   1.000  H
  C135     1.0000 0.50770  0.41880  0.11120  Biso   1.000  C
  H90      1.0000 0.47170  0.43560  0.08020  Biso   1.000  H
  C136     1.0000 0.54050  0.44240  0.09010  Biso   1.000  C
  C137     1.0000 0.59490  0.42090  0.13790  Biso   1.000  C
  H91      1.0000 0.61750  0.43710  0.12480  Biso   1.000  H
  C138     1.0000 0.61490  0.37380  0.20660  Biso   1.000  C
  H92      1.0000 0.65170  0.36040  0.24060  Biso   1.000  H
  C139     1.0000 0.44180  0.93840  0.38470  Biso   1.000  C
  C140     1.0000 0.57950  0.07890  0.45020  Biso   1.000  C
  H93      1.0000 0.61580  0.06370  0.48830  Biso   1.000  H
  C141     1.0000 0.54080  0.03250  0.44010  Biso   1.000  C
  H94      1.0000 0.55060  0.98760  0.47080  Biso   1.000  H
  C142     1.0000 0.48600  0.05340  0.38260  Biso   1.000  C
  C143     1.0000 0.47460  0.12390  0.34100  Biso   1.000  C
  H95      1.0000 0.43880  0.14130  0.30400  Biso   1.000  H
  C144     1.0000 0.51680  0.16620  0.35580  Biso   1.000  C
  H96      1.0000 0.50850  0.21210  0.32700  Biso   1.000  H
  C145     1.0000 0.24620  0.97730  0.19540  Biso   1.000  C
  C146     1.0000 0.38520  0.90940  0.34900  Biso   1.000  C
  C147     1.0000 0.37960  0.83670  0.37040  Biso   1.000  C
  H97      1.0000 0.40990  0.80700  0.40920  Biso   1.000  H
  C148     1.0000 0.32580  0.80970  0.33040  Biso   1.000  C
  H98      1.0000 0.31970  0.76010  0.33960  Biso   1.000  H
  C149     1.0000 0.28210  0.85860  0.27710  Biso   1.000  C
  H99      1.0000 0.24660  0.84410  0.25520  Biso   1.000  H
  C150     1.0000 0.29180  0.92860  0.25690  Biso   1.000  C
  C151     1.0000 0.14470  0.15890  0.01130  Biso   1.000  C
  H100     1.0000 0.10690  0.15500  0.97120  Biso   1.000  H
  C152     1.0000 0.17080  0.10070  0.06920  Biso   1.000  C
  H101     1.0000 0.15100  0.06050  0.06880  Biso   1.000  H
  C153     1.0000 0.22730  0.10370  0.12780  Biso   1.000  C
  C154     1.0000 0.25340  0.16690  0.12540  Biso   1.000  C
  H102     1.0000 0.29120  0.17150  0.16410  Biso   1.000  H
  C155     1.0000 0.22420  0.22230  0.06650  Biso   1.000  C
  H103     1.0000 0.24290  0.26390  0.06620  Biso   1.000  H
  N29      1.0000 0.56977  0.14560  0.40950  Biso   1.000  N
  N30      1.0000 0.44140  0.01220  0.36290  Biso   1.000  N
  N31      1.0000 0.26020  0.04900  0.18890  Biso   1.000  N
  N32      1.0000 0.16870  0.21930  0.00810  Biso   1.000  N
  N33      1.0000 0.34320  0.95510  0.29530  Biso   1.000  N
  N34      1.0000 0.76130  0.77470  0.52010  Biso   1.000  N
  N35      1.0000 0.52480  0.49370  0.02240  Biso   1.000  N
  O25      1.0000 0.57393  0.27400  0.31540  Biso   1.000  O
  O26      1.0000 0.65420  0.27480  0.34210  Biso   1.000  O
  O27      1.0000 0.63270  0.08610  0.33870  Biso   1.000  O
  O28      1.0000 0.68660  0.12180  0.46880  Biso   1.000  O
  O29      1.0000 0.48180  0.89740  0.42730  Biso   1.000  O
  O30      1.0000 0.19860  0.95080  0.14490  Biso   1.000  O
  Zn5      1.0000 0.62994  0.20331  0.41392  Biso   1.000  Zn
  H104     1.0000 0.29250  0.06450  0.22700  Biso   1.000  H
  H105     1.0000 0.41680  0.04240  0.35400  Biso   1.000  H
  C156     1.0000 0.17000  0.57390  0.41360  Biso   1.000  C
  C157     1.0000 0.19590  0.49800  0.44180  Biso   1.000  C
  C158     1.0000 0.23700  0.48280  0.52550  Biso   1.000  C
  H106     1.0000 0.25010  0.52180  0.56450  Biso   1.000  H
  C159     1.0000 0.25850  0.40940  0.55070  Biso   1.000  C
  H107     1.0000 0.28590  0.39920  0.60660  Biso   1.000  H
  C160     1.0000 0.23880  0.35120  0.49230  Biso   1.000  C
  C161     1.0000 0.19780  0.36630  0.40860  Biso   1.000  C
  H108     1.0000 0.18470  0.32740  0.36960  Biso   1.000  H
  C162     1.0000 0.17630  0.43980  0.38340  Biso   1.000  C
  H109     1.0000 0.14880  0.44990  0.32750  Biso   1.000  H
  C163     1.0000 0.10510  0.79380  0.29780  Biso   1.000  C
  C164     1.0000 0.08180  0.84630  0.22590  Biso   1.000  C
  C165     1.0000 0.02800  0.87120  0.17710  Biso   1.000  C
  H110     1.0000 0.00520  0.85500  0.18970  Biso   1.000  H
  C166     1.0000 0.00770  0.91880  0.11120  Biso   1.000  C
  H111     1.0000 0.97170  0.93560  0.08020  Biso   1.000  H
  C167     1.0000 0.04050  0.94240  0.09010  Biso   1.000  C
  C168     1.0000 0.09490  0.92090  0.13790  Biso   1.000  C
  H112     1.0000 0.11750  0.93710  0.12480  Biso   1.000  H
  C169     1.0000 0.11490  0.87380  0.20660  Biso   1.000  C
  H113     1.0000 0.15170  0.86040  0.24060  Biso   1.000  H
  C170     1.0000 0.94180  0.43840  0.38470  Biso   1.000  C
  C171     1.0000 0.07950  0.57890  0.45020  Biso   1.000  C
  H114     1.0000 0.11580  0.56370  0.48830  Biso   1.000  H
  C172     1.0000 0.04080  0.53250  0.44010  Biso   1.000  C
  H115     1.0000 0.05060  0.48760  0.47080  Biso   1.000  H
  C173     1.0000 0.98600  0.55340  0.38260  Biso   1.000  C
  C174     1.0000 0.97460  0.62390  0.34100  Biso   1.000  C
  H116     1.0000 0.93880  0.64130  0.30400  Biso   1.000  H
  C175     1.0000 0.01680  0.66620  0.35580  Biso   1.000  C
  H117     1.0000 0.00850  0.71210  0.32700  Biso   1.000  H
  C176     1.0000 0.74620  0.47730  0.19540  Biso   1.000  C
  C177     1.0000 0.88520  0.40940  0.34900  Biso   1.000  C
  C178     1.0000 0.87960  0.33670  0.37040  Biso   1.000  C
  H118     1.0000 0.90990  0.30700  0.40920  Biso   1.000  H
  C179     1.0000 0.82580  0.30970  0.33040  Biso   1.000  C
  H119     1.0000 0.81970  0.26010  0.33960  Biso   1.000  H
  C180     1.0000 0.78210  0.35860  0.27710  Biso   1.000  C
  H120     1.0000 0.74660  0.34410  0.25520  Biso   1.000  H
  C181     1.0000 0.79180  0.42860  0.25690  Biso   1.000  C
  C182     1.0000 0.64470  0.65890  0.01130  Biso   1.000  C
  H121     1.0000 0.60690  0.65500  0.97120  Biso   1.000  H
  C183     1.0000 0.67080  0.60070  0.06920  Biso   1.000  C
  H122     1.0000 0.65100  0.56050  0.06880  Biso   1.000  H
  C184     1.0000 0.72730  0.60370  0.12780  Biso   1.000  C
  C185     1.0000 0.75340  0.66690  0.12540  Biso   1.000  C
  H123     1.0000 0.79120  0.67150  0.16410  Biso   1.000  H
  C186     1.0000 0.72420  0.72230  0.06650  Biso   1.000  C
  H124     1.0000 0.74290  0.76390  0.06620  Biso   1.000  H
  N36      1.0000 0.06977  0.64560  0.40950  Biso   1.000  N
  N37      1.0000 0.94140  0.51220  0.36290  Biso   1.000  N
  N38      1.0000 0.76020  0.54900  0.18890  Biso   1.000  N
  N39      1.0000 0.66870  0.71930  0.00810  Biso   1.000  N
  N40      1.0000 0.84320  0.45510  0.29530  Biso   1.000  N
  N41      1.0000 0.26130  0.27470  0.52010  Biso   1.000  N
  N42      1.0000 0.02480  0.99370  0.02240  Biso   1.000  N
  O31      1.0000 0.07393  0.77400  0.31540  Biso   1.000  O
  O32      1.0000 0.15420  0.77480  0.34210  Biso   1.000  O
  O33      1.0000 0.13270  0.58610  0.33870  Biso   1.000  O
  O34      1.0000 0.18660  0.62180  0.46880  Biso   1.000  O
  O35      1.0000 0.98180  0.39740  0.42730  Biso   1.000  O
  O36      1.0000 0.69860  0.45080  0.14490  Biso   1.000  O
  Zn6      1.0000 0.12994  0.70331  0.41392  Biso   1.000  Zn
  H125     1.0000 0.79250  0.56450  0.22700  Biso   1.000  H
  H126     1.0000 0.91680  0.54240  0.35400  Biso   1.000  H
  C187     1.0000 0.33000  0.07390  0.08640  Biso   1.000  C
  C188     1.0000 0.30410  0.99800  0.05820  Biso   1.000  C
  C189     1.0000 0.26300  0.98280  0.97450  Biso   1.000  C
  H127     1.0000 0.24990  0.02180  0.93550  Biso   1.000  H
  C190     1.0000 0.24150  0.90940  0.94930  Biso   1.000  C
  H128     1.0000 0.21410  0.89920  0.89340  Biso   1.000  H
  C191     1.0000 0.26120  0.85120  0.00770  Biso   1.000  C
  C192     1.0000 0.30220  0.86630  0.09140  Biso   1.000  C
  H129     1.0000 0.31530  0.82740  0.13040  Biso   1.000  H
  C193     1.0000 0.32370  0.93980  0.11660  Biso   1.000  C
  H130     1.0000 0.35120  0.94990  0.17250  Biso   1.000  H
  C194     1.0000 0.39490  0.29380  0.20220  Biso   1.000  C
  C195     1.0000 0.41820  0.34630  0.27410  Biso   1.000  C
  C196     1.0000 0.47200  0.37120  0.32290  Biso   1.000  C
  H131     1.0000 0.49480  0.35500  0.31030  Biso   1.000  H
  C197     1.0000 0.49230  0.41880  0.38880  Biso   1.000  C
  H132     1.0000 0.52830  0.43560  0.41980  Biso   1.000  H
  C198     1.0000 0.45950  0.44240  0.40990  Biso   1.000  C
  C199     1.0000 0.40510  0.42090  0.36210  Biso   1.000  C
  H133     1.0000 0.38250  0.43710  0.37520  Biso   1.000  H
  C200     1.0000 0.38510  0.37380  0.29340  Biso   1.000  C
  H134     1.0000 0.34830  0.36040  0.25940  Biso   1.000  H
  C201     1.0000 0.55820  0.93840  0.11530  Biso   1.000  C
  C202     1.0000 0.42050  0.07890  0.04980  Biso   1.000  C
  H135     1.0000 0.38420  0.06370  0.01170  Biso   1.000  H
  C203     1.0000 0.45920  0.03250  0.05990  Biso   1.000  C
  H136     1.0000 0.44940  0.98760  0.02920  Biso   1.000  H
  C204     1.0000 0.51400  0.05340  0.11740  Biso   1.000  C
  C205     1.0000 0.52540  0.12390  0.15900  Biso   1.000  C
  H137     1.0000 0.56120  0.14130  0.19600  Biso   1.000  H
  C206     1.0000 0.48320  0.16620  0.14420  Biso   1.000  C
  H138     1.0000 0.49150  0.21210  0.17300  Biso   1.000  H
  C207     1.0000 0.75380  0.97730  0.30460  Biso   1.000  C
  C208     1.0000 0.61480  0.90940  0.15100  Biso   1.000  C
  C209     1.0000 0.62040  0.83670  0.12960  Biso   1.000  C
  H139     1.0000 0.59010  0.80700  0.09080  Biso   1.000  H
  C210     1.0000 0.67420  0.80970  0.16960  Biso   1.000  C
  H140     1.0000 0.68030  0.76010  0.16040  Biso   1.000  H
  C211     1.0000 0.71790  0.85860  0.22290  Biso   1.000  C
  H141     1.0000 0.75340  0.84410  0.24480  Biso   1.000  H
  C212     1.0000 0.70820  0.92860  0.24310  Biso   1.000  C
  C213     1.0000 0.85530  0.15890  0.48870  Biso   1.000  C
  H142     1.0000 0.89310  0.15500  0.52880  Biso   1.000  H
  C214     1.0000 0.82920  0.10070  0.43080  Biso   1.000  C
  H143     1.0000 0.84900  0.06050  0.43120  Biso   1.000  H
  C215     1.0000 0.77270  0.10370  0.37220  Biso   1.000  C
  C216     1.0000 0.74660  0.16690  0.37460  Biso   1.000  C
  H144     1.0000 0.70880  0.17150  0.33590  Biso   1.000  H
  C217     1.0000 0.77580  0.22230  0.43350  Biso   1.000  C
  H145     1.0000 0.75710  0.26390  0.43380  Biso   1.000  H
  N43      1.0000 0.43023  0.14560  0.09050  Biso   1.000  N
  N44      1.0000 0.55860  0.01220  0.13710  Biso   1.000  N
  N45      1.0000 0.73980  0.04900  0.31110  Biso   1.000  N
  N46      1.0000 0.83130  0.21930  0.49190  Biso   1.000  N
  N47      1.0000 0.65680  0.95510  0.20470  Biso   1.000  N
  N48      1.0000 0.23870  0.77470  0.97990  Biso   1.000  N
  N49      1.0000 0.47520  0.49370  0.47760  Biso   1.000  N
  O37      1.0000 0.42607  0.27400  0.18460  Biso   1.000  O
  O38      1.0000 0.34580  0.27480  0.15790  Biso   1.000  O
  O39      1.0000 0.36730  0.08610  0.16130  Biso   1.000  O
  O40      1.0000 0.31340  0.12180  0.03120  Biso   1.000  O
  O41      1.0000 0.51820  0.89740  0.07270  Biso   1.000  O
  O42      1.0000 0.80140  0.95080  0.35510  Biso   1.000  O
  Zn7      1.0000 0.37006  0.20331  0.08608  Biso   1.000  Zn
  H146     1.0000 0.70750  0.06450  0.27300  Biso   1.000  H
  H147     1.0000 0.58320  0.04240  0.14600  Biso   1.000  H
  C218     1.0000 0.83000  0.57390  0.08640  Biso   1.000  C
  C219     1.0000 0.80410  0.49800  0.05820  Biso   1.000  C
  C220     1.0000 0.76300  0.48280  0.97450  Biso   1.000  C
  H148     1.0000 0.74990  0.52180  0.93550  Biso   1.000  H
  C221     1.0000 0.74150  0.40940  0.94930  Biso   1.000  C
  H149     1.0000 0.71410  0.39920  0.89340  Biso   1.000  H
  C222     1.0000 0.76120  0.35120  0.00770  Biso   1.000  C
  C223     1.0000 0.80220  0.36630  0.09140  Biso   1.000  C
  H150     1.0000 0.81530  0.32740  0.13040  Biso   1.000  H
  C224     1.0000 0.82370  0.43980  0.11660  Biso   1.000  C
  H151     1.0000 0.85120  0.44990  0.17250  Biso   1.000  H
  C225     1.0000 0.89490  0.79380  0.20220  Biso   1.000  C
  C226     1.0000 0.91820  0.84630  0.27410  Biso   1.000  C
  C227     1.0000 0.97200  0.87120  0.32290  Biso   1.000  C
  H152     1.0000 0.99480  0.85500  0.31030  Biso   1.000  H
  C228     1.0000 0.99230  0.91880  0.38880  Biso   1.000  C
  H153     1.0000 0.02830  0.93560  0.41980  Biso   1.000  H
  C229     1.0000 0.95950  0.94240  0.40990  Biso   1.000  C
  C230     1.0000 0.90510  0.92090  0.36210  Biso   1.000  C
  H154     1.0000 0.88250  0.93710  0.37520  Biso   1.000  H
  C231     1.0000 0.88510  0.87380  0.29340  Biso   1.000  C
  H155     1.0000 0.84830  0.86040  0.25940  Biso   1.000  H
  C232     1.0000 0.05820  0.43840  0.11530  Biso   1.000  C
  C233     1.0000 0.92050  0.57890  0.04980  Biso   1.000  C
  H156     1.0000 0.88420  0.56370  0.01170  Biso   1.000  H
  C234     1.0000 0.95920  0.53250  0.05990  Biso   1.000  C
  H157     1.0000 0.94940  0.48760  0.02920  Biso   1.000  H
  C235     1.0000 0.01400  0.55340  0.11740  Biso   1.000  C
  C236     1.0000 0.02540  0.62390  0.15900  Biso   1.000  C
  H158     1.0000 0.06120  0.64130  0.19600  Biso   1.000  H
  C237     1.0000 0.98320  0.66620  0.14420  Biso   1.000  C
  H159     1.0000 0.99150  0.71210  0.17300  Biso   1.000  H
  C238     1.0000 0.25380  0.47730  0.30460  Biso   1.000  C
  C239     1.0000 0.11480  0.40940  0.15100  Biso   1.000  C
  C240     1.0000 0.12040  0.33670  0.12960  Biso   1.000  C
  H160     1.0000 0.09010  0.30700  0.09080  Biso   1.000  H
  C241     1.0000 0.17420  0.30970  0.16960  Biso   1.000  C
  H161     1.0000 0.18030  0.26010  0.16040  Biso   1.000  H
  C242     1.0000 0.21790  0.35860  0.22290  Biso   1.000  C
  H162     1.0000 0.25340  0.34410  0.24480  Biso   1.000  H
  C243     1.0000 0.20820  0.42860  0.24310  Biso   1.000  C
  C244     1.0000 0.35530  0.65890  0.48870  Biso   1.000  C
  H163     1.0000 0.39310  0.65500  0.52880  Biso   1.000  H
  C245     1.0000 0.32920  0.60070  0.43080  Biso   1.000  C
  H164     1.0000 0.34900  0.56050  0.43120  Biso   1.000  H
  C246     1.0000 0.27270  0.60370  0.37220  Biso   1.000  C
  C247     1.0000 0.24660  0.66690  0.37460  Biso   1.000  C
  H165     1.0000 0.20880  0.67150  0.33590  Biso   1.000  H
  C248     1.0000 0.27580  0.72230  0.43350  Biso   1.000  C
  H166     1.0000 0.25710  0.76390  0.43380  Biso   1.000  H
  N50      1.0000 0.93023  0.64560  0.09050  Biso   1.000  N
  N51      1.0000 0.05860  0.51220  0.13710  Biso   1.000  N
  N52      1.0000 0.23980  0.54900  0.31110  Biso   1.000  N
  N53      1.0000 0.33130  0.71930  0.49190  Biso   1.000  N
  N54      1.0000 0.15680  0.45510  0.20470  Biso   1.000  N
  N55      1.0000 0.73870  0.27470  0.97990  Biso   1.000  N
  N56      1.0000 0.97520  0.99370  0.47760  Biso   1.000  N
  O43      1.0000 0.92607  0.77400  0.18460  Biso   1.000  O
  O44      1.0000 0.84580  0.77480  0.15790  Biso   1.000  O
  O45      1.0000 0.86730  0.58610  0.16130  Biso   1.000  O
  O46      1.0000 0.81340  0.62180  0.03120  Biso   1.000  O
  O47      1.0000 0.01820  0.39740  0.07270  Biso   1.000  O
  O48      1.0000 0.30140  0.45080  0.35510  Biso   1.000  O
  Zn8      1.0000 0.87006  0.70331  0.08608  Biso   1.000  Zn
  H167     1.0000 0.20750  0.56450  0.27300  Biso   1.000  H
  H168     1.0000 0.08320  0.54240  0.14600  Biso   1.000  H
