data_image0
_cell_length_a       14.5102
_cell_length_b       14.5102
_cell_length_c       15.832
_cell_angle_alpha    90
_cell_angle_beta     90
_cell_angle_gamma    120

_symmetry_space_group_name_H-M    "P 1"
_symmetry_int_tables_number       1

loop_
  _symmetry_equiv_pos_as_xyz
  'x, y, z'

loop_
  _atom_site_label
  _atom_site_occupancy
  _atom_site_fract_x
  _atom_site_fract_y
  _atom_site_fract_z
  _atom_site_thermal_displace_type
  _atom_site_B_iso_or_equiv
  _atom_site_type_symbol
  O1       1.0000 0.94420  0.38300  0.09070  Biso   1.000  O
  C1       1.0000 0.86800  0.35020  0.13900  Biso   1.000  C
  O2       1.0000 0.80450  0.38530  0.14580  Biso   1.000  O
  C2       1.0000 0.85030  0.25950  0.19440  Biso   1.000  C
  H1       1.0000 0.83370  0.19660  0.15920  Biso   1.000  H
  H2       1.0000 0.91570  0.27900  0.22700  Biso   1.000  H
  O3       1.0000 0.61700  0.56120  0.09070  Biso   1.000  O
  C3       1.0000 0.64980  0.51780  0.13900  Biso   1.000  C
  O4       1.0000 0.61470  0.41920  0.14580  Biso   1.000  O
  C4       1.0000 0.74050  0.59080  0.19440  Biso   1.000  C
  H3       1.0000 0.80340  0.63710  0.15920  Biso   1.000  H
  H4       1.0000 0.72100  0.63670  0.22700  Biso   1.000  H
  O5       1.0000 0.43880  0.05580  0.09070  Biso   1.000  O
  C5       1.0000 0.48220  0.13200  0.13900  Biso   1.000  C
  O6       1.0000 0.58080  0.19550  0.14580  Biso   1.000  O
  C6       1.0000 0.40920  0.14970  0.19440  Biso   1.000  C
  H5       1.0000 0.36290  0.16630  0.15920  Biso   1.000  H
  H6       1.0000 0.36330  0.08430  0.22700  Biso   1.000  H
  O7       1.0000 0.05580  0.61700  0.09070  Biso   1.000  O
  C7       1.0000 0.13200  0.64980  0.13900  Biso   1.000  C
  O8       1.0000 0.19550  0.61470  0.14580  Biso   1.000  O
  C8       1.0000 0.14970  0.74050  0.19440  Biso   1.000  C
  H7       1.0000 0.16630  0.80340  0.15920  Biso   1.000  H
  H8       1.0000 0.08430  0.72100  0.22700  Biso   1.000  H
  O9       1.0000 0.38300  0.43880  0.09070  Biso   1.000  O
  C9       1.0000 0.35020  0.48220  0.13900  Biso   1.000  C
  O10      1.0000 0.38530  0.58080  0.14580  Biso   1.000  O
  C10      1.0000 0.25950  0.40920  0.19440  Biso   1.000  C
  H9       1.0000 0.19660  0.36290  0.15920  Biso   1.000  H
  H10      1.0000 0.27900  0.36330  0.22700  Biso   1.000  H
  O11      1.0000 0.56120  0.94420  0.09070  Biso   1.000  O
  C11      1.0000 0.51780  0.86800  0.13900  Biso   1.000  C
  O12      1.0000 0.41920  0.80450  0.14580  Biso   1.000  O
  C12      1.0000 0.59080  0.85030  0.19440  Biso   1.000  C
  H11      1.0000 0.63710  0.83370  0.15920  Biso   1.000  H
  H12      1.0000 0.63670  0.91570  0.22700  Biso   1.000  H
  O13      1.0000 0.38300  0.94420  0.40930  Biso   1.000  O
  C13      1.0000 0.35020  0.86800  0.36100  Biso   1.000  C
  O14      1.0000 0.38530  0.80450  0.35420  Biso   1.000  O
  C14      1.0000 0.25950  0.85030  0.30560  Biso   1.000  C
  H13      1.0000 0.19660  0.83370  0.34080  Biso   1.000  H
  H14      1.0000 0.27900  0.91570  0.27300  Biso   1.000  H
  O15      1.0000 0.56120  0.61700  0.40930  Biso   1.000  O
  C15      1.0000 0.51780  0.64980  0.36100  Biso   1.000  C
  O16      1.0000 0.41920  0.61470  0.35420  Biso   1.000  O
  C16      1.0000 0.59080  0.74050  0.30560  Biso   1.000  C
  H15      1.0000 0.63710  0.80340  0.34080  Biso   1.000  H
  H16      1.0000 0.63670  0.72100  0.27300  Biso   1.000  H
  O17      1.0000 0.05580  0.43880  0.40930  Biso   1.000  O
  C17      1.0000 0.13200  0.48220  0.36100  Biso   1.000  C
  O18      1.0000 0.19550  0.58080  0.35420  Biso   1.000  O
  C18      1.0000 0.14970  0.40920  0.30560  Biso   1.000  C
  H17      1.0000 0.16630  0.36290  0.34080  Biso   1.000  H
  H18      1.0000 0.08430  0.36330  0.27300  Biso   1.000  H
  O19      1.0000 0.61700  0.05580  0.40930  Biso   1.000  O
  C19      1.0000 0.64980  0.13200  0.36100  Biso   1.000  C
  O20      1.0000 0.61470  0.19550  0.35420  Biso   1.000  O
  C20      1.0000 0.74050  0.14970  0.30560  Biso   1.000  C
  H19      1.0000 0.80340  0.16630  0.34080  Biso   1.000  H
  H20      1.0000 0.72100  0.08430  0.27300  Biso   1.000  H
  O21      1.0000 0.43880  0.38300  0.40930  Biso   1.000  O
  C21      1.0000 0.48220  0.35020  0.36100  Biso   1.000  C
  O22      1.0000 0.58080  0.38530  0.35420  Biso   1.000  O
  C22      1.0000 0.40920  0.25950  0.30560  Biso   1.000  C
  H21      1.0000 0.36290  0.19660  0.34080  Biso   1.000  H
  H22      1.0000 0.36330  0.27900  0.27300  Biso   1.000  H
  O23      1.0000 0.94420  0.56120  0.40930  Biso   1.000  O
  C23      1.0000 0.86800  0.51780  0.36100  Biso   1.000  C
  O24      1.0000 0.80450  0.41920  0.35420  Biso   1.000  O
  C24      1.0000 0.85030  0.59080  0.30560  Biso   1.000  C
  H23      1.0000 0.83370  0.63710  0.34080  Biso   1.000  H
  H24      1.0000 0.91570  0.63670  0.27300  Biso   1.000  H
  O25      1.0000 0.05580  0.61700  0.90930  Biso   1.000  O
  C25      1.0000 0.13200  0.64980  0.86100  Biso   1.000  C
  O26      1.0000 0.19550  0.61470  0.85420  Biso   1.000  O
  C26      1.0000 0.14970  0.74050  0.80560  Biso   1.000  C
  H25      1.0000 0.16630  0.80340  0.84080  Biso   1.000  H
  H26      1.0000 0.08430  0.72100  0.77300  Biso   1.000  H
  O27      1.0000 0.38300  0.43880  0.90930  Biso   1.000  O
  C27      1.0000 0.35020  0.48220  0.86100  Biso   1.000  C
  O28      1.0000 0.38530  0.58080  0.85420  Biso   1.000  O
  C28      1.0000 0.25950  0.40920  0.80560  Biso   1.000  C
  H27      1.0000 0.19660  0.36290  0.84080  Biso   1.000  H
  H28      1.0000 0.27900  0.36330  0.77300  Biso   1.000  H
  O29      1.0000 0.56120  0.94420  0.90930  Biso   1.000  O
  C29      1.0000 0.51780  0.86800  0.86100  Biso   1.000  C
  O30      1.0000 0.41920  0.80450  0.85420  Biso   1.000  O
  C30      1.0000 0.59080  0.85030  0.80560  Biso   1.000  C
  H29      1.0000 0.63710  0.83370  0.84080  Biso   1.000  H
  H30      1.0000 0.63670  0.91570  0.77300  Biso   1.000  H
  O31      1.0000 0.94420  0.38300  0.90930  Biso   1.000  O
  C31      1.0000 0.86800  0.35020  0.86100  Biso   1.000  C
  O32      1.0000 0.80450  0.38530  0.85420  Biso   1.000  O
  C32      1.0000 0.85030  0.25950  0.80560  Biso   1.000  C
  H31      1.0000 0.83370  0.19660  0.84080  Biso   1.000  H
  H32      1.0000 0.91570  0.27900  0.77300  Biso   1.000  H
  O33      1.0000 0.61700  0.56120  0.90930  Biso   1.000  O
  C33      1.0000 0.64980  0.51780  0.86100  Biso   1.000  C
  O34      1.0000 0.61470  0.41920  0.85420  Biso   1.000  O
  C34      1.0000 0.74050  0.59080  0.80560  Biso   1.000  C
  H33      1.0000 0.80340  0.63710  0.84080  Biso   1.000  H
  H34      1.0000 0.72100  0.63670  0.77300  Biso   1.000  H
  O35      1.0000 0.43880  0.05580  0.90930  Biso   1.000  O
  C35      1.0000 0.48220  0.13200  0.86100  Biso   1.000  C
  O36      1.0000 0.58080  0.19550  0.85420  Biso   1.000  O
  C36      1.0000 0.40920  0.14970  0.80560  Biso   1.000  C
  H35      1.0000 0.36290  0.16630  0.84080  Biso   1.000  H
  H36      1.0000 0.36330  0.08430  0.77300  Biso   1.000  H
  O37      1.0000 0.61700  0.05580  0.59070  Biso   1.000  O
  C37      1.0000 0.64980  0.13200  0.63900  Biso   1.000  C
  O38      1.0000 0.61470  0.19550  0.64580  Biso   1.000  O
  C38      1.0000 0.74050  0.14970  0.69440  Biso   1.000  C
  H37      1.0000 0.80340  0.16630  0.65920  Biso   1.000  H
  H38      1.0000 0.72100  0.08430  0.72700  Biso   1.000  H
  O39      1.0000 0.43880  0.38300  0.59070  Biso   1.000  O
  C39      1.0000 0.48220  0.35020  0.63900  Biso   1.000  C
  O40      1.0000 0.58080  0.38530  0.64580  Biso   1.000  O
  C40      1.0000 0.40920  0.25950  0.69440  Biso   1.000  C
  H39      1.0000 0.36290  0.19660  0.65920  Biso   1.000  H
  H40      1.0000 0.36330  0.27900  0.72700  Biso   1.000  H
  O41      1.0000 0.94420  0.56120  0.59070  Biso   1.000  O
  C41      1.0000 0.86800  0.51780  0.63900  Biso   1.000  C
  O42      1.0000 0.80450  0.41920  0.64580  Biso   1.000  O
  C42      1.0000 0.85030  0.59080  0.69440  Biso   1.000  C
  H41      1.0000 0.83370  0.63710  0.65920  Biso   1.000  H
  H42      1.0000 0.91570  0.63670  0.72700  Biso   1.000  H
  O43      1.0000 0.38300  0.94420  0.59070  Biso   1.000  O
  C43      1.0000 0.35020  0.86800  0.63900  Biso   1.000  C
  O44      1.0000 0.38530  0.80450  0.64580  Biso   1.000  O
  C44      1.0000 0.25950  0.85030  0.69440  Biso   1.000  C
  H43      1.0000 0.19660  0.83370  0.65920  Biso   1.000  H
  H44      1.0000 0.27900  0.91570  0.72700  Biso   1.000  H
  O45      1.0000 0.56120  0.61700  0.59070  Biso   1.000  O
  C45      1.0000 0.51780  0.64980  0.63900  Biso   1.000  C
  O46      1.0000 0.41920  0.61470  0.64580  Biso   1.000  O
  C46      1.0000 0.59080  0.74050  0.69440  Biso   1.000  C
  H45      1.0000 0.63710  0.80340  0.65920  Biso   1.000  H
  H46      1.0000 0.63670  0.72100  0.72700  Biso   1.000  H
  O47      1.0000 0.05580  0.43880  0.59070  Biso   1.000  O
  C47      1.0000 0.13200  0.48220  0.63900  Biso   1.000  C
  O48      1.0000 0.19550  0.58080  0.64580  Biso   1.000  O
  C48      1.0000 0.14970  0.40920  0.69440  Biso   1.000  C
  H47      1.0000 0.16630  0.36290  0.65920  Biso   1.000  H
  H48      1.0000 0.08430  0.36330  0.72700  Biso   1.000  H
  Gd1      1.0000 0.66667  0.33333  0.25000  Biso   1.000  Gd
  Gd2      1.0000 0.33333  0.66667  0.25000  Biso   1.000  Gd
  Gd3      1.0000 0.33333  0.66667  0.75000  Biso   1.000  Gd
  Gd4      1.0000 0.66667  0.33333  0.75000  Biso   1.000  Gd
  Zn1      1.0000 0.00000  0.50000  0.00000  Biso   1.000  Zn
  Zn2      1.0000 0.50000  0.50000  0.00000  Biso   1.000  Zn
  Zn3      1.0000 0.50000  0.00000  0.00000  Biso   1.000  Zn
  Zn4      1.0000 0.50000  0.00000  0.50000  Biso   1.000  Zn
  Zn5      1.0000 0.50000  0.50000  0.50000  Biso   1.000  Zn
  Zn6      1.0000 0.00000  0.50000  0.50000  Biso   1.000  Zn
  O49      1.0000 0.76530  0.23470  0.25000  Biso   1.000  O
  O50      1.0000 0.76530  0.53060  0.25000  Biso   1.000  O
  O51      1.0000 0.46940  0.23470  0.25000  Biso   1.000  O
  O52      1.0000 0.23470  0.76530  0.25000  Biso   1.000  O
  O53      1.0000 0.23470  0.46940  0.25000  Biso   1.000  O
  O54      1.0000 0.53060  0.76530  0.25000  Biso   1.000  O
  O55      1.0000 0.23470  0.76530  0.75000  Biso   1.000  O
  O56      1.0000 0.23470  0.46940  0.75000  Biso   1.000  O
  O57      1.0000 0.53060  0.76530  0.75000  Biso   1.000  O
  O58      1.0000 0.76530  0.23470  0.75000  Biso   1.000  O
  O59      1.0000 0.76530  0.53060  0.75000  Biso   1.000  O
  O60      1.0000 0.46940  0.23470  0.75000  Biso   1.000  O
