data_GADMAA_clean
_audit_creation_date              2014-07-02
_audit_creation_method            'Materials Studio'
_symmetry_space_group_name_H-M    'P1'
_symmetry_Int_Tables_number       1
_symmetry_cell_setting            triclinic
loop_
_symmetry_equiv_pos_as_xyz
  x,y,z
_cell_length_a                    14.5104
_cell_length_b                    14.5104
_cell_length_c                    15.7725
_cell_angle_alpha                 90.0000
_cell_angle_beta                  90.0000
_cell_angle_gamma                 120.0000
loop_
_atom_site_label
_atom_site_type_symbol
_atom_site_fract_x
_atom_site_fract_y
_atom_site_fract_z
_atom_site_U_iso_or_equiv
_atom_site_adp_type
_atom_site_occupancy
Gd1    Gd    0.33333   0.66666   0.75000   0.01267  Uiso   1.00
Gd2    Gd    0.66667   0.33334   0.75000   0.01267  Uiso   1.00
Gd3    Gd    0.66667   0.33334   0.25000   0.01267  Uiso   1.00
Gd4    Gd    0.33333   0.66666   0.25000   0.01267  Uiso   1.00
Zn1    Zn    0.00000   0.50000   0.50000   0.01267  Uiso   1.00
Zn2    Zn    0.50000   0.00000   0.50000   0.01267  Uiso   1.00
Zn3    Zn    0.50000   0.50000   0.50000   0.01267  Uiso   1.00
Zn4    Zn    0.50000   0.50000   0.00000   0.01267  Uiso   1.00
Zn5    Zn    0.50000   0.00000   0.00000   0.01267  Uiso   1.00
Zn6    Zn    0.00000   0.50000   0.00000   0.01267  Uiso   1.00
H1     H     0.16760   0.80260   0.66020   0.01267  Uiso   1.00
H2     H     0.08720   0.72300   0.72740   0.01267  Uiso   1.00
H3     H     0.63500   0.83240   0.66020   0.01267  Uiso   1.00
H4     H     0.63580   0.91280   0.72740   0.01267  Uiso   1.00
H5     H     0.19740   0.36500   0.66020   0.01267  Uiso   1.00
H6     H     0.27700   0.36420   0.72740   0.01267  Uiso   1.00
H7     H     0.83240   0.19740   0.66020   0.01267  Uiso   1.00
H8     H     0.91280   0.27700   0.72740   0.01267  Uiso   1.00
H9     H     0.36500   0.16760   0.66020   0.01267  Uiso   1.00
H10    H     0.36420   0.08720   0.72740   0.01267  Uiso   1.00
H11    H     0.80260   0.63500   0.66020   0.01267  Uiso   1.00
H12    H     0.72300   0.63580   0.72740   0.01267  Uiso   1.00
H13    H     0.36500   0.19740   0.83980   0.01267  Uiso   1.00
H14    H     0.36420   0.27700   0.77260   0.01267  Uiso   1.00
H15    H     0.80260   0.16760   0.83980   0.01267  Uiso   1.00
H16    H     0.72300   0.08720   0.77260   0.01267  Uiso   1.00
H17    H     0.83240   0.63500   0.83980   0.01267  Uiso   1.00
H18    H     0.91280   0.63580   0.77260   0.01267  Uiso   1.00
H19    H     0.63500   0.80260   0.83980   0.01267  Uiso   1.00
H20    H     0.63580   0.72300   0.77260   0.01267  Uiso   1.00
H21    H     0.19740   0.83240   0.83980   0.01267  Uiso   1.00
H22    H     0.27700   0.91280   0.77260   0.01267  Uiso   1.00
H23    H     0.16760   0.36500   0.83980   0.01267  Uiso   1.00
H24    H     0.08720   0.36420   0.77260   0.01267  Uiso   1.00
H25    H     0.83240   0.19740   0.33980   0.01267  Uiso   1.00
H26    H     0.91280   0.27700   0.27260   0.01267  Uiso   1.00
H27    H     0.36500   0.16760   0.33980   0.01267  Uiso   1.00
H28    H     0.36420   0.08720   0.27260   0.01267  Uiso   1.00
H29    H     0.80260   0.63500   0.33980   0.01267  Uiso   1.00
H30    H     0.72300   0.63580   0.27260   0.01267  Uiso   1.00
H31    H     0.16760   0.80260   0.33980   0.01267  Uiso   1.00
H32    H     0.08720   0.72300   0.27260   0.01267  Uiso   1.00
H33    H     0.63500   0.83240   0.33980   0.01267  Uiso   1.00
H34    H     0.63580   0.91280   0.27260   0.01267  Uiso   1.00
H35    H     0.19740   0.36500   0.33980   0.01267  Uiso   1.00
H36    H     0.27700   0.36420   0.27260   0.01267  Uiso   1.00
H37    H     0.63500   0.80260   0.16020   0.01267  Uiso   1.00
H38    H     0.63580   0.72300   0.22740   0.01267  Uiso   1.00
H39    H     0.19740   0.83240   0.16020   0.01267  Uiso   1.00
H40    H     0.27700   0.91280   0.22740   0.01267  Uiso   1.00
H41    H     0.16760   0.36500   0.16020   0.01267  Uiso   1.00
H42    H     0.08720   0.36420   0.22740   0.01267  Uiso   1.00
H43    H     0.36500   0.19740   0.16020   0.01267  Uiso   1.00
H44    H     0.36420   0.27700   0.22740   0.01267  Uiso   1.00
H45    H     0.80260   0.16760   0.16020   0.01267  Uiso   1.00
H46    H     0.72300   0.08720   0.22740   0.01267  Uiso   1.00
H47    H     0.83240   0.63500   0.16020   0.01267  Uiso   1.00
H48    H     0.91280   0.63580   0.22740   0.01267  Uiso   1.00
C1     C     0.13190   0.65000   0.64000   0.01267  Uiso   1.00
C2     C     0.15090   0.74110   0.69510   0.01267  Uiso   1.00
C3     C     0.51810   0.86810   0.64000   0.01267  Uiso   1.00
C4     C     0.59020   0.84910   0.69510   0.01267  Uiso   1.00
C5     C     0.35000   0.48190   0.64000   0.01267  Uiso   1.00
C6     C     0.25890   0.40980   0.69510   0.01267  Uiso   1.00
C7     C     0.86810   0.35000   0.64000   0.01267  Uiso   1.00
C8     C     0.84910   0.25890   0.69510   0.01267  Uiso   1.00
C9     C     0.48190   0.13190   0.64000   0.01267  Uiso   1.00
C10    C     0.40980   0.15090   0.69510   0.01267  Uiso   1.00
C11    C     0.65000   0.51810   0.64000   0.01267  Uiso   1.00
C12    C     0.74110   0.59020   0.69510   0.01267  Uiso   1.00
C13    C     0.48190   0.35000   0.86000   0.01267  Uiso   1.00
C14    C     0.40980   0.25890   0.80490   0.01267  Uiso   1.00
C15    C     0.65000   0.13190   0.86000   0.01267  Uiso   1.00
C16    C     0.74110   0.15090   0.80490   0.01267  Uiso   1.00
C17    C     0.86810   0.51810   0.86000   0.01267  Uiso   1.00
C18    C     0.84910   0.59020   0.80490   0.01267  Uiso   1.00
C19    C     0.51810   0.65000   0.86000   0.01267  Uiso   1.00
C20    C     0.59020   0.74110   0.80490   0.01267  Uiso   1.00
C21    C     0.35000   0.86810   0.86000   0.01267  Uiso   1.00
C22    C     0.25890   0.84910   0.80490   0.01267  Uiso   1.00
C23    C     0.13190   0.48190   0.86000   0.01267  Uiso   1.00
C24    C     0.15090   0.40980   0.80490   0.01267  Uiso   1.00
C25    C     0.86810   0.35000   0.36000   0.01267  Uiso   1.00
C26    C     0.84910   0.25890   0.30490   0.01267  Uiso   1.00
C27    C     0.48190   0.13190   0.36000   0.01267  Uiso   1.00
C28    C     0.40980   0.15090   0.30490   0.01267  Uiso   1.00
C29    C     0.65000   0.51810   0.36000   0.01267  Uiso   1.00
C30    C     0.74110   0.59020   0.30490   0.01267  Uiso   1.00
C31    C     0.13190   0.65000   0.36000   0.01267  Uiso   1.00
C32    C     0.15090   0.74110   0.30490   0.01267  Uiso   1.00
C33    C     0.51810   0.86810   0.36000   0.01267  Uiso   1.00
C34    C     0.59020   0.84910   0.30490   0.01267  Uiso   1.00
C35    C     0.35000   0.48190   0.36000   0.01267  Uiso   1.00
C36    C     0.25890   0.40980   0.30490   0.01267  Uiso   1.00
C37    C     0.51810   0.65000   0.14000   0.01267  Uiso   1.00
C38    C     0.59020   0.74110   0.19510   0.01267  Uiso   1.00
C39    C     0.35000   0.86810   0.14000   0.01267  Uiso   1.00
C40    C     0.25890   0.84910   0.19510   0.01267  Uiso   1.00
C41    C     0.13190   0.48190   0.14000   0.01267  Uiso   1.00
C42    C     0.15090   0.40980   0.19510   0.01267  Uiso   1.00
C43    C     0.48190   0.35000   0.14000   0.01267  Uiso   1.00
C44    C     0.40980   0.25890   0.19510   0.01267  Uiso   1.00
C45    C     0.65000   0.13190   0.14000   0.01267  Uiso   1.00
C46    C     0.74110   0.15090   0.19510   0.01267  Uiso   1.00
C47    C     0.86810   0.51810   0.14000   0.01267  Uiso   1.00
C48    C     0.84910   0.59020   0.19510   0.01267  Uiso   1.00
O1     O     0.19569   0.61523   0.64559   0.01267  Uiso   1.00
O2     O     0.05500   0.61731   0.59043   0.01267  Uiso   1.00
O3     O     0.41954   0.80431   0.64559   0.01267  Uiso   1.00
O4     O     0.56231   0.94500   0.59043   0.01267  Uiso   1.00
O5     O     0.38477   0.58046   0.64559   0.01267  Uiso   1.00
O6     O     0.38269   0.43769   0.59043   0.01267  Uiso   1.00
O7     O     0.80431   0.38477   0.64559   0.01267  Uiso   1.00
O8     O     0.94500   0.38269   0.59043   0.01267  Uiso   1.00
O9     O     0.58046   0.19569   0.64559   0.01267  Uiso   1.00
O10    O     0.43769   0.05500   0.59043   0.01267  Uiso   1.00
O11    O     0.61523   0.41954   0.64559   0.01267  Uiso   1.00
O12    O     0.61731   0.56231   0.59043   0.01267  Uiso   1.00
O13    O     0.58046   0.38477   0.85441   0.01267  Uiso   1.00
O14    O     0.43769   0.38269   0.90957   0.01267  Uiso   1.00
O15    O     0.61523   0.19569   0.85441   0.01267  Uiso   1.00
O16    O     0.61731   0.05500   0.90957   0.01267  Uiso   1.00
O17    O     0.80431   0.41954   0.85441   0.01267  Uiso   1.00
O18    O     0.94500   0.56231   0.90957   0.01267  Uiso   1.00
O19    O     0.41954   0.61523   0.85441   0.01267  Uiso   1.00
O20    O     0.56231   0.61731   0.90957   0.01267  Uiso   1.00
O21    O     0.38477   0.80431   0.85441   0.01267  Uiso   1.00
O22    O     0.38269   0.94500   0.90957   0.01267  Uiso   1.00
O23    O     0.19569   0.58046   0.85441   0.01267  Uiso   1.00
O24    O     0.05500   0.43769   0.90957   0.01267  Uiso   1.00
O25    O     0.80431   0.38477   0.35441   0.01267  Uiso   1.00
O26    O     0.94500   0.38269   0.40957   0.01267  Uiso   1.00
O27    O     0.58046   0.19569   0.35441   0.01267  Uiso   1.00
O28    O     0.43769   0.05500   0.40957   0.01267  Uiso   1.00
O29    O     0.61523   0.41954   0.35441   0.01267  Uiso   1.00
O30    O     0.61731   0.56231   0.40957   0.01267  Uiso   1.00
O31    O     0.19569   0.61523   0.35441   0.01267  Uiso   1.00
O32    O     0.05500   0.61731   0.40957   0.01267  Uiso   1.00
O33    O     0.41954   0.80431   0.35441   0.01267  Uiso   1.00
O34    O     0.56231   0.94500   0.40957   0.01267  Uiso   1.00
O35    O     0.38477   0.58046   0.35441   0.01267  Uiso   1.00
O36    O     0.38269   0.43769   0.40957   0.01267  Uiso   1.00
O37    O     0.41954   0.61523   0.14559   0.01267  Uiso   1.00
O38    O     0.56231   0.61731   0.09043   0.01267  Uiso   1.00
O39    O     0.38477   0.80431   0.14559   0.01267  Uiso   1.00
O40    O     0.38269   0.94500   0.09043   0.01267  Uiso   1.00
O41    O     0.19569   0.58046   0.14559   0.01267  Uiso   1.00
O42    O     0.05500   0.43769   0.09043   0.01267  Uiso   1.00
O43    O     0.58046   0.38477   0.14559   0.01267  Uiso   1.00
O44    O     0.43769   0.38269   0.09043   0.01267  Uiso   1.00
O45    O     0.61523   0.19569   0.14559   0.01267  Uiso   1.00
O46    O     0.61731   0.05500   0.09043   0.01267  Uiso   1.00
O47    O     0.80431   0.41954   0.14559   0.01267  Uiso   1.00
O48    O     0.94500   0.56231   0.09043   0.01267  Uiso   1.00
O49    O     0.23485   0.76515   0.75000   0.01267  Uiso   1.00
O50    O     0.53030   0.76515   0.75000   0.01267  Uiso   1.00
O51    O     0.23485   0.46970   0.75000   0.01267  Uiso   1.00
O52    O     0.76515   0.23485   0.75000   0.01267  Uiso   1.00
O53    O     0.46970   0.23485   0.75000   0.01267  Uiso   1.00
O54    O     0.76515   0.53030   0.75000   0.01267  Uiso   1.00
O55    O     0.76515   0.23485   0.25000   0.01267  Uiso   1.00
O56    O     0.46970   0.23485   0.25000   0.01267  Uiso   1.00
O57    O     0.76515   0.53030   0.25000   0.01267  Uiso   1.00
O58    O     0.23485   0.76515   0.25000   0.01267  Uiso   1.00
O59    O     0.53030   0.76515   0.25000   0.01267  Uiso   1.00
O60    O     0.23485   0.46970   0.25000   0.01267  Uiso   1.00
