data_image0
_cell_length_a       18.1249
_cell_length_b       12.1064
_cell_length_c       17.7333
_cell_angle_alpha    90
_cell_angle_beta     107.301
_cell_angle_gamma    90

_symmetry_space_group_name_H-M    "P 1"
_symmetry_int_tables_number       1

loop_
  _symmetry_equiv_pos_as_xyz
  'x, y, z'

loop_
  _atom_site_label
  _atom_site_occupancy
  _atom_site_fract_x
  _atom_site_fract_y
  _atom_site_fract_z
  _atom_site_thermal_displace_type
  _atom_site_B_iso_or_equiv
  _atom_site_type_symbol
  Co1      1.0000 0.78998  0.15718  0.68643  Biso   1.000  Co
  Co2      1.0000 0.66714  0.34578  0.66121  Biso   1.000  Co
  Co3      1.0000 0.80626  0.31383  0.83621  Biso   1.000  Co
  Na1      1.0000 0.59970  0.00240  0.99450  Biso   1.000  Na
  O1       1.0000 0.74830  0.13390  0.57020  Biso   1.000  O
  O2       1.0000 0.64540  0.23360  0.56820  Biso   1.000  O
  O3       1.0000 0.43960  0.29440  0.32550  Biso   1.000  O
  O4       1.0000 0.40660  0.15260  0.24210  Biso   1.000  O
  O5       1.0000 0.64190  0.92000  0.22780  Biso   1.000  O
  O6       1.0000 0.71380  0.86490  0.34740  Biso   1.000  O
  O7       1.0000 0.67070  0.47540  0.73820  Biso   1.000  O
  O8       1.0000 0.74320  0.43960  0.86220  Biso   1.000  O
  O9       1.0000 0.40690  0.64360  0.71150  Biso   1.000  O
  O10      1.0000 0.38910  0.69760  0.82390  Biso   1.000  O
  O11      1.0000 0.71370  0.70310  0.07290  Biso   1.000  O
  O12      1.0000 0.61920  0.82410  0.04170  Biso   1.000  O
  O13      1.0000 0.72840  0.23590  0.74480  Biso   1.000  O
  O14      1.0000 0.47620  0.00820  0.90260  Biso   1.000  O
  H1       1.0000 0.46480  0.95290  0.87190  Biso   1.000  H
  H2       1.0000 0.46670  0.06580  0.87610  Biso   1.000  H
  C1       1.0000 0.64150  0.13410  0.45470  Biso   1.000  C
  C2       1.0000 0.57030  0.18150  0.41510  Biso   1.000  C
  H3       1.0000 0.54890  0.23620  0.44090  Biso   1.000  H
  C3       1.0000 0.53060  0.15000  0.33900  Biso   1.000  C
  C4       1.0000 0.55990  0.06820  0.30190  Biso   1.000  C
  H4       1.0000 0.53140  0.04510  0.25020  Biso   1.000  H
  C5       1.0000 0.63160  0.01860  0.34000  Biso   1.000  C
  C6       1.0000 0.67150  0.05100  0.41720  Biso   1.000  C
  H5       1.0000 0.71910  0.01650  0.44430  Biso   1.000  H
  C7       1.0000 0.68270  0.17120  0.53780  Biso   1.000  C
  C8       1.0000 0.45350  0.20220  0.29810  Biso   1.000  C
  C9       1.0000 0.66500  0.92800  0.30180  Biso   1.000  C
  C10      1.0000 0.64070  0.56770  0.84100  Biso   1.000  C
  C11      1.0000 0.56490  0.58760  0.79720  Biso   1.000  C
  H6       1.0000 0.54470  0.55440  0.74670  Biso   1.000  H
  C12      1.0000 0.51750  0.65620  0.82650  Biso   1.000  C
  C13      1.0000 0.54640  0.70690  0.89970  Biso   1.000  C
  H7       1.0000 0.51390  0.75250  0.91980  Biso   1.000  H
  C14      1.0000 0.62430  0.69010  0.94390  Biso   1.000  C
  C15      1.0000 0.67000  0.61780  0.91530  Biso   1.000  C
  H8       1.0000 0.72140  0.60250  0.94650  Biso   1.000  H
  C16      1.0000 0.68850  0.48630  0.81080  Biso   1.000  C
  C17      1.0000 0.43160  0.66740  0.78460  Biso   1.000  C
  C18      1.0000 0.65510  0.74050  0.02460  Biso   1.000  C
  H9       1.0000 0.69900  0.20400  0.76600  Biso   1.000  H
  Co4      1.0000 0.28998  0.65718  0.68643  Biso   1.000  Co
  Co5      1.0000 0.16714  0.84578  0.66121  Biso   1.000  Co
  Co6      1.0000 0.30626  0.81383  0.83621  Biso   1.000  Co
  Na2      1.0000 0.09970  0.50240  0.99450  Biso   1.000  Na
  O15      1.0000 0.24830  0.63390  0.57020  Biso   1.000  O
  O16      1.0000 0.14540  0.73360  0.56820  Biso   1.000  O
  O17      1.0000 0.93960  0.79440  0.32550  Biso   1.000  O
  O18      1.0000 0.90660  0.65260  0.24210  Biso   1.000  O
  O19      1.0000 0.14190  0.42000  0.22780  Biso   1.000  O
  O20      1.0000 0.21380  0.36490  0.34740  Biso   1.000  O
  O21      1.0000 0.17070  0.97540  0.73820  Biso   1.000  O
  O22      1.0000 0.24320  0.93960  0.86220  Biso   1.000  O
  O23      1.0000 0.90690  0.14360  0.71150  Biso   1.000  O
  O24      1.0000 0.88910  0.19760  0.82390  Biso   1.000  O
  O25      1.0000 0.21370  0.20310  0.07290  Biso   1.000  O
  O26      1.0000 0.11920  0.32410  0.04170  Biso   1.000  O
  O27      1.0000 0.22840  0.73590  0.74480  Biso   1.000  O
  O28      1.0000 0.97620  0.50820  0.90260  Biso   1.000  O
  H10      1.0000 0.96480  0.45290  0.87190  Biso   1.000  H
  H11      1.0000 0.96670  0.56580  0.87610  Biso   1.000  H
  C19      1.0000 0.14150  0.63410  0.45470  Biso   1.000  C
  C20      1.0000 0.07030  0.68150  0.41510  Biso   1.000  C
  H12      1.0000 0.04890  0.73620  0.44090  Biso   1.000  H
  C21      1.0000 0.03060  0.65000  0.33900  Biso   1.000  C
  C22      1.0000 0.05990  0.56820  0.30190  Biso   1.000  C
  H13      1.0000 0.03140  0.54510  0.25020  Biso   1.000  H
  C23      1.0000 0.13160  0.51860  0.34000  Biso   1.000  C
  C24      1.0000 0.17150  0.55100  0.41720  Biso   1.000  C
  H14      1.0000 0.21910  0.51650  0.44430  Biso   1.000  H
  C25      1.0000 0.18270  0.67120  0.53780  Biso   1.000  C
  C26      1.0000 0.95350  0.70220  0.29810  Biso   1.000  C
  C27      1.0000 0.16500  0.42800  0.30180  Biso   1.000  C
  C28      1.0000 0.14070  0.06770  0.84100  Biso   1.000  C
  C29      1.0000 0.06490  0.08760  0.79720  Biso   1.000  C
  H15      1.0000 0.04470  0.05440  0.74670  Biso   1.000  H
  C30      1.0000 0.01750  0.15620  0.82650  Biso   1.000  C
  C31      1.0000 0.04640  0.20690  0.89970  Biso   1.000  C
  H16      1.0000 0.01390  0.25250  0.91980  Biso   1.000  H
  C32      1.0000 0.12430  0.19010  0.94390  Biso   1.000  C
  C33      1.0000 0.17000  0.11780  0.91530  Biso   1.000  C
  H17      1.0000 0.22140  0.10250  0.94650  Biso   1.000  H
  C34      1.0000 0.18850  0.98630  0.81080  Biso   1.000  C
  C35      1.0000 0.93160  0.16740  0.78460  Biso   1.000  C
  C36      1.0000 0.15510  0.24050  0.02460  Biso   1.000  C
  H18      1.0000 0.19900  0.70400  0.76600  Biso   1.000  H
  Co7      1.0000 0.21002  0.15718  0.31357  Biso   1.000  Co
  Co8      1.0000 0.33286  0.34578  0.33879  Biso   1.000  Co
  Co9      1.0000 0.19374  0.31383  0.16379  Biso   1.000  Co
  Na3      1.0000 0.40030  0.00240  0.00550  Biso   1.000  Na
  O29      1.0000 0.25170  0.13390  0.42980  Biso   1.000  O
  O30      1.0000 0.35460  0.23360  0.43180  Biso   1.000  O
  O31      1.0000 0.56040  0.29440  0.67450  Biso   1.000  O
  O32      1.0000 0.59340  0.15260  0.75790  Biso   1.000  O
  O33      1.0000 0.35810  0.92000  0.77220  Biso   1.000  O
  O34      1.0000 0.28620  0.86490  0.65260  Biso   1.000  O
  O35      1.0000 0.32930  0.47540  0.26180  Biso   1.000  O
  O36      1.0000 0.25680  0.43960  0.13780  Biso   1.000  O
  O37      1.0000 0.59310  0.64360  0.28850  Biso   1.000  O
  O38      1.0000 0.61090  0.69760  0.17610  Biso   1.000  O
  O39      1.0000 0.28630  0.70310  0.92710  Biso   1.000  O
  O40      1.0000 0.38080  0.82410  0.95830  Biso   1.000  O
  O41      1.0000 0.27160  0.23590  0.25520  Biso   1.000  O
  O42      1.0000 0.52380  0.00820  0.09740  Biso   1.000  O
  H19      1.0000 0.53520  0.95290  0.12810  Biso   1.000  H
  H20      1.0000 0.53330  0.06580  0.12390  Biso   1.000  H
  C37      1.0000 0.35850  0.13410  0.54530  Biso   1.000  C
  C38      1.0000 0.42970  0.18150  0.58490  Biso   1.000  C
  H21      1.0000 0.45110  0.23620  0.55910  Biso   1.000  H
  C39      1.0000 0.46940  0.15000  0.66100  Biso   1.000  C
  C40      1.0000 0.44010  0.06820  0.69810  Biso   1.000  C
  H22      1.0000 0.46860  0.04510  0.74980  Biso   1.000  H
  C41      1.0000 0.36840  0.01860  0.66000  Biso   1.000  C
  C42      1.0000 0.32850  0.05100  0.58280  Biso   1.000  C
  H23      1.0000 0.28090  0.01650  0.55570  Biso   1.000  H
  C43      1.0000 0.31730  0.17120  0.46220  Biso   1.000  C
  C44      1.0000 0.54650  0.20220  0.70190  Biso   1.000  C
  C45      1.0000 0.33500  0.92800  0.69820  Biso   1.000  C
  C46      1.0000 0.35930  0.56770  0.15900  Biso   1.000  C
  C47      1.0000 0.43510  0.58760  0.20280  Biso   1.000  C
  H24      1.0000 0.45530  0.55440  0.25330  Biso   1.000  H
  C48      1.0000 0.48250  0.65620  0.17350  Biso   1.000  C
  C49      1.0000 0.45360  0.70690  0.10030  Biso   1.000  C
  H25      1.0000 0.48610  0.75250  0.08020  Biso   1.000  H
  C50      1.0000 0.37570  0.69010  0.05610  Biso   1.000  C
  C51      1.0000 0.33000  0.61780  0.08470  Biso   1.000  C
  H26      1.0000 0.27860  0.60250  0.05350  Biso   1.000  H
  C52      1.0000 0.31150  0.48630  0.18920  Biso   1.000  C
  C53      1.0000 0.56840  0.66740  0.21540  Biso   1.000  C
  C54      1.0000 0.34490  0.74050  0.97540  Biso   1.000  C
  H27      1.0000 0.30100  0.20400  0.23400  Biso   1.000  H
  Co10     1.0000 0.71002  0.65718  0.31357  Biso   1.000  Co
  Co11     1.0000 0.83286  0.84578  0.33879  Biso   1.000  Co
  Co12     1.0000 0.69374  0.81383  0.16379  Biso   1.000  Co
  Na4      1.0000 0.90030  0.50240  0.00550  Biso   1.000  Na
  O43      1.0000 0.75170  0.63390  0.42980  Biso   1.000  O
  O44      1.0000 0.85460  0.73360  0.43180  Biso   1.000  O
  O45      1.0000 0.06040  0.79440  0.67450  Biso   1.000  O
  O46      1.0000 0.09340  0.65260  0.75790  Biso   1.000  O
  O47      1.0000 0.85810  0.42000  0.77220  Biso   1.000  O
  O48      1.0000 0.78620  0.36490  0.65260  Biso   1.000  O
  O49      1.0000 0.82930  0.97540  0.26180  Biso   1.000  O
  O50      1.0000 0.75680  0.93960  0.13780  Biso   1.000  O
  O51      1.0000 0.09310  0.14360  0.28850  Biso   1.000  O
  O52      1.0000 0.11090  0.19760  0.17610  Biso   1.000  O
  O53      1.0000 0.78630  0.20310  0.92710  Biso   1.000  O
  O54      1.0000 0.88080  0.32410  0.95830  Biso   1.000  O
  O55      1.0000 0.77160  0.73590  0.25520  Biso   1.000  O
  O56      1.0000 0.02380  0.50820  0.09740  Biso   1.000  O
  H28      1.0000 0.03520  0.45290  0.12810  Biso   1.000  H
  H29      1.0000 0.03330  0.56580  0.12390  Biso   1.000  H
  C55      1.0000 0.85850  0.63410  0.54530  Biso   1.000  C
  C56      1.0000 0.92970  0.68150  0.58490  Biso   1.000  C
  H30      1.0000 0.95110  0.73620  0.55910  Biso   1.000  H
  C57      1.0000 0.96940  0.65000  0.66100  Biso   1.000  C
  C58      1.0000 0.94010  0.56820  0.69810  Biso   1.000  C
  H31      1.0000 0.96860  0.54510  0.74980  Biso   1.000  H
  C59      1.0000 0.86840  0.51860  0.66000  Biso   1.000  C
  C60      1.0000 0.82850  0.55100  0.58280  Biso   1.000  C
  H32      1.0000 0.78090  0.51650  0.55570  Biso   1.000  H
  C61      1.0000 0.81730  0.67120  0.46220  Biso   1.000  C
  C62      1.0000 0.04650  0.70220  0.70190  Biso   1.000  C
  C63      1.0000 0.83500  0.42800  0.69820  Biso   1.000  C
  C64      1.0000 0.85930  0.06770  0.15900  Biso   1.000  C
  C65      1.0000 0.93510  0.08760  0.20280  Biso   1.000  C
  H33      1.0000 0.95530  0.05440  0.25330  Biso   1.000  H
  C66      1.0000 0.98250  0.15620  0.17350  Biso   1.000  C
  C67      1.0000 0.95360  0.20690  0.10030  Biso   1.000  C
  H34      1.0000 0.98610  0.25250  0.08020  Biso   1.000  H
  C68      1.0000 0.87570  0.19010  0.05610  Biso   1.000  C
  C69      1.0000 0.83000  0.11780  0.08470  Biso   1.000  C
  H35      1.0000 0.77860  0.10250  0.05350  Biso   1.000  H
  C70      1.0000 0.81150  0.98630  0.18920  Biso   1.000  C
  C71      1.0000 0.06840  0.16740  0.21540  Biso   1.000  C
  C72      1.0000 0.84490  0.24050  0.97540  Biso   1.000  C
  H36      1.0000 0.80100  0.70400  0.23400  Biso   1.000  H
