data_image0
_cell_length_a       18.448
_cell_length_b       18.448
_cell_length_c       23.939
_cell_angle_alpha    90
_cell_angle_beta     90
_cell_angle_gamma    120

_symmetry_space_group_name_H-M    "P 1"
_symmetry_int_tables_number       1

loop_
  _symmetry_equiv_pos_as_xyz
  'x, y, z'

loop_
  _atom_site_label
  _atom_site_occupancy
  _atom_site_fract_x
  _atom_site_fract_y
  _atom_site_fract_z
  _atom_site_thermal_displace_type
  _atom_site_B_iso_or_equiv
  _atom_site_type_symbol
  O1       1.0000 0.41079  0.97211  0.07200  Biso   1.000  O
  C1       1.0000 0.27530  0.85486  0.06984  Biso   1.000  C
  O2       1.0000 0.37079  0.89006  0.99631  Biso   1.000  O
  C2       1.0000 0.35850  0.90991  0.04417  Biso   1.000  C
  C3       1.0000 0.25274  0.87582  0.12034  Biso   1.000  C
  H1       1.0000 0.29060  0.92720  0.13800  Biso   1.000  H
  O3       1.0000 0.02789  0.43868  0.07200  Biso   1.000  O
  C4       1.0000 0.14514  0.42044  0.06984  Biso   1.000  C
  O4       1.0000 0.10994  0.48073  0.99631  Biso   1.000  O
  C5       1.0000 0.09009  0.44859  0.04417  Biso   1.000  C
  C6       1.0000 0.12418  0.37692  0.12034  Biso   1.000  C
  H2       1.0000 0.07280  0.36340  0.13800  Biso   1.000  H
  O5       1.0000 0.56132  0.58921  0.07200  Biso   1.000  O
  C7       1.0000 0.57956  0.72470  0.06984  Biso   1.000  C
  O6       1.0000 0.51927  0.62921  0.99631  Biso   1.000  O
  C8       1.0000 0.55141  0.64150  0.04417  Biso   1.000  C
  C9       1.0000 0.62308  0.74726  0.12034  Biso   1.000  C
  H3       1.0000 0.63660  0.70940  0.13800  Biso   1.000  H
  O7       1.0000 0.58921  0.02789  0.57200  Biso   1.000  O
  C10      1.0000 0.72470  0.14514  0.56984  Biso   1.000  C
  O8       1.0000 0.62921  0.10994  0.49631  Biso   1.000  O
  C11      1.0000 0.64150  0.09009  0.54417  Biso   1.000  C
  C12      1.0000 0.74726  0.12418  0.62034  Biso   1.000  C
  H4       1.0000 0.70940  0.07280  0.63800  Biso   1.000  H
  O9       1.0000 0.97211  0.56132  0.57200  Biso   1.000  O
  C13      1.0000 0.85486  0.57956  0.56984  Biso   1.000  C
  O10      1.0000 0.89006  0.51927  0.49631  Biso   1.000  O
  C14      1.0000 0.90991  0.55141  0.54417  Biso   1.000  C
  C15      1.0000 0.87582  0.62308  0.62034  Biso   1.000  C
  H5       1.0000 0.92720  0.63660  0.63800  Biso   1.000  H
  O11      1.0000 0.43868  0.41079  0.57200  Biso   1.000  O
  C16      1.0000 0.42044  0.27530  0.56984  Biso   1.000  C
  O12      1.0000 0.48073  0.37079  0.49631  Biso   1.000  O
  C17      1.0000 0.44859  0.35850  0.54417  Biso   1.000  C
  C18      1.0000 0.37692  0.25274  0.62034  Biso   1.000  C
  H6       1.0000 0.36340  0.29060  0.63800  Biso   1.000  H
  O13      1.0000 0.97211  0.41079  0.92800  Biso   1.000  O
  C19      1.0000 0.85486  0.27530  0.93016  Biso   1.000  C
  O14      1.0000 0.89006  0.37079  0.00369  Biso   1.000  O
  C20      1.0000 0.90991  0.35850  0.95583  Biso   1.000  C
  C21      1.0000 0.87582  0.25274  0.87966  Biso   1.000  C
  H7       1.0000 0.92720  0.29060  0.86200  Biso   1.000  H
  O15      1.0000 0.43868  0.02789  0.92800  Biso   1.000  O
  C22      1.0000 0.42044  0.14514  0.93016  Biso   1.000  C
  O16      1.0000 0.48073  0.10994  0.00369  Biso   1.000  O
  C23      1.0000 0.44859  0.09009  0.95583  Biso   1.000  C
  C24      1.0000 0.37692  0.12418  0.87966  Biso   1.000  C
  H8       1.0000 0.36340  0.07280  0.86200  Biso   1.000  H
  O17      1.0000 0.58921  0.56132  0.92800  Biso   1.000  O
  C25      1.0000 0.72470  0.57956  0.93016  Biso   1.000  C
  O18      1.0000 0.62921  0.51927  0.00369  Biso   1.000  O
  C26      1.0000 0.64150  0.55141  0.95583  Biso   1.000  C
  C27      1.0000 0.74726  0.62308  0.87966  Biso   1.000  C
  H9       1.0000 0.70940  0.63660  0.86200  Biso   1.000  H
  O19      1.0000 0.02789  0.58921  0.42800  Biso   1.000  O
  C28      1.0000 0.14514  0.72470  0.43016  Biso   1.000  C
  O20      1.0000 0.10994  0.62921  0.50369  Biso   1.000  O
  C29      1.0000 0.09009  0.64150  0.45583  Biso   1.000  C
  C30      1.0000 0.12418  0.74726  0.37966  Biso   1.000  C
  H10      1.0000 0.07280  0.70940  0.36200  Biso   1.000  H
  O21      1.0000 0.56132  0.97211  0.42800  Biso   1.000  O
  C31      1.0000 0.57956  0.85486  0.43016  Biso   1.000  C
  O22      1.0000 0.51927  0.89006  0.50369  Biso   1.000  O
  C32      1.0000 0.55141  0.90991  0.45583  Biso   1.000  C
  C33      1.0000 0.62308  0.87582  0.37966  Biso   1.000  C
  H11      1.0000 0.63660  0.92720  0.36200  Biso   1.000  H
  O23      1.0000 0.41079  0.43868  0.42800  Biso   1.000  O
  C34      1.0000 0.27530  0.42044  0.43016  Biso   1.000  C
  O24      1.0000 0.37079  0.48073  0.50369  Biso   1.000  O
  C35      1.0000 0.35850  0.44859  0.45583  Biso   1.000  C
  C36      1.0000 0.25274  0.37692  0.37966  Biso   1.000  C
  H12      1.0000 0.29060  0.36340  0.36200  Biso   1.000  H
  O25      1.0000 0.58921  0.02789  0.92800  Biso   1.000  O
  C37      1.0000 0.72470  0.14514  0.93016  Biso   1.000  C
  O26      1.0000 0.62921  0.10994  0.00369  Biso   1.000  O
  C38      1.0000 0.64150  0.09009  0.95583  Biso   1.000  C
  C39      1.0000 0.74726  0.12418  0.87966  Biso   1.000  C
  H13      1.0000 0.70940  0.07280  0.86200  Biso   1.000  H
  O27      1.0000 0.97211  0.56132  0.92800  Biso   1.000  O
  C40      1.0000 0.85486  0.57956  0.93016  Biso   1.000  C
  O28      1.0000 0.89006  0.51927  0.00369  Biso   1.000  O
  C41      1.0000 0.90991  0.55141  0.95583  Biso   1.000  C
  C42      1.0000 0.87582  0.62308  0.87966  Biso   1.000  C
  H14      1.0000 0.92720  0.63660  0.86200  Biso   1.000  H
  O29      1.0000 0.43868  0.41079  0.92800  Biso   1.000  O
  C43      1.0000 0.42044  0.27530  0.93016  Biso   1.000  C
  O30      1.0000 0.48073  0.37079  0.00369  Biso   1.000  O
  C44      1.0000 0.44859  0.35850  0.95583  Biso   1.000  C
  C45      1.0000 0.37692  0.25274  0.87966  Biso   1.000  C
  H15      1.0000 0.36340  0.29060  0.86200  Biso   1.000  H
  O31      1.0000 0.41079  0.97211  0.42800  Biso   1.000  O
  C46      1.0000 0.27530  0.85486  0.43016  Biso   1.000  C
  O32      1.0000 0.37079  0.89006  0.50369  Biso   1.000  O
  C47      1.0000 0.35850  0.90991  0.45583  Biso   1.000  C
  C48      1.0000 0.25274  0.87582  0.37966  Biso   1.000  C
  H16      1.0000 0.29060  0.92720  0.36200  Biso   1.000  H
  O33      1.0000 0.02789  0.43868  0.42800  Biso   1.000  O
  C49      1.0000 0.14514  0.42044  0.43016  Biso   1.000  C
  O34      1.0000 0.10994  0.48073  0.50369  Biso   1.000  O
  C50      1.0000 0.09009  0.44859  0.45583  Biso   1.000  C
  C51      1.0000 0.12418  0.37692  0.37966  Biso   1.000  C
  H17      1.0000 0.07280  0.36340  0.36200  Biso   1.000  H
  O35      1.0000 0.56132  0.58921  0.42800  Biso   1.000  O
  C52      1.0000 0.57956  0.72470  0.43016  Biso   1.000  C
  O36      1.0000 0.51927  0.62921  0.50369  Biso   1.000  O
  C53      1.0000 0.55141  0.64150  0.45583  Biso   1.000  C
  C54      1.0000 0.62308  0.74726  0.37966  Biso   1.000  C
  H18      1.0000 0.63660  0.70940  0.36200  Biso   1.000  H
  O37      1.0000 0.02789  0.58921  0.07200  Biso   1.000  O
  C55      1.0000 0.14514  0.72470  0.06984  Biso   1.000  C
  O38      1.0000 0.10994  0.62921  0.99631  Biso   1.000  O
  C56      1.0000 0.09009  0.64150  0.04417  Biso   1.000  C
  C57      1.0000 0.12418  0.74726  0.12034  Biso   1.000  C
  H19      1.0000 0.07280  0.70940  0.13800  Biso   1.000  H
  O39      1.0000 0.56132  0.97211  0.07200  Biso   1.000  O
  C58      1.0000 0.57956  0.85486  0.06984  Biso   1.000  C
  O40      1.0000 0.51927  0.89006  0.99631  Biso   1.000  O
  C59      1.0000 0.55141  0.90991  0.04417  Biso   1.000  C
  C60      1.0000 0.62308  0.87582  0.12034  Biso   1.000  C
  H20      1.0000 0.63660  0.92720  0.13800  Biso   1.000  H
  O41      1.0000 0.41079  0.43868  0.07200  Biso   1.000  O
  C61      1.0000 0.27530  0.42044  0.06984  Biso   1.000  C
  O42      1.0000 0.37079  0.48073  0.99631  Biso   1.000  O
  C62      1.0000 0.35850  0.44859  0.04417  Biso   1.000  C
  C63      1.0000 0.25274  0.37692  0.12034  Biso   1.000  C
  H21      1.0000 0.29060  0.36340  0.13800  Biso   1.000  H
  O43      1.0000 0.97211  0.41079  0.57200  Biso   1.000  O
  C64      1.0000 0.85486  0.27530  0.56984  Biso   1.000  C
  O44      1.0000 0.89006  0.37079  0.49631  Biso   1.000  O
  C65      1.0000 0.90991  0.35850  0.54417  Biso   1.000  C
  C66      1.0000 0.87582  0.25274  0.62034  Biso   1.000  C
  H22      1.0000 0.92720  0.29060  0.63800  Biso   1.000  H
  O45      1.0000 0.43868  0.02789  0.57200  Biso   1.000  O
  C67      1.0000 0.42044  0.14514  0.56984  Biso   1.000  C
  O46      1.0000 0.48073  0.10994  0.49631  Biso   1.000  O
  C68      1.0000 0.44859  0.09009  0.54417  Biso   1.000  C
  C69      1.0000 0.37692  0.12418  0.62034  Biso   1.000  C
  H23      1.0000 0.36340  0.07280  0.63800  Biso   1.000  H
  O47      1.0000 0.58921  0.56132  0.57200  Biso   1.000  O
  C70      1.0000 0.72470  0.57956  0.56984  Biso   1.000  C
  O48      1.0000 0.62921  0.51927  0.49631  Biso   1.000  O
  C71      1.0000 0.64150  0.55141  0.54417  Biso   1.000  C
  C72      1.0000 0.74726  0.62308  0.62034  Biso   1.000  C
  H24      1.0000 0.70940  0.63660  0.63800  Biso   1.000  H
  Cu1      1.0000 0.52429  0.04858  0.04494  Biso   1.000  Cu
  Cu2      1.0000 0.95142  0.47571  0.04494  Biso   1.000  Cu
  Cu3      1.0000 0.52429  0.47571  0.04494  Biso   1.000  Cu
  Cu4      1.0000 0.47571  0.95142  0.54494  Biso   1.000  Cu
  Cu5      1.0000 0.04858  0.52429  0.54494  Biso   1.000  Cu
  Cu6      1.0000 0.47571  0.52429  0.54494  Biso   1.000  Cu
  Cu7      1.0000 0.04858  0.52429  0.95506  Biso   1.000  Cu
  Cu8      1.0000 0.47571  0.95142  0.95506  Biso   1.000  Cu
  Cu9      1.0000 0.47571  0.52429  0.95506  Biso   1.000  Cu
  Cu10     1.0000 0.95142  0.47571  0.45506  Biso   1.000  Cu
  Cu11     1.0000 0.52429  0.04858  0.45506  Biso   1.000  Cu
  Cu12     1.0000 0.52429  0.47571  0.45506  Biso   1.000  Cu
  C73      1.0000 0.22104  0.77896  0.04469  Biso   1.000  C
  H25      1.0000 0.23580  0.76420  0.01030  Biso   1.000  H
  H26      1.0000 0.23070  0.76930  0.21820  Biso   1.000  H
  C74      1.0000 0.17657  0.82343  0.14508  Biso   1.000  C
  C75      1.0000 0.15287  0.84713  0.19931  Biso   1.000  C
  C76      1.0000 0.10971  0.89029  0.19960  Biso   1.000  C
  H27      1.0000 0.09470  0.90530  0.16540  Biso   1.000  H
  C77      1.0000 0.22104  0.44208  0.04469  Biso   1.000  C
  H28      1.0000 0.23580  0.47160  0.01030  Biso   1.000  H
  H29      1.0000 0.23070  0.46140  0.21820  Biso   1.000  H
  C78      1.0000 0.17657  0.35314  0.14508  Biso   1.000  C
  C79      1.0000 0.15287  0.30574  0.19931  Biso   1.000  C
  C80      1.0000 0.10971  0.21942  0.19960  Biso   1.000  C
  H30      1.0000 0.09470  0.18940  0.16540  Biso   1.000  H
  C81      1.0000 0.55792  0.77896  0.04469  Biso   1.000  C
  H31      1.0000 0.52840  0.76420  0.01030  Biso   1.000  H
  H32      1.0000 0.53860  0.76930  0.21820  Biso   1.000  H
  C82      1.0000 0.64686  0.82343  0.14508  Biso   1.000  C
  C83      1.0000 0.69426  0.84713  0.19931  Biso   1.000  C
  C84      1.0000 0.78058  0.89029  0.19960  Biso   1.000  C
  H33      1.0000 0.81060  0.90530  0.16540  Biso   1.000  H
  C85      1.0000 0.77896  0.22104  0.54469  Biso   1.000  C
  H34      1.0000 0.76420  0.23580  0.51030  Biso   1.000  H
  H35      1.0000 0.76930  0.23070  0.71820  Biso   1.000  H
  C86      1.0000 0.82343  0.17657  0.64508  Biso   1.000  C
  C87      1.0000 0.84713  0.15287  0.69931  Biso   1.000  C
  C88      1.0000 0.89029  0.10971  0.69960  Biso   1.000  C
  H36      1.0000 0.90530  0.09470  0.66540  Biso   1.000  H
  C89      1.0000 0.77896  0.55792  0.54469  Biso   1.000  C
  H37      1.0000 0.76420  0.52840  0.51030  Biso   1.000  H
  H38      1.0000 0.76930  0.53860  0.71820  Biso   1.000  H
  C90      1.0000 0.82343  0.64686  0.64508  Biso   1.000  C
  C91      1.0000 0.84713  0.69426  0.69931  Biso   1.000  C
  C92      1.0000 0.89029  0.78058  0.69960  Biso   1.000  C
  H39      1.0000 0.90530  0.81060  0.66540  Biso   1.000  H
  C93      1.0000 0.44208  0.22104  0.54469  Biso   1.000  C
  H40      1.0000 0.47160  0.23580  0.51030  Biso   1.000  H
  H41      1.0000 0.46140  0.23070  0.71820  Biso   1.000  H
  C94      1.0000 0.35314  0.17657  0.64508  Biso   1.000  C
  C95      1.0000 0.30574  0.15287  0.69931  Biso   1.000  C
  C96      1.0000 0.21942  0.10971  0.69960  Biso   1.000  C
  H42      1.0000 0.18940  0.09470  0.66540  Biso   1.000  H
  C97      1.0000 0.77896  0.22104  0.95531  Biso   1.000  C
  H43      1.0000 0.76420  0.23580  0.98970  Biso   1.000  H
  H44      1.0000 0.76930  0.23070  0.78180  Biso   1.000  H
  C98      1.0000 0.82343  0.17657  0.85492  Biso   1.000  C
  C99      1.0000 0.84713  0.15287  0.80069  Biso   1.000  C
  C100     1.0000 0.89029  0.10971  0.80040  Biso   1.000  C
  H45      1.0000 0.90530  0.09470  0.83460  Biso   1.000  H
  C101     1.0000 0.44208  0.22104  0.95531  Biso   1.000  C
  H46      1.0000 0.47160  0.23580  0.98970  Biso   1.000  H
  H47      1.0000 0.46140  0.23070  0.78180  Biso   1.000  H
  C102     1.0000 0.35314  0.17657  0.85492  Biso   1.000  C
  C103     1.0000 0.30574  0.15287  0.80069  Biso   1.000  C
  C104     1.0000 0.21942  0.10971  0.80040  Biso   1.000  C
  H48      1.0000 0.18940  0.09470  0.83460  Biso   1.000  H
  C105     1.0000 0.77896  0.55792  0.95531  Biso   1.000  C
  H49      1.0000 0.76420  0.52840  0.98970  Biso   1.000  H
  H50      1.0000 0.76930  0.53860  0.78180  Biso   1.000  H
  C106     1.0000 0.82343  0.64686  0.85492  Biso   1.000  C
  C107     1.0000 0.84713  0.69426  0.80069  Biso   1.000  C
  C108     1.0000 0.89029  0.78058  0.80040  Biso   1.000  C
  H51      1.0000 0.90530  0.81060  0.83460  Biso   1.000  H
  C109     1.0000 0.22104  0.77896  0.45531  Biso   1.000  C
  H52      1.0000 0.23580  0.76420  0.48970  Biso   1.000  H
  H53      1.0000 0.23070  0.76930  0.28180  Biso   1.000  H
  C110     1.0000 0.17657  0.82343  0.35492  Biso   1.000  C
  C111     1.0000 0.15287  0.84713  0.30069  Biso   1.000  C
  C112     1.0000 0.10971  0.89029  0.30040  Biso   1.000  C
  H54      1.0000 0.09470  0.90530  0.33460  Biso   1.000  H
  C113     1.0000 0.55792  0.77896  0.45531  Biso   1.000  C
  H55      1.0000 0.52840  0.76420  0.48970  Biso   1.000  H
  H56      1.0000 0.53860  0.76930  0.28180  Biso   1.000  H
  C114     1.0000 0.64686  0.82343  0.35492  Biso   1.000  C
  C115     1.0000 0.69426  0.84713  0.30069  Biso   1.000  C
  C116     1.0000 0.78058  0.89029  0.30040  Biso   1.000  C
  H57      1.0000 0.81060  0.90530  0.33460  Biso   1.000  H
  C117     1.0000 0.22104  0.44208  0.45531  Biso   1.000  C
  H58      1.0000 0.23580  0.47160  0.48970  Biso   1.000  H
  H59      1.0000 0.23070  0.46140  0.28180  Biso   1.000  H
  C118     1.0000 0.17657  0.35314  0.35492  Biso   1.000  C
  C119     1.0000 0.15287  0.30574  0.30069  Biso   1.000  C
  C120     1.0000 0.10971  0.21942  0.30040  Biso   1.000  C
  H60      1.0000 0.09470  0.18940  0.33460  Biso   1.000  H
  C121     1.0000 0.17440  0.82560  0.25000  Biso   1.000  C
  N1       1.0000 0.21692  0.78308  0.25000  Biso   1.000  N
  C122     1.0000 0.08820  0.91180  0.25000  Biso   1.000  C
  H61      1.0000 0.05840  0.94160  0.25000  Biso   1.000  H
  C123     1.0000 0.17440  0.34880  0.25000  Biso   1.000  C
  N2       1.0000 0.21692  0.43384  0.25000  Biso   1.000  N
  C124     1.0000 0.08820  0.17640  0.25000  Biso   1.000  C
  H62      1.0000 0.05840  0.11680  0.25000  Biso   1.000  H
  C125     1.0000 0.65120  0.82560  0.25000  Biso   1.000  C
  N3       1.0000 0.56616  0.78308  0.25000  Biso   1.000  N
  C126     1.0000 0.82360  0.91180  0.25000  Biso   1.000  C
  H63      1.0000 0.88320  0.94160  0.25000  Biso   1.000  H
  C127     1.0000 0.82560  0.17440  0.75000  Biso   1.000  C
  N4       1.0000 0.78308  0.21692  0.75000  Biso   1.000  N
  C128     1.0000 0.91180  0.08820  0.75000  Biso   1.000  C
  H64      1.0000 0.94160  0.05840  0.75000  Biso   1.000  H
  C129     1.0000 0.82560  0.65120  0.75000  Biso   1.000  C
  N5       1.0000 0.78308  0.56616  0.75000  Biso   1.000  N
  C130     1.0000 0.91180  0.82360  0.75000  Biso   1.000  C
  H65      1.0000 0.94160  0.88320  0.75000  Biso   1.000  H
  C131     1.0000 0.34880  0.17440  0.75000  Biso   1.000  C
  N6       1.0000 0.43384  0.21692  0.75000  Biso   1.000  N
  C132     1.0000 0.17640  0.08820  0.75000  Biso   1.000  C
  H66      1.0000 0.11680  0.05840  0.75000  Biso   1.000  H
