data_image0
_cell_length_a       18.468
_cell_length_b       18.468
_cell_length_c       24.16
_cell_angle_alpha    90
_cell_angle_beta     90
_cell_angle_gamma    120

_symmetry_space_group_name_H-M    "P 1"
_symmetry_int_tables_number       1

loop_
  _symmetry_equiv_pos_as_xyz
  'x, y, z'

loop_
  _atom_site_label
  _atom_site_occupancy
  _atom_site_fract_x
  _atom_site_fract_y
  _atom_site_fract_z
  _atom_site_thermal_displace_type
  _atom_site_B_iso_or_equiv
  _atom_site_type_symbol
  C1       1.0000 0.55200  0.64270  0.54560  Biso   1.000  C
  O1       1.0000 0.52030  0.62970  0.49838  Biso   1.000  O
  O2       1.0000 0.56290  0.59080  0.57360  Biso   1.000  O
  C2       1.0000 0.57940  0.72410  0.57218  Biso   1.000  C
  C3       1.0000 0.62220  0.74700  0.62082  Biso   1.000  C
  H1       1.0000 0.63610  0.71040  0.63780  Biso   1.000  H
  C4       1.0000 0.35730  0.90930  0.54560  Biso   1.000  C
  O3       1.0000 0.37030  0.89060  0.49838  Biso   1.000  O
  O4       1.0000 0.40920  0.97210  0.57360  Biso   1.000  O
  C5       1.0000 0.27590  0.85530  0.57218  Biso   1.000  C
  C6       1.0000 0.25300  0.87520  0.62082  Biso   1.000  C
  H2       1.0000 0.28960  0.92570  0.63780  Biso   1.000  H
  C7       1.0000 0.09070  0.44800  0.54560  Biso   1.000  C
  O5       1.0000 0.10940  0.47970  0.49838  Biso   1.000  O
  O6       1.0000 0.02790  0.43710  0.57360  Biso   1.000  O
  C8       1.0000 0.14470  0.42060  0.57218  Biso   1.000  C
  C9       1.0000 0.12480  0.37780  0.62082  Biso   1.000  C
  H3       1.0000 0.07430  0.36390  0.63780  Biso   1.000  H
  C10      1.0000 0.44800  0.35730  0.04560  Biso   1.000  C
  O7       1.0000 0.47970  0.37030  0.99838  Biso   1.000  O
  O8       1.0000 0.43710  0.40920  0.07360  Biso   1.000  O
  C11      1.0000 0.42060  0.27590  0.07218  Biso   1.000  C
  C12      1.0000 0.37780  0.25300  0.12082  Biso   1.000  C
  H4       1.0000 0.36390  0.28960  0.13780  Biso   1.000  H
  C13      1.0000 0.64270  0.09070  0.04560  Biso   1.000  C
  O9       1.0000 0.62970  0.10940  0.99838  Biso   1.000  O
  O10      1.0000 0.59080  0.02790  0.07360  Biso   1.000  O
  C14      1.0000 0.72410  0.14470  0.07218  Biso   1.000  C
  C15      1.0000 0.74700  0.12480  0.12082  Biso   1.000  C
  H5       1.0000 0.71040  0.07430  0.13780  Biso   1.000  H
  C16      1.0000 0.90930  0.55200  0.04560  Biso   1.000  C
  O11      1.0000 0.89060  0.52030  0.99838  Biso   1.000  O
  O12      1.0000 0.97210  0.56290  0.07360  Biso   1.000  O
  C17      1.0000 0.85530  0.57940  0.07218  Biso   1.000  C
  C18      1.0000 0.87520  0.62220  0.12082  Biso   1.000  C
  H6       1.0000 0.92570  0.63610  0.13780  Biso   1.000  H
  C19      1.0000 0.64270  0.55200  0.45440  Biso   1.000  C
  O13      1.0000 0.62970  0.52030  0.50162  Biso   1.000  O
  O14      1.0000 0.59080  0.56290  0.42640  Biso   1.000  O
  C20      1.0000 0.72410  0.57940  0.42782  Biso   1.000  C
  C21      1.0000 0.74700  0.62220  0.37918  Biso   1.000  C
  H7       1.0000 0.71040  0.63610  0.36220  Biso   1.000  H
  C22      1.0000 0.90930  0.35730  0.45440  Biso   1.000  C
  O15      1.0000 0.89060  0.37030  0.50162  Biso   1.000  O
  O16      1.0000 0.97210  0.40920  0.42640  Biso   1.000  O
  C23      1.0000 0.85530  0.27590  0.42782  Biso   1.000  C
  C24      1.0000 0.87520  0.25300  0.37918  Biso   1.000  C
  H8       1.0000 0.92570  0.28960  0.36220  Biso   1.000  H
  C25      1.0000 0.44800  0.09070  0.45440  Biso   1.000  C
  O17      1.0000 0.47970  0.10940  0.50162  Biso   1.000  O
  O18      1.0000 0.43710  0.02790  0.42640  Biso   1.000  O
  C26      1.0000 0.42060  0.14470  0.42782  Biso   1.000  C
  C27      1.0000 0.37780  0.12480  0.37918  Biso   1.000  C
  H9       1.0000 0.36390  0.07430  0.36220  Biso   1.000  H
  C28      1.0000 0.35730  0.44800  0.95440  Biso   1.000  C
  O19      1.0000 0.37030  0.47970  0.00162  Biso   1.000  O
  O20      1.0000 0.40920  0.43710  0.92640  Biso   1.000  O
  C29      1.0000 0.27590  0.42060  0.92782  Biso   1.000  C
  C30      1.0000 0.25300  0.37780  0.87918  Biso   1.000  C
  H10      1.0000 0.28960  0.36390  0.86220  Biso   1.000  H
  C31      1.0000 0.09070  0.64270  0.95440  Biso   1.000  C
  O21      1.0000 0.10940  0.62970  0.00162  Biso   1.000  O
  O22      1.0000 0.02790  0.59080  0.92640  Biso   1.000  O
  C32      1.0000 0.14470  0.72410  0.92782  Biso   1.000  C
  C33      1.0000 0.12480  0.74700  0.87918  Biso   1.000  C
  H11      1.0000 0.07430  0.71040  0.86220  Biso   1.000  H
  C34      1.0000 0.55200  0.90930  0.95440  Biso   1.000  C
  O23      1.0000 0.52030  0.89060  0.00162  Biso   1.000  O
  O24      1.0000 0.56290  0.97210  0.92640  Biso   1.000  O
  C35      1.0000 0.57940  0.85530  0.92782  Biso   1.000  C
  C36      1.0000 0.62220  0.87520  0.87918  Biso   1.000  C
  H12      1.0000 0.63610  0.92570  0.86220  Biso   1.000  H
  C37      1.0000 0.44800  0.35730  0.45440  Biso   1.000  C
  O25      1.0000 0.47970  0.37030  0.50162  Biso   1.000  O
  O26      1.0000 0.43710  0.40920  0.42640  Biso   1.000  O
  C38      1.0000 0.42060  0.27590  0.42782  Biso   1.000  C
  C39      1.0000 0.37780  0.25300  0.37918  Biso   1.000  C
  H13      1.0000 0.36390  0.28960  0.36220  Biso   1.000  H
  C40      1.0000 0.64270  0.09070  0.45440  Biso   1.000  C
  O27      1.0000 0.62970  0.10940  0.50162  Biso   1.000  O
  O28      1.0000 0.59080  0.02790  0.42640  Biso   1.000  O
  C41      1.0000 0.72410  0.14470  0.42782  Biso   1.000  C
  C42      1.0000 0.74700  0.12480  0.37918  Biso   1.000  C
  H14      1.0000 0.71040  0.07430  0.36220  Biso   1.000  H
  C43      1.0000 0.90930  0.55200  0.45440  Biso   1.000  C
  O29      1.0000 0.89060  0.52030  0.50162  Biso   1.000  O
  O30      1.0000 0.97210  0.56290  0.42640  Biso   1.000  O
  C44      1.0000 0.85530  0.57940  0.42782  Biso   1.000  C
  C45      1.0000 0.87520  0.62220  0.37918  Biso   1.000  C
  H15      1.0000 0.92570  0.63610  0.36220  Biso   1.000  H
  C46      1.0000 0.55200  0.64270  0.95440  Biso   1.000  C
  O31      1.0000 0.52030  0.62970  0.00162  Biso   1.000  O
  O32      1.0000 0.56290  0.59080  0.92640  Biso   1.000  O
  C47      1.0000 0.57940  0.72410  0.92782  Biso   1.000  C
  C48      1.0000 0.62220  0.74700  0.87918  Biso   1.000  C
  H16      1.0000 0.63610  0.71040  0.86220  Biso   1.000  H
  C49      1.0000 0.35730  0.90930  0.95440  Biso   1.000  C
  O33      1.0000 0.37030  0.89060  0.00162  Biso   1.000  O
  O34      1.0000 0.40920  0.97210  0.92640  Biso   1.000  O
  C50      1.0000 0.27590  0.85530  0.92782  Biso   1.000  C
  C51      1.0000 0.25300  0.87520  0.87918  Biso   1.000  C
  H17      1.0000 0.28960  0.92570  0.86220  Biso   1.000  H
  C52      1.0000 0.09070  0.44800  0.95440  Biso   1.000  C
  O35      1.0000 0.10940  0.47970  0.00162  Biso   1.000  O
  O36      1.0000 0.02790  0.43710  0.92640  Biso   1.000  O
  C53      1.0000 0.14470  0.42060  0.92782  Biso   1.000  C
  C54      1.0000 0.12480  0.37780  0.87918  Biso   1.000  C
  H18      1.0000 0.07430  0.36390  0.86220  Biso   1.000  H
  C55      1.0000 0.35730  0.44800  0.54560  Biso   1.000  C
  O37      1.0000 0.37030  0.47970  0.49838  Biso   1.000  O
  O38      1.0000 0.40920  0.43710  0.57360  Biso   1.000  O
  C56      1.0000 0.27590  0.42060  0.57218  Biso   1.000  C
  C57      1.0000 0.25300  0.37780  0.62082  Biso   1.000  C
  H19      1.0000 0.28960  0.36390  0.63780  Biso   1.000  H
  C58      1.0000 0.09070  0.64270  0.54560  Biso   1.000  C
  O39      1.0000 0.10940  0.62970  0.49838  Biso   1.000  O
  O40      1.0000 0.02790  0.59080  0.57360  Biso   1.000  O
  C59      1.0000 0.14470  0.72410  0.57218  Biso   1.000  C
  C60      1.0000 0.12480  0.74700  0.62082  Biso   1.000  C
  H20      1.0000 0.07430  0.71040  0.63780  Biso   1.000  H
  C61      1.0000 0.55200  0.90930  0.54560  Biso   1.000  C
  O41      1.0000 0.52030  0.89060  0.49838  Biso   1.000  O
  O42      1.0000 0.56290  0.97210  0.57360  Biso   1.000  O
  C62      1.0000 0.57940  0.85530  0.57218  Biso   1.000  C
  C63      1.0000 0.62220  0.87520  0.62082  Biso   1.000  C
  H21      1.0000 0.63610  0.92570  0.63780  Biso   1.000  H
  C64      1.0000 0.64270  0.55200  0.04560  Biso   1.000  C
  O43      1.0000 0.62970  0.52030  0.99838  Biso   1.000  O
  O44      1.0000 0.59080  0.56290  0.07360  Biso   1.000  O
  C65      1.0000 0.72410  0.57940  0.07218  Biso   1.000  C
  C66      1.0000 0.74700  0.62220  0.12082  Biso   1.000  C
  H22      1.0000 0.71040  0.63610  0.13780  Biso   1.000  H
  C67      1.0000 0.90930  0.35730  0.04560  Biso   1.000  C
  O45      1.0000 0.89060  0.37030  0.99838  Biso   1.000  O
  O46      1.0000 0.97210  0.40920  0.07360  Biso   1.000  O
  C68      1.0000 0.85530  0.27590  0.07218  Biso   1.000  C
  C69      1.0000 0.87520  0.25300  0.12082  Biso   1.000  C
  H23      1.0000 0.92570  0.28960  0.13780  Biso   1.000  H
  C70      1.0000 0.44800  0.09070  0.04560  Biso   1.000  C
  O47      1.0000 0.47970  0.10940  0.99838  Biso   1.000  O
  O48      1.0000 0.43710  0.02790  0.07360  Biso   1.000  O
  C71      1.0000 0.42060  0.14470  0.07218  Biso   1.000  C
  C72      1.0000 0.37780  0.12480  0.12082  Biso   1.000  C
  H24      1.0000 0.36390  0.07430  0.13780  Biso   1.000  H
  Zn1      1.0000 0.47293  0.52707  0.44989  Biso   1.000  Zn
  Zn2      1.0000 0.47293  0.94585  0.44989  Biso   1.000  Zn
  Zn3      1.0000 0.05415  0.52707  0.44989  Biso   1.000  Zn
  Zn4      1.0000 0.52707  0.47293  0.94989  Biso   1.000  Zn
  Zn5      1.0000 0.52707  0.05415  0.94989  Biso   1.000  Zn
  Zn6      1.0000 0.94585  0.47293  0.94989  Biso   1.000  Zn
  Zn7      1.0000 0.52707  0.47293  0.55011  Biso   1.000  Zn
  Zn8      1.0000 0.94585  0.47293  0.55011  Biso   1.000  Zn
  Zn9      1.0000 0.52707  0.05415  0.55011  Biso   1.000  Zn
  Zn10     1.0000 0.47293  0.52707  0.05011  Biso   1.000  Zn
  Zn11     1.0000 0.05415  0.52707  0.05011  Biso   1.000  Zn
  Zn12     1.0000 0.47293  0.94585  0.05011  Biso   1.000  Zn
  C73      1.0000 0.55650  0.77825  0.54600  Biso   1.000  C
  H25      1.0000 0.52750  0.76375  0.51260  Biso   1.000  H
  C74      1.0000 0.64560  0.82280  0.64570  Biso   1.000  C
  C75      1.0000 0.69280  0.84640  0.69980  Biso   1.000  C
  H26      1.0000 0.53660  0.76830  0.78080  Biso   1.000  H
  C76      1.0000 0.77530  0.88765  0.70060  Biso   1.000  C
  H27      1.0000 0.80450  0.90225  0.66740  Biso   1.000  H
  C77      1.0000 0.22175  0.77825  0.54600  Biso   1.000  C
  H28      1.0000 0.23625  0.76375  0.51260  Biso   1.000  H
  C78      1.0000 0.17720  0.82280  0.64570  Biso   1.000  C
  C79      1.0000 0.15360  0.84640  0.69980  Biso   1.000  C
  H29      1.0000 0.23170  0.76830  0.78080  Biso   1.000  H
  C80      1.0000 0.11235  0.88765  0.70060  Biso   1.000  C
  H30      1.0000 0.09775  0.90225  0.66740  Biso   1.000  H
  C81      1.0000 0.22175  0.44350  0.54600  Biso   1.000  C
  H31      1.0000 0.23625  0.47250  0.51260  Biso   1.000  H
  C82      1.0000 0.17720  0.35440  0.64570  Biso   1.000  C
  C83      1.0000 0.15360  0.30720  0.69980  Biso   1.000  C
  H32      1.0000 0.23170  0.46340  0.78080  Biso   1.000  H
  C84      1.0000 0.11235  0.22470  0.70060  Biso   1.000  C
  H33      1.0000 0.09775  0.19550  0.66740  Biso   1.000  H
  C85      1.0000 0.44350  0.22175  0.04600  Biso   1.000  C
  H34      1.0000 0.47250  0.23625  0.01260  Biso   1.000  H
  C86      1.0000 0.35440  0.17720  0.14570  Biso   1.000  C
  C87      1.0000 0.30720  0.15360  0.19980  Biso   1.000  C
  H35      1.0000 0.46340  0.23170  0.28080  Biso   1.000  H
  C88      1.0000 0.22470  0.11235  0.20060  Biso   1.000  C
  H36      1.0000 0.19550  0.09775  0.16740  Biso   1.000  H
  C89      1.0000 0.77825  0.22175  0.04600  Biso   1.000  C
  H37      1.0000 0.76375  0.23625  0.01260  Biso   1.000  H
  C90      1.0000 0.82280  0.17720  0.14570  Biso   1.000  C
  C91      1.0000 0.84640  0.15360  0.19980  Biso   1.000  C
  H38      1.0000 0.76830  0.23170  0.28080  Biso   1.000  H
  C92      1.0000 0.88765  0.11235  0.20060  Biso   1.000  C
  H39      1.0000 0.90225  0.09775  0.16740  Biso   1.000  H
  C93      1.0000 0.77825  0.55650  0.04600  Biso   1.000  C
  H40      1.0000 0.76375  0.52750  0.01260  Biso   1.000  H
  C94      1.0000 0.82280  0.64560  0.14570  Biso   1.000  C
  C95      1.0000 0.84640  0.69280  0.19980  Biso   1.000  C
  H41      1.0000 0.76830  0.53660  0.28080  Biso   1.000  H
  C96      1.0000 0.88765  0.77530  0.20060  Biso   1.000  C
  H42      1.0000 0.90225  0.80450  0.16740  Biso   1.000  H
  C97      1.0000 0.77825  0.55650  0.45400  Biso   1.000  C
  H43      1.0000 0.76375  0.52750  0.48740  Biso   1.000  H
  C98      1.0000 0.82280  0.64560  0.35430  Biso   1.000  C
  C99      1.0000 0.84640  0.69280  0.30020  Biso   1.000  C
  H44      1.0000 0.76830  0.53660  0.21920  Biso   1.000  H
  C100     1.0000 0.88765  0.77530  0.29940  Biso   1.000  C
  H45      1.0000 0.90225  0.80450  0.33260  Biso   1.000  H
  C101     1.0000 0.77825  0.22175  0.45400  Biso   1.000  C
  H46      1.0000 0.76375  0.23625  0.48740  Biso   1.000  H
  C102     1.0000 0.82280  0.17720  0.35430  Biso   1.000  C
  C103     1.0000 0.84640  0.15360  0.30020  Biso   1.000  C
  H47      1.0000 0.76830  0.23170  0.21920  Biso   1.000  H
  C104     1.0000 0.88765  0.11235  0.29940  Biso   1.000  C
  H48      1.0000 0.90225  0.09775  0.33260  Biso   1.000  H
  C105     1.0000 0.44350  0.22175  0.45400  Biso   1.000  C
  H49      1.0000 0.47250  0.23625  0.48740  Biso   1.000  H
  C106     1.0000 0.35440  0.17720  0.35430  Biso   1.000  C
  C107     1.0000 0.30720  0.15360  0.30020  Biso   1.000  C
  H50      1.0000 0.46340  0.23170  0.21920  Biso   1.000  H
  C108     1.0000 0.22470  0.11235  0.29940  Biso   1.000  C
  H51      1.0000 0.19550  0.09775  0.33260  Biso   1.000  H
  C109     1.0000 0.22175  0.44350  0.95400  Biso   1.000  C
  H52      1.0000 0.23625  0.47250  0.98740  Biso   1.000  H
  C110     1.0000 0.17720  0.35440  0.85430  Biso   1.000  C
  C111     1.0000 0.15360  0.30720  0.80020  Biso   1.000  C
  H53      1.0000 0.23170  0.46340  0.71920  Biso   1.000  H
  C112     1.0000 0.11235  0.22470  0.79940  Biso   1.000  C
  H54      1.0000 0.09775  0.19550  0.83260  Biso   1.000  H
  C113     1.0000 0.22175  0.77825  0.95400  Biso   1.000  C
  H55      1.0000 0.23625  0.76375  0.98740  Biso   1.000  H
  C114     1.0000 0.17720  0.82280  0.85430  Biso   1.000  C
  C115     1.0000 0.15360  0.84640  0.80020  Biso   1.000  C
  H56      1.0000 0.23170  0.76830  0.71920  Biso   1.000  H
  C116     1.0000 0.11235  0.88765  0.79940  Biso   1.000  C
  H57      1.0000 0.09775  0.90225  0.83260  Biso   1.000  H
  C117     1.0000 0.55650  0.77825  0.95400  Biso   1.000  C
  H58      1.0000 0.52750  0.76375  0.98740  Biso   1.000  H
  C118     1.0000 0.64560  0.82280  0.85430  Biso   1.000  C
  C119     1.0000 0.69280  0.84640  0.80020  Biso   1.000  C
  H59      1.0000 0.53660  0.76830  0.71920  Biso   1.000  H
  C120     1.0000 0.77530  0.88765  0.79940  Biso   1.000  C
  H60      1.0000 0.80450  0.90225  0.83260  Biso   1.000  H
  C121     1.0000 0.65090  0.82545  0.75000  Biso   1.000  C
  N1       1.0000 0.56340  0.78170  0.75000  Biso   1.000  N
  C122     1.0000 0.81920  0.90960  0.75000  Biso   1.000  C
  H61      1.0000 0.87740  0.93870  0.75000  Biso   1.000  H
  C123     1.0000 0.17455  0.82545  0.75000  Biso   1.000  C
  N2       1.0000 0.21830  0.78170  0.75000  Biso   1.000  N
  C124     1.0000 0.09040  0.90960  0.75000  Biso   1.000  C
  H62      1.0000 0.06130  0.93870  0.75000  Biso   1.000  H
  C125     1.0000 0.17455  0.34910  0.75000  Biso   1.000  C
  N3       1.0000 0.21830  0.43660  0.75000  Biso   1.000  N
  C126     1.0000 0.09040  0.18080  0.75000  Biso   1.000  C
  H63      1.0000 0.06130  0.12260  0.75000  Biso   1.000  H
  C127     1.0000 0.34910  0.17455  0.25000  Biso   1.000  C
  N4       1.0000 0.43660  0.21830  0.25000  Biso   1.000  N
  C128     1.0000 0.18080  0.09040  0.25000  Biso   1.000  C
  H64      1.0000 0.12260  0.06130  0.25000  Biso   1.000  H
  C129     1.0000 0.82545  0.17455  0.25000  Biso   1.000  C
  N5       1.0000 0.78170  0.21830  0.25000  Biso   1.000  N
  C130     1.0000 0.90960  0.09040  0.25000  Biso   1.000  C
  H65      1.0000 0.93870  0.06130  0.25000  Biso   1.000  H
  C131     1.0000 0.82545  0.65090  0.25000  Biso   1.000  C
  N6       1.0000 0.78170  0.56340  0.25000  Biso   1.000  N
  C132     1.0000 0.90960  0.81920  0.25000  Biso   1.000  C
  H66      1.0000 0.93870  0.87740  0.25000  Biso   1.000  H
