data_image0
_cell_length_a       18.4448
_cell_length_b       18.4448
_cell_length_c       9.8084
_cell_angle_alpha    90
_cell_angle_beta     90
_cell_angle_gamma    120

_symmetry_space_group_name_H-M    "P 1"
_symmetry_int_tables_number       1

loop_
  _symmetry_equiv_pos_as_xyz
  'x, y, z'

loop_
  _atom_site_label
  _atom_site_occupancy
  _atom_site_fract_x
  _atom_site_fract_y
  _atom_site_fract_z
  _atom_site_thermal_displace_type
  _atom_site_B_iso_or_equiv
  _atom_site_type_symbol
  O1       1.0000 0.56860  0.06230  0.36100  Biso   1.000  O
  O2       1.0000 0.46160  0.68780  0.50440  Biso   1.000  O
  O3       1.0000 0.46710  0.79390  0.61410  Biso   1.000  O
  C1       1.0000 0.47020  0.75940  0.50450  Biso   1.000  C
  C2       1.0000 0.48480  0.80520  0.37290  Biso   1.000  C
  C3       1.0000 0.50860  0.88910  0.37330  Biso   1.000  C
  H1       1.0000 0.51500  0.91680  0.45550  Biso   1.000  H
  O4       1.0000 0.93770  0.50630  0.36100  Biso   1.000  O
  O5       1.0000 0.31220  0.77380  0.50440  Biso   1.000  O
  O6       1.0000 0.20610  0.67320  0.61410  Biso   1.000  O
  C4       1.0000 0.24060  0.71080  0.50450  Biso   1.000  C
  C5       1.0000 0.19480  0.67960  0.37290  Biso   1.000  C
  C6       1.0000 0.11090  0.61950  0.37330  Biso   1.000  C
  H2       1.0000 0.08320  0.59820  0.45550  Biso   1.000  H
  O7       1.0000 0.49370  0.43140  0.36100  Biso   1.000  O
  O8       1.0000 0.22620  0.53840  0.50440  Biso   1.000  O
  O9       1.0000 0.32680  0.53290  0.61410  Biso   1.000  O
  C7       1.0000 0.28920  0.52980  0.50450  Biso   1.000  C
  C8       1.0000 0.32040  0.51520  0.37290  Biso   1.000  C
  C9       1.0000 0.38050  0.49140  0.37330  Biso   1.000  C
  H3       1.0000 0.40180  0.48500  0.45550  Biso   1.000  H
  O10      1.0000 0.43140  0.93770  0.86100  Biso   1.000  O
  O11      1.0000 0.53840  0.31220  0.00440  Biso   1.000  O
  O12      1.0000 0.53290  0.20610  0.11410  Biso   1.000  O
  C10      1.0000 0.52980  0.24060  0.00450  Biso   1.000  C
  C11      1.0000 0.51520  0.19480  0.87290  Biso   1.000  C
  C12      1.0000 0.49140  0.11090  0.87330  Biso   1.000  C
  H4       1.0000 0.48500  0.08320  0.95550  Biso   1.000  H
  O13      1.0000 0.06230  0.49370  0.86100  Biso   1.000  O
  O14      1.0000 0.68780  0.22620  0.00440  Biso   1.000  O
  O15      1.0000 0.79390  0.32680  0.11410  Biso   1.000  O
  C13      1.0000 0.75940  0.28920  0.00450  Biso   1.000  C
  C14      1.0000 0.80520  0.32040  0.87290  Biso   1.000  C
  C15      1.0000 0.88910  0.38050  0.87330  Biso   1.000  C
  H5       1.0000 0.91680  0.40180  0.95550  Biso   1.000  H
  O16      1.0000 0.50630  0.56860  0.86100  Biso   1.000  O
  O17      1.0000 0.77380  0.46160  0.00440  Biso   1.000  O
  O18      1.0000 0.67320  0.46710  0.11410  Biso   1.000  O
  C16      1.0000 0.71080  0.47020  0.00450  Biso   1.000  C
  C17      1.0000 0.67960  0.48480  0.87290  Biso   1.000  C
  C18      1.0000 0.61950  0.50860  0.87330  Biso   1.000  C
  H6       1.0000 0.59820  0.51500  0.95550  Biso   1.000  H
  O19      1.0000 0.43140  0.93770  0.63900  Biso   1.000  O
  O20      1.0000 0.53840  0.31220  0.49560  Biso   1.000  O
  O21      1.0000 0.53290  0.20610  0.38590  Biso   1.000  O
  C19      1.0000 0.52980  0.24060  0.49550  Biso   1.000  C
  C20      1.0000 0.51520  0.19480  0.62710  Biso   1.000  C
  C21      1.0000 0.49140  0.11090  0.62670  Biso   1.000  C
  H7       1.0000 0.48500  0.08320  0.54450  Biso   1.000  H
  O22      1.0000 0.06230  0.49370  0.63900  Biso   1.000  O
  O23      1.0000 0.68780  0.22620  0.49560  Biso   1.000  O
  O24      1.0000 0.79390  0.32680  0.38590  Biso   1.000  O
  C22      1.0000 0.75940  0.28920  0.49550  Biso   1.000  C
  C23      1.0000 0.80520  0.32040  0.62710  Biso   1.000  C
  C24      1.0000 0.88910  0.38050  0.62670  Biso   1.000  C
  H8       1.0000 0.91680  0.40180  0.54450  Biso   1.000  H
  O25      1.0000 0.50630  0.56860  0.63900  Biso   1.000  O
  O26      1.0000 0.77380  0.46160  0.49560  Biso   1.000  O
  O27      1.0000 0.67320  0.46710  0.38590  Biso   1.000  O
  C25      1.0000 0.71080  0.47020  0.49550  Biso   1.000  C
  C26      1.0000 0.67960  0.48480  0.62710  Biso   1.000  C
  C27      1.0000 0.61950  0.50860  0.62670  Biso   1.000  C
  H9       1.0000 0.59820  0.51500  0.54450  Biso   1.000  H
  O28      1.0000 0.56860  0.06230  0.13900  Biso   1.000  O
  O29      1.0000 0.46160  0.68780  0.99560  Biso   1.000  O
  O30      1.0000 0.46710  0.79390  0.88590  Biso   1.000  O
  C28      1.0000 0.47020  0.75940  0.99550  Biso   1.000  C
  C29      1.0000 0.48480  0.80520  0.12710  Biso   1.000  C
  C30      1.0000 0.50860  0.88910  0.12670  Biso   1.000  C
  H10      1.0000 0.51500  0.91680  0.04450  Biso   1.000  H
  O31      1.0000 0.93770  0.50630  0.13900  Biso   1.000  O
  O32      1.0000 0.31220  0.77380  0.99560  Biso   1.000  O
  O33      1.0000 0.20610  0.67320  0.88590  Biso   1.000  O
  C31      1.0000 0.24060  0.71080  0.99550  Biso   1.000  C
  C32      1.0000 0.19480  0.67960  0.12710  Biso   1.000  C
  C33      1.0000 0.11090  0.61950  0.12670  Biso   1.000  C
  H11      1.0000 0.08320  0.59820  0.04450  Biso   1.000  H
  O34      1.0000 0.49370  0.43140  0.13900  Biso   1.000  O
  O35      1.0000 0.22620  0.53840  0.99560  Biso   1.000  O
  O36      1.0000 0.32680  0.53290  0.88590  Biso   1.000  O
  C34      1.0000 0.28920  0.52980  0.99550  Biso   1.000  C
  C35      1.0000 0.32040  0.51520  0.12710  Biso   1.000  C
  C36      1.0000 0.38050  0.49140  0.12670  Biso   1.000  C
  H12      1.0000 0.40180  0.48500  0.04450  Biso   1.000  H
  Th1      1.0000 0.64617  0.20201  0.25000  Biso   1.000  Th
  C37      1.0000 0.52320  0.93240  0.25000  Biso   1.000  C
  C38      1.0000 0.55380  0.02280  0.25000  Biso   1.000  C
  C39      1.0000 0.47340  0.76330  0.25000  Biso   1.000  C
  H13      1.0000 0.45810  0.70700  0.25000  Biso   1.000  H
  Th2      1.0000 0.79799  0.44416  0.25000  Biso   1.000  Th
  C40      1.0000 0.06760  0.59080  0.25000  Biso   1.000  C
  C41      1.0000 0.97720  0.53100  0.25000  Biso   1.000  C
  C42      1.0000 0.23670  0.71010  0.25000  Biso   1.000  C
  H14      1.0000 0.29300  0.75110  0.25000  Biso   1.000  H
  Th3      1.0000 0.55584  0.35383  0.25000  Biso   1.000  Th
  C43      1.0000 0.40920  0.47680  0.25000  Biso   1.000  C
  C44      1.0000 0.46900  0.44620  0.25000  Biso   1.000  C
  C45      1.0000 0.28990  0.52660  0.25000  Biso   1.000  C
  H15      1.0000 0.24890  0.54190  0.25000  Biso   1.000  H
  Th4      1.0000 0.35383  0.79799  0.75000  Biso   1.000  Th
  C46      1.0000 0.47680  0.06760  0.75000  Biso   1.000  C
  C47      1.0000 0.44620  0.97720  0.75000  Biso   1.000  C
  C48      1.0000 0.52660  0.23670  0.75000  Biso   1.000  C
  H16      1.0000 0.54190  0.29300  0.75000  Biso   1.000  H
  Th5      1.0000 0.20201  0.55584  0.75000  Biso   1.000  Th
  C49      1.0000 0.93240  0.40920  0.75000  Biso   1.000  C
  C50      1.0000 0.02280  0.46900  0.75000  Biso   1.000  C
  C51      1.0000 0.76330  0.28990  0.75000  Biso   1.000  C
  H17      1.0000 0.70700  0.24890  0.75000  Biso   1.000  H
  Th6      1.0000 0.44416  0.64617  0.75000  Biso   1.000  Th
  C52      1.0000 0.59080  0.52320  0.75000  Biso   1.000  C
  C53      1.0000 0.53100  0.55380  0.75000  Biso   1.000  C
  C54      1.0000 0.71010  0.47340  0.75000  Biso   1.000  C
  H18      1.0000 0.75110  0.45810  0.75000  Biso   1.000  H
  O37      1.0000 0.66667  0.33333  0.25000  Biso   1.000  O
  O38      1.0000 0.33333  0.66667  0.75000  Biso   1.000  O
