data_image0
_cell_length_a       20.2327
_cell_length_b       10.0714
_cell_length_c       21.673
_cell_angle_alpha    90
_cell_angle_beta     97.856
_cell_angle_gamma    90

_symmetry_space_group_name_H-M    "P 1"
_symmetry_int_tables_number       1

loop_
  _symmetry_equiv_pos_as_xyz
  'x, y, z'

loop_
  _atom_site_label
  _atom_site_occupancy
  _atom_site_fract_x
  _atom_site_fract_y
  _atom_site_fract_z
  _atom_site_thermal_displace_type
  _atom_site_B_iso_or_equiv
  _atom_site_type_symbol
  Th1      1.0000 0.14896  0.79057  0.41306  Biso   1.000  Th
  Th2      1.0000 0.35648  0.78556  0.59304  Biso   1.000  Th
  O1       1.0000 0.16150  0.86510  0.51827  Biso   1.000  O
  O2       1.0000 0.17610  0.75250  0.80523  Biso   1.000  O
  O3       1.0000 0.34410  0.85220  0.48742  Biso   1.000  O
  O4       1.0000 0.10670  0.89500  0.83782  Biso   1.000  O
  O5       1.0000 0.32760  0.74220  0.20000  Biso   1.000  O
  O6       1.0000 0.26820  0.77190  0.41490  Biso   1.000  O
  O7       1.0000 0.38390  0.90450  0.16743  Biso   1.000  O
  O8       1.0000 0.19250  0.60140  0.47400  Biso   1.000  O
  O9       1.0000 0.54080  0.15240  0.33070  Biso   1.000  O
  O10      1.0000 0.94430  0.12230  0.66691  Biso   1.000  O
  O11      1.0000 0.19250  0.99890  0.39840  Biso   1.000  O
  O12      1.0000 0.94310  0.04380  0.57230  Biso   1.000  O
  C1       1.0000 0.15640  0.85760  0.68430  Biso   1.000  C
  H1       1.0000 0.19690  0.81500  0.69630  Biso   1.000  H
  C2       1.0000 0.13710  0.89080  0.62180  Biso   1.000  C
  C3       1.0000 0.36070  0.88610  0.38350  Biso   1.000  C
  C4       1.0000 0.07510  0.95020  0.60310  Biso   1.000  C
  H2       1.0000 0.06070  0.96570  0.56110  Biso   1.000  H
  C5       1.0000 0.32140  0.83390  0.43190  Biso   1.000  C
  C6       1.0000 0.41640  0.96440  0.40010  Biso   1.000  C
  H3       1.0000 0.43040  0.98390  0.44180  Biso   1.000  H
  C7       1.0000 0.11500  0.88840  0.72830  Biso   1.000  C
  C8       1.0000 0.13390  0.84550  0.79440  Biso   1.000  C
  C9       1.0000 0.03550  0.98580  0.64760  Biso   1.000  C
  C10      1.0000 0.36270  0.84760  0.21040  Biso   1.000  C
  C11      1.0000 0.05610  0.95700  0.71020  Biso   1.000  C
  H4       1.0000 0.03020  0.98410  0.74020  Biso   1.000  H
  C12      1.0000 0.28910  0.19920  0.55600  Biso   1.000  C
  C13      1.0000 0.37830  0.89710  0.27600  Biso   1.000  C
  C14      1.0000 0.18320  0.86340  0.57520  Biso   1.000  C
  C15      1.0000 0.24800  0.40520  0.50690  Biso   1.000  C
  C16      1.0000 0.34140  0.85200  0.32130  Biso   1.000  C
  H5       1.0000 0.30400  0.79910  0.31020  Biso   1.000  H
  C17      1.0000 0.21980  0.33580  0.45470  Biso   1.000  C
  H6       1.0000 0.19740  0.38130  0.42080  Biso   1.000  H
  C18      1.0000 0.45170  0.01390  0.35420  Biso   1.000  C
  C19      1.0000 0.22500  0.19660  0.45280  Biso   1.000  C
  C20      1.0000 0.28320  0.33800  0.55740  Biso   1.000  C
  H7       1.0000 0.30290  0.38530  0.59200  Biso   1.000  H
  O13      1.0000 0.53540  0.10930  0.42860  Biso   1.000  O
  O14      1.0000 0.24260  0.84310  0.59620  Biso   1.000  O
  O15      1.0000 0.34640  0.01280  0.60420  Biso   1.000  O
  O16      1.0000 0.28340  0.61630  0.54420  Biso   1.000  O
  C21      1.0000 0.97040  0.05360  0.62770  Biso   1.000  C
  C22      1.0000 0.24140  0.55210  0.50890  Biso   1.000  C
  C23      1.0000 0.26050  0.13090  0.50370  Biso   1.000  C
  H8       1.0000 0.26490  0.03910  0.50240  Biso   1.000  H
  C24      1.0000 0.43230  0.98120  0.29210  Biso   1.000  C
  H9       1.0000 0.45540  0.01550  0.26140  Biso   1.000  H
  C25      1.0000 0.19330  0.12460  0.39610  Biso   1.000  C
  C26      1.0000 0.51230  0.09830  0.37210  Biso   1.000  C
  C27      1.0000 0.32660  0.13050  0.61140  Biso   1.000  C
  O17      1.0000 0.16740  0.18770  0.35190  Biso   1.000  O
  O18      1.0000 0.33950  0.19090  0.66010  Biso   1.000  O
  Th3      1.0000 0.85104  0.29057  0.08694  Biso   1.000  Th
  Th4      1.0000 0.64352  0.28556  0.90696  Biso   1.000  Th
  O19      1.0000 0.83850  0.36510  0.98173  Biso   1.000  O
  O20      1.0000 0.82390  0.25250  0.69477  Biso   1.000  O
  O21      1.0000 0.65590  0.35220  0.01258  Biso   1.000  O
  O22      1.0000 0.89330  0.39500  0.66218  Biso   1.000  O
  O23      1.0000 0.67240  0.24220  0.30000  Biso   1.000  O
  O24      1.0000 0.73180  0.27190  0.08510  Biso   1.000  O
  O25      1.0000 0.61610  0.40450  0.33257  Biso   1.000  O
  O26      1.0000 0.80750  0.10140  0.02600  Biso   1.000  O
  O27      1.0000 0.45920  0.65240  0.16930  Biso   1.000  O
  O28      1.0000 0.05570  0.62230  0.83309  Biso   1.000  O
  O29      1.0000 0.80750  0.49890  0.10160  Biso   1.000  O
  O30      1.0000 0.05690  0.54380  0.92770  Biso   1.000  O
  C28      1.0000 0.84360  0.35760  0.81570  Biso   1.000  C
  H10      1.0000 0.80310  0.31500  0.80370  Biso   1.000  H
  C29      1.0000 0.86290  0.39080  0.87820  Biso   1.000  C
  C30      1.0000 0.63930  0.38610  0.11650  Biso   1.000  C
  C31      1.0000 0.92490  0.45020  0.89690  Biso   1.000  C
  H11      1.0000 0.93930  0.46570  0.93890  Biso   1.000  H
  C32      1.0000 0.67860  0.33390  0.06810  Biso   1.000  C
  C33      1.0000 0.58360  0.46440  0.09990  Biso   1.000  C
  H12      1.0000 0.56960  0.48390  0.05820  Biso   1.000  H
  C34      1.0000 0.88500  0.38840  0.77170  Biso   1.000  C
  C35      1.0000 0.86610  0.34550  0.70560  Biso   1.000  C
  C36      1.0000 0.96450  0.48580  0.85240  Biso   1.000  C
  C37      1.0000 0.63730  0.34760  0.28960  Biso   1.000  C
  C38      1.0000 0.94390  0.45700  0.78980  Biso   1.000  C
  H13      1.0000 0.96980  0.48410  0.75980  Biso   1.000  H
  C39      1.0000 0.71090  0.69920  0.94400  Biso   1.000  C
  C40      1.0000 0.62170  0.39710  0.22400  Biso   1.000  C
  C41      1.0000 0.81680  0.36340  0.92480  Biso   1.000  C
  C42      1.0000 0.75200  0.90520  0.99310  Biso   1.000  C
  C43      1.0000 0.65860  0.35200  0.17870  Biso   1.000  C
  H14      1.0000 0.69600  0.29910  0.18980  Biso   1.000  H
  C44      1.0000 0.78020  0.83580  0.04530  Biso   1.000  C
  H15      1.0000 0.80260  0.88130  0.07920  Biso   1.000  H
  C45      1.0000 0.54830  0.51390  0.14580  Biso   1.000  C
  C46      1.0000 0.77500  0.69660  0.04720  Biso   1.000  C
  C47      1.0000 0.71680  0.83800  0.94260  Biso   1.000  C
  H16      1.0000 0.69710  0.88530  0.90800  Biso   1.000  H
  O31      1.0000 0.46460  0.60930  0.07140  Biso   1.000  O
  O32      1.0000 0.75740  0.34310  0.90380  Biso   1.000  O
  O33      1.0000 0.65360  0.51280  0.89580  Biso   1.000  O
  O34      1.0000 0.71660  0.11630  0.95580  Biso   1.000  O
  C48      1.0000 0.02960  0.55360  0.87230  Biso   1.000  C
  C49      1.0000 0.75860  0.05210  0.99110  Biso   1.000  C
  C50      1.0000 0.73950  0.63090  0.99630  Biso   1.000  C
  H17      1.0000 0.73510  0.53910  0.99760  Biso   1.000  H
  C51      1.0000 0.56770  0.48120  0.20790  Biso   1.000  C
  H18      1.0000 0.54460  0.51550  0.23860  Biso   1.000  H
  C52      1.0000 0.80670  0.62460  0.10390  Biso   1.000  C
  C53      1.0000 0.48770  0.59830  0.12790  Biso   1.000  C
  C54      1.0000 0.67340  0.63050  0.88860  Biso   1.000  C
  O35      1.0000 0.83260  0.68770  0.14810  Biso   1.000  O
  O36      1.0000 0.66050  0.69090  0.83990  Biso   1.000  O
  Th5      1.0000 0.85104  0.20943  0.58694  Biso   1.000  Th
  Th6      1.0000 0.64352  0.21444  0.40696  Biso   1.000  Th
  O37      1.0000 0.83850  0.13490  0.48173  Biso   1.000  O
  O38      1.0000 0.82390  0.24750  0.19477  Biso   1.000  O
  O39      1.0000 0.65590  0.14780  0.51258  Biso   1.000  O
  O40      1.0000 0.89330  0.10500  0.16218  Biso   1.000  O
  O41      1.0000 0.67240  0.25780  0.80000  Biso   1.000  O
  O42      1.0000 0.73180  0.22810  0.58510  Biso   1.000  O
  O43      1.0000 0.61610  0.09550  0.83257  Biso   1.000  O
  O44      1.0000 0.80750  0.39860  0.52600  Biso   1.000  O
  O45      1.0000 0.45920  0.84760  0.66930  Biso   1.000  O
  O46      1.0000 0.05570  0.87770  0.33309  Biso   1.000  O
  O47      1.0000 0.80750  0.00110  0.60160  Biso   1.000  O
  O48      1.0000 0.05690  0.95620  0.42770  Biso   1.000  O
  C55      1.0000 0.84360  0.14240  0.31570  Biso   1.000  C
  H19      1.0000 0.80310  0.18500  0.30370  Biso   1.000  H
  C56      1.0000 0.86290  0.10920  0.37820  Biso   1.000  C
  C57      1.0000 0.63930  0.11390  0.61650  Biso   1.000  C
  C58      1.0000 0.92490  0.04980  0.39690  Biso   1.000  C
  H20      1.0000 0.93930  0.03430  0.43890  Biso   1.000  H
  C59      1.0000 0.67860  0.16610  0.56810  Biso   1.000  C
  C60      1.0000 0.58360  0.03560  0.59990  Biso   1.000  C
  H21      1.0000 0.56960  0.01610  0.55820  Biso   1.000  H
  C61      1.0000 0.88500  0.11160  0.27170  Biso   1.000  C
  C62      1.0000 0.86610  0.15450  0.20560  Biso   1.000  C
  C63      1.0000 0.96450  0.01420  0.35240  Biso   1.000  C
  C64      1.0000 0.63730  0.15240  0.78960  Biso   1.000  C
  C65      1.0000 0.94390  0.04300  0.28980  Biso   1.000  C
  H22      1.0000 0.96980  0.01590  0.25980  Biso   1.000  H
  C66      1.0000 0.71090  0.80080  0.44400  Biso   1.000  C
  C67      1.0000 0.62170  0.10290  0.72400  Biso   1.000  C
  C68      1.0000 0.81680  0.13660  0.42480  Biso   1.000  C
  C69      1.0000 0.75200  0.59480  0.49310  Biso   1.000  C
  C70      1.0000 0.65860  0.14800  0.67870  Biso   1.000  C
  H23      1.0000 0.69600  0.20090  0.68980  Biso   1.000  H
  C71      1.0000 0.78020  0.66420  0.54530  Biso   1.000  C
  H24      1.0000 0.80260  0.61870  0.57920  Biso   1.000  H
  C72      1.0000 0.54830  0.98610  0.64580  Biso   1.000  C
  C73      1.0000 0.77500  0.80340  0.54720  Biso   1.000  C
  C74      1.0000 0.71680  0.66200  0.44260  Biso   1.000  C
  H25      1.0000 0.69710  0.61470  0.40800  Biso   1.000  H
  O49      1.0000 0.46460  0.89070  0.57140  Biso   1.000  O
  O50      1.0000 0.75740  0.15690  0.40380  Biso   1.000  O
  O51      1.0000 0.65360  0.98720  0.39580  Biso   1.000  O
  O52      1.0000 0.71660  0.38370  0.45580  Biso   1.000  O
  C75      1.0000 0.02960  0.94640  0.37230  Biso   1.000  C
  C76      1.0000 0.75860  0.44790  0.49110  Biso   1.000  C
  C77      1.0000 0.73950  0.86910  0.49630  Biso   1.000  C
  H26      1.0000 0.73510  0.96090  0.49760  Biso   1.000  H
  C78      1.0000 0.56770  0.01880  0.70790  Biso   1.000  C
  H27      1.0000 0.54460  0.98450  0.73860  Biso   1.000  H
  C79      1.0000 0.80670  0.87540  0.60390  Biso   1.000  C
  C80      1.0000 0.48770  0.90170  0.62790  Biso   1.000  C
  C81      1.0000 0.67340  0.86950  0.38860  Biso   1.000  C
  O53      1.0000 0.83260  0.81230  0.64810  Biso   1.000  O
  O54      1.0000 0.66050  0.80910  0.33990  Biso   1.000  O
  Th7      1.0000 0.14896  0.70943  0.91306  Biso   1.000  Th
  Th8      1.0000 0.35648  0.71444  0.09304  Biso   1.000  Th
  O55      1.0000 0.16150  0.63490  0.01827  Biso   1.000  O
  O56      1.0000 0.17610  0.74750  0.30523  Biso   1.000  O
  O57      1.0000 0.34410  0.64780  0.98742  Biso   1.000  O
  O58      1.0000 0.10670  0.60500  0.33782  Biso   1.000  O
  O59      1.0000 0.32760  0.75780  0.70000  Biso   1.000  O
  O60      1.0000 0.26820  0.72810  0.91490  Biso   1.000  O
  O61      1.0000 0.38390  0.59550  0.66743  Biso   1.000  O
  O62      1.0000 0.19250  0.89860  0.97400  Biso   1.000  O
  O63      1.0000 0.54080  0.34760  0.83070  Biso   1.000  O
  O64      1.0000 0.94430  0.37770  0.16691  Biso   1.000  O
  O65      1.0000 0.19250  0.50110  0.89840  Biso   1.000  O
  O66      1.0000 0.94310  0.45620  0.07230  Biso   1.000  O
  C82      1.0000 0.15640  0.64240  0.18430  Biso   1.000  C
  H28      1.0000 0.19690  0.68500  0.19630  Biso   1.000  H
  C83      1.0000 0.13710  0.60920  0.12180  Biso   1.000  C
  C84      1.0000 0.36070  0.61390  0.88350  Biso   1.000  C
  C85      1.0000 0.07510  0.54980  0.10310  Biso   1.000  C
  H29      1.0000 0.06070  0.53430  0.06110  Biso   1.000  H
  C86      1.0000 0.32140  0.66610  0.93190  Biso   1.000  C
  C87      1.0000 0.41640  0.53560  0.90010  Biso   1.000  C
  H30      1.0000 0.43040  0.51610  0.94180  Biso   1.000  H
  C88      1.0000 0.11500  0.61160  0.22830  Biso   1.000  C
  C89      1.0000 0.13390  0.65450  0.29440  Biso   1.000  C
  C90      1.0000 0.03550  0.51420  0.14760  Biso   1.000  C
  C91      1.0000 0.36270  0.65240  0.71040  Biso   1.000  C
  C92      1.0000 0.05610  0.54300  0.21020  Biso   1.000  C
  H31      1.0000 0.03020  0.51590  0.24020  Biso   1.000  H
  C93      1.0000 0.28910  0.30080  0.05600  Biso   1.000  C
  C94      1.0000 0.37830  0.60290  0.77600  Biso   1.000  C
  C95      1.0000 0.18320  0.63660  0.07520  Biso   1.000  C
  C96      1.0000 0.24800  0.09480  0.00690  Biso   1.000  C
  C97      1.0000 0.34140  0.64800  0.82130  Biso   1.000  C
  H32      1.0000 0.30400  0.70090  0.81020  Biso   1.000  H
  C98      1.0000 0.21980  0.16420  0.95470  Biso   1.000  C
  H33      1.0000 0.19740  0.11870  0.92080  Biso   1.000  H
  C99      1.0000 0.45170  0.48610  0.85420  Biso   1.000  C
  C100     1.0000 0.22500  0.30340  0.95280  Biso   1.000  C
  C101     1.0000 0.28320  0.16200  0.05740  Biso   1.000  C
  H34      1.0000 0.30290  0.11470  0.09200  Biso   1.000  H
  O67      1.0000 0.53540  0.39070  0.92860  Biso   1.000  O
  O68      1.0000 0.24260  0.65690  0.09620  Biso   1.000  O
  O69      1.0000 0.34640  0.48720  0.10420  Biso   1.000  O
  O70      1.0000 0.28340  0.88370  0.04420  Biso   1.000  O
  C102     1.0000 0.97040  0.44640  0.12770  Biso   1.000  C
  C103     1.0000 0.24140  0.94790  0.00890  Biso   1.000  C
  C104     1.0000 0.26050  0.36910  0.00370  Biso   1.000  C
  H35      1.0000 0.26490  0.46090  0.00240  Biso   1.000  H
  C105     1.0000 0.43230  0.51880  0.79210  Biso   1.000  C
  H36      1.0000 0.45540  0.48450  0.76140  Biso   1.000  H
  C106     1.0000 0.19330  0.37540  0.89610  Biso   1.000  C
  C107     1.0000 0.51230  0.40170  0.87210  Biso   1.000  C
  C108     1.0000 0.32660  0.36950  0.11140  Biso   1.000  C
  O71      1.0000 0.16740  0.31230  0.85190  Biso   1.000  O
  O72      1.0000 0.33950  0.30910  0.16010  Biso   1.000  O
