data_image0
_cell_length_a       20.5158
_cell_length_b       10.0012
_cell_length_c       21.5145
_cell_angle_alpha    90
_cell_angle_beta     99.156
_cell_angle_gamma    90

_symmetry_space_group_name_H-M    "P 1"
_symmetry_int_tables_number       1

loop_
  _symmetry_equiv_pos_as_xyz
  'x, y, z'

loop_
  _atom_site_label
  _atom_site_occupancy
  _atom_site_fract_x
  _atom_site_fract_y
  _atom_site_fract_z
  _atom_site_thermal_displace_type
  _atom_site_B_iso_or_equiv
  _atom_site_type_symbol
  Th1      1.0000 0.14813  0.69528  0.41576  Biso   1.000  Th
  Th2      1.0000 0.35952  0.70347  0.60121  Biso   1.000  Th
  O1       1.0000 0.26440  0.78900  0.92170  Biso   1.000  O
  O2       1.0000 0.16520  0.61720  0.52150  Biso   1.000  O
  O3       1.0000 0.10950  0.61530  0.84070  Biso   1.000  O
  O4       1.0000 0.24660  0.64120  0.60150  Biso   1.000  O
  O5       1.0000 0.94680  0.38400  0.66550  Biso   1.000  O
  O6       1.0000 0.35380  0.47270  0.60100  Biso   1.000  O
  C1       1.0000 0.22050  0.14870  0.45530  Biso   1.000  C
  H1       1.0000 0.19650  0.10310  0.42150  Biso   1.000  H
  O7       1.0000 0.17260  0.76500  0.80720  Biso   1.000  O
  C2       1.0000 0.28580  0.14640  0.55870  Biso   1.000  C
  H2       1.0000 0.30530  0.09920  0.59410  Biso   1.000  H
  O8       1.0000 0.18900  0.88380  0.47860  Biso   1.000  O
  O9       1.0000 0.28550  0.86570  0.54360  Biso   1.000  O
  O10      1.0000 0.34800  0.85290  0.99210  Biso   1.000  O
  C3       1.0000 0.14040  0.60480  0.62420  Biso   1.000  C
  O11      1.0000 0.18790  0.48440  0.39670  Biso   1.000  O
  O12      1.0000 0.36400  0.88940  0.67140  Biso   1.000  O
  C4       1.0000 0.22740  0.28700  0.45270  Biso   1.000  C
  C5       1.0000 0.31880  0.84570  0.93700  Biso   1.000  C
  C6       1.0000 0.24940  0.07900  0.50850  Biso   1.000  C
  O13      1.0000 0.53330  0.11000  0.92740  Biso   1.000  O
  O14      1.0000 0.94410  0.46940  0.57110  Biso   1.000  O
  O15      1.0000 0.53330  0.15520  0.82790  Biso   1.000  O
  C7       1.0000 0.18720  0.62370  0.57930  Biso   1.000  C
  C8       1.0000 0.07820  0.54680  0.60390  Biso   1.000  C
  H3       1.0000 0.06430  0.52810  0.56150  Biso   1.000  H
  O16      1.0000 0.34740  0.29410  0.66100  Biso   1.000  O
  C9       1.0000 0.41190  0.97370  0.90250  Biso   1.000  C
  H4       1.0000 0.43130  0.98220  0.94440  Biso   1.000  H
  O17      1.0000 0.17780  0.29480  0.34640  Biso   1.000  O
  C10      1.0000 0.29310  0.28430  0.55640  Biso   1.000  C
  C11      1.0000 0.15830  0.64350  0.68670  Biso   1.000  C
  H5       1.0000 0.19830  0.68660  0.69960  Biso   1.000  H
  O18      1.0000 0.26000  0.92440  0.69490  Biso   1.000  O
  C12      1.0000 0.44270  0.02770  0.85490  Biso   1.000  C
  C13      1.0000 0.03770  0.51790  0.64840  Biso   1.000  C
  C14      1.0000 0.41580  0.00480  0.79200  Biso   1.000  C
  H6       1.0000 0.43840  0.03300  0.76020  Biso   1.000  H
  C15      1.0000 0.13360  0.66530  0.79690  Biso   1.000  C
  C16      1.0000 0.24180  0.93230  0.51080  Biso   1.000  C
  C17      1.0000 0.11590  0.61740  0.73010  Biso   1.000  C
  C18      1.0000 0.32300  0.89080  0.82460  Biso   1.000  C
  H7       1.0000 0.28260  0.84750  0.81480  Biso   1.000  H
  C19      1.0000 0.35220  0.90730  0.88700  Biso   1.000  C
  C20      1.0000 0.26400  0.35460  0.50380  Biso   1.000  C
  H8       1.0000 0.26870  0.44690  0.50240  Biso   1.000  H
  C21      1.0000 0.35540  0.94020  0.77660  Biso   1.000  C
  C22      1.0000 0.05660  0.54940  0.71100  Biso   1.000  C
  H9       1.0000 0.03000  0.52560  0.74040  Biso   1.000  H
  C23      1.0000 0.19500  0.35850  0.39410  Biso   1.000  C
  C24      1.0000 0.97300  0.45300  0.62710  Biso   1.000  C
  C25      1.0000 0.32360  0.91490  0.70950  Biso   1.000  C
  C26      1.0000 0.33360  0.35480  0.61150  Biso   1.000  C
  C27      1.0000 0.50600  0.10100  0.87080  Biso   1.000  C
  Th3      1.0000 0.85187  0.19528  0.08424  Biso   1.000  Th
  Th4      1.0000 0.64048  0.20347  0.89879  Biso   1.000  Th
  O19      1.0000 0.73560  0.28900  0.57830  Biso   1.000  O
  O20      1.0000 0.83480  0.11720  0.97850  Biso   1.000  O
  O21      1.0000 0.89050  0.11530  0.65930  Biso   1.000  O
  O22      1.0000 0.75340  0.14120  0.89850  Biso   1.000  O
  O23      1.0000 0.05320  0.88400  0.83450  Biso   1.000  O
  O24      1.0000 0.64620  0.97270  0.89900  Biso   1.000  O
  C28      1.0000 0.77950  0.64870  0.04470  Biso   1.000  C
  H10      1.0000 0.80350  0.60310  0.07850  Biso   1.000  H
  O25      1.0000 0.82740  0.26500  0.69280  Biso   1.000  O
  C29      1.0000 0.71420  0.64640  0.94130  Biso   1.000  C
  H11      1.0000 0.69470  0.59920  0.90590  Biso   1.000  H
  O26      1.0000 0.81100  0.38380  0.02140  Biso   1.000  O
  O27      1.0000 0.71450  0.36570  0.95640  Biso   1.000  O
  O28      1.0000 0.65200  0.35290  0.50790  Biso   1.000  O
  C30      1.0000 0.85960  0.10480  0.87580  Biso   1.000  C
  O29      1.0000 0.81210  0.98440  0.10330  Biso   1.000  O
  O30      1.0000 0.63600  0.38940  0.82860  Biso   1.000  O
  C31      1.0000 0.77260  0.78700  0.04730  Biso   1.000  C
  C32      1.0000 0.68120  0.34570  0.56300  Biso   1.000  C
  C33      1.0000 0.75060  0.57900  0.99150  Biso   1.000  C
  O31      1.0000 0.46670  0.61000  0.57260  Biso   1.000  O
  O32      1.0000 0.05590  0.96940  0.92890  Biso   1.000  O
  O33      1.0000 0.46670  0.65520  0.67210  Biso   1.000  O
  C34      1.0000 0.81280  0.12370  0.92070  Biso   1.000  C
  C35      1.0000 0.92180  0.04680  0.89610  Biso   1.000  C
  H12      1.0000 0.93570  0.02810  0.93850  Biso   1.000  H
  O34      1.0000 0.65260  0.79410  0.83900  Biso   1.000  O
  C36      1.0000 0.58810  0.47370  0.59750  Biso   1.000  C
  H13      1.0000 0.56870  0.48220  0.55560  Biso   1.000  H
  O35      1.0000 0.82220  0.79480  0.15360  Biso   1.000  O
  C37      1.0000 0.70690  0.78430  0.94360  Biso   1.000  C
  C38      1.0000 0.84170  0.14350  0.81330  Biso   1.000  C
  H14      1.0000 0.80170  0.18660  0.80040  Biso   1.000  H
  O36      1.0000 0.74000  0.42440  0.80510  Biso   1.000  O
  C39      1.0000 0.55730  0.52770  0.64510  Biso   1.000  C
  C40      1.0000 0.96230  0.01790  0.85160  Biso   1.000  C
  C41      1.0000 0.58420  0.50480  0.70800  Biso   1.000  C
  H15      1.0000 0.56160  0.53300  0.73980  Biso   1.000  H
  C42      1.0000 0.86640  0.16530  0.70310  Biso   1.000  C
  C43      1.0000 0.75820  0.43230  0.98920  Biso   1.000  C
  C44      1.0000 0.88410  0.11740  0.76990  Biso   1.000  C
  C45      1.0000 0.67700  0.39080  0.67540  Biso   1.000  C
  H16      1.0000 0.71740  0.34750  0.68520  Biso   1.000  H
  C46      1.0000 0.64780  0.40730  0.61300  Biso   1.000  C
  C47      1.0000 0.73600  0.85460  0.99620  Biso   1.000  C
  H17      1.0000 0.73130  0.94690  0.99760  Biso   1.000  H
  C48      1.0000 0.64460  0.44020  0.72340  Biso   1.000  C
  C49      1.0000 0.94340  0.04940  0.78900  Biso   1.000  C
  H18      1.0000 0.97000  0.02560  0.75960  Biso   1.000  H
  C50      1.0000 0.80500  0.85850  0.10590  Biso   1.000  C
  C51      1.0000 0.02700  0.95300  0.87290  Biso   1.000  C
  C52      1.0000 0.67640  0.41490  0.79050  Biso   1.000  C
  C53      1.0000 0.66640  0.85480  0.88850  Biso   1.000  C
  C54      1.0000 0.49400  0.60100  0.62920  Biso   1.000  C
  Th5      1.0000 0.85187  0.30472  0.58424  Biso   1.000  Th
  Th6      1.0000 0.64048  0.29653  0.39879  Biso   1.000  Th
  O37      1.0000 0.73560  0.21100  0.07830  Biso   1.000  O
  O38      1.0000 0.83480  0.38280  0.47850  Biso   1.000  O
  O39      1.0000 0.89050  0.38470  0.15930  Biso   1.000  O
  O40      1.0000 0.75340  0.35880  0.39850  Biso   1.000  O
  O41      1.0000 0.05320  0.61600  0.33450  Biso   1.000  O
  O42      1.0000 0.64620  0.52730  0.39900  Biso   1.000  O
  C55      1.0000 0.77950  0.85130  0.54470  Biso   1.000  C
  H19      1.0000 0.80350  0.89690  0.57850  Biso   1.000  H
  O43      1.0000 0.82740  0.23500  0.19280  Biso   1.000  O
  C56      1.0000 0.71420  0.85360  0.44130  Biso   1.000  C
  H20      1.0000 0.69470  0.90080  0.40590  Biso   1.000  H
  O44      1.0000 0.81100  0.11620  0.52140  Biso   1.000  O
  O45      1.0000 0.71450  0.13430  0.45640  Biso   1.000  O
  O46      1.0000 0.65200  0.14710  0.00790  Biso   1.000  O
  C57      1.0000 0.85960  0.39520  0.37580  Biso   1.000  C
  O47      1.0000 0.81210  0.51560  0.60330  Biso   1.000  O
  O48      1.0000 0.63600  0.11060  0.32860  Biso   1.000  O
  C58      1.0000 0.77260  0.71300  0.54730  Biso   1.000  C
  C59      1.0000 0.68120  0.15430  0.06300  Biso   1.000  C
  C60      1.0000 0.75060  0.92100  0.49150  Biso   1.000  C
  O49      1.0000 0.46670  0.89000  0.07260  Biso   1.000  O
  O50      1.0000 0.05590  0.53060  0.42890  Biso   1.000  O
  O51      1.0000 0.46670  0.84480  0.17210  Biso   1.000  O
  C61      1.0000 0.81280  0.37630  0.42070  Biso   1.000  C
  C62      1.0000 0.92180  0.45320  0.39610  Biso   1.000  C
  H21      1.0000 0.93570  0.47190  0.43850  Biso   1.000  H
  O52      1.0000 0.65260  0.70590  0.33900  Biso   1.000  O
  C63      1.0000 0.58810  0.02630  0.09750  Biso   1.000  C
  H22      1.0000 0.56870  0.01780  0.05560  Biso   1.000  H
  O53      1.0000 0.82220  0.70520  0.65360  Biso   1.000  O
  C64      1.0000 0.70690  0.71570  0.44360  Biso   1.000  C
  C65      1.0000 0.84170  0.35650  0.31330  Biso   1.000  C
  H23      1.0000 0.80170  0.31340  0.30040  Biso   1.000  H
  O54      1.0000 0.74000  0.07560  0.30510  Biso   1.000  O
  C66      1.0000 0.55730  0.97230  0.14510  Biso   1.000  C
  C67      1.0000 0.96230  0.48210  0.35160  Biso   1.000  C
  C68      1.0000 0.58420  0.99520  0.20800  Biso   1.000  C
  H24      1.0000 0.56160  0.96700  0.23980  Biso   1.000  H
  C69      1.0000 0.86640  0.33470  0.20310  Biso   1.000  C
  C70      1.0000 0.75820  0.06770  0.48920  Biso   1.000  C
  C71      1.0000 0.88410  0.38260  0.26990  Biso   1.000  C
  C72      1.0000 0.67700  0.10920  0.17540  Biso   1.000  C
  H25      1.0000 0.71740  0.15250  0.18520  Biso   1.000  H
  C73      1.0000 0.64780  0.09270  0.11300  Biso   1.000  C
  C74      1.0000 0.73600  0.64540  0.49620  Biso   1.000  C
  H26      1.0000 0.73130  0.55310  0.49760  Biso   1.000  H
  C75      1.0000 0.64460  0.05980  0.22340  Biso   1.000  C
  C76      1.0000 0.94340  0.45060  0.28900  Biso   1.000  C
  H27      1.0000 0.97000  0.47440  0.25960  Biso   1.000  H
  C77      1.0000 0.80500  0.64150  0.60590  Biso   1.000  C
  C78      1.0000 0.02700  0.54700  0.37290  Biso   1.000  C
  C79      1.0000 0.67640  0.08510  0.29050  Biso   1.000  C
  C80      1.0000 0.66640  0.64520  0.38850  Biso   1.000  C
  C81      1.0000 0.49400  0.89900  0.12920  Biso   1.000  C
  Th7      1.0000 0.14813  0.80472  0.91576  Biso   1.000  Th
  Th8      1.0000 0.35952  0.79653  0.10121  Biso   1.000  Th
  O55      1.0000 0.26440  0.71100  0.42170  Biso   1.000  O
  O56      1.0000 0.16520  0.88280  0.02150  Biso   1.000  O
  O57      1.0000 0.10950  0.88470  0.34070  Biso   1.000  O
  O58      1.0000 0.24660  0.85880  0.10150  Biso   1.000  O
  O59      1.0000 0.94680  0.11600  0.16550  Biso   1.000  O
  O60      1.0000 0.35380  0.02730  0.10100  Biso   1.000  O
  C82      1.0000 0.22050  0.35130  0.95530  Biso   1.000  C
  H28      1.0000 0.19650  0.39690  0.92150  Biso   1.000  H
  O61      1.0000 0.17260  0.73500  0.30720  Biso   1.000  O
  C83      1.0000 0.28580  0.35360  0.05870  Biso   1.000  C
  H29      1.0000 0.30530  0.40080  0.09410  Biso   1.000  H
  O62      1.0000 0.18900  0.61620  0.97860  Biso   1.000  O
  O63      1.0000 0.28550  0.63430  0.04360  Biso   1.000  O
  O64      1.0000 0.34800  0.64710  0.49210  Biso   1.000  O
  C84      1.0000 0.14040  0.89520  0.12420  Biso   1.000  C
  O65      1.0000 0.18790  0.01560  0.89670  Biso   1.000  O
  O66      1.0000 0.36400  0.61060  0.17140  Biso   1.000  O
  C85      1.0000 0.22740  0.21300  0.95270  Biso   1.000  C
  C86      1.0000 0.31880  0.65430  0.43700  Biso   1.000  C
  C87      1.0000 0.24940  0.42100  0.00850  Biso   1.000  C
  O67      1.0000 0.53330  0.39000  0.42740  Biso   1.000  O
  O68      1.0000 0.94410  0.03060  0.07110  Biso   1.000  O
  O69      1.0000 0.53330  0.34480  0.32790  Biso   1.000  O
  C88      1.0000 0.18720  0.87630  0.07930  Biso   1.000  C
  C89      1.0000 0.07820  0.95320  0.10390  Biso   1.000  C
  H30      1.0000 0.06430  0.97190  0.06150  Biso   1.000  H
  O70      1.0000 0.34740  0.20590  0.16100  Biso   1.000  O
  C90      1.0000 0.41190  0.52630  0.40250  Biso   1.000  C
  H31      1.0000 0.43130  0.51780  0.44440  Biso   1.000  H
  O71      1.0000 0.17780  0.20520  0.84640  Biso   1.000  O
  C91      1.0000 0.29310  0.21570  0.05640  Biso   1.000  C
  C92      1.0000 0.15830  0.85650  0.18670  Biso   1.000  C
  H32      1.0000 0.19830  0.81340  0.19960  Biso   1.000  H
  O72      1.0000 0.26000  0.57560  0.19490  Biso   1.000  O
  C93      1.0000 0.44270  0.47230  0.35490  Biso   1.000  C
  C94      1.0000 0.03770  0.98210  0.14840  Biso   1.000  C
  C95      1.0000 0.41580  0.49520  0.29200  Biso   1.000  C
  H33      1.0000 0.43840  0.46700  0.26020  Biso   1.000  H
  C96      1.0000 0.13360  0.83470  0.29690  Biso   1.000  C
  C97      1.0000 0.24180  0.56770  0.01080  Biso   1.000  C
  C98      1.0000 0.11590  0.88260  0.23010  Biso   1.000  C
  C99      1.0000 0.32300  0.60920  0.32460  Biso   1.000  C
  H34      1.0000 0.28260  0.65250  0.31480  Biso   1.000  H
  C100     1.0000 0.35220  0.59270  0.38700  Biso   1.000  C
  C101     1.0000 0.26400  0.14540  0.00380  Biso   1.000  C
  H35      1.0000 0.26870  0.05310  0.00240  Biso   1.000  H
  C102     1.0000 0.35540  0.55980  0.27660  Biso   1.000  C
  C103     1.0000 0.05660  0.95060  0.21100  Biso   1.000  C
  H36      1.0000 0.03000  0.97440  0.24040  Biso   1.000  H
  C104     1.0000 0.19500  0.14150  0.89410  Biso   1.000  C
  C105     1.0000 0.97300  0.04700  0.12710  Biso   1.000  C
  C106     1.0000 0.32360  0.58510  0.20950  Biso   1.000  C
  C107     1.0000 0.33360  0.14520  0.11150  Biso   1.000  C
  C108     1.0000 0.50600  0.39900  0.37080  Biso   1.000  C
