data_GAGXAP_clean
_audit_creation_date              2014-07-02
_audit_creation_method            'Materials Studio'
_symmetry_space_group_name_H-M    'P1'
_symmetry_Int_Tables_number       1
_symmetry_cell_setting            triclinic
loop_
_symmetry_equiv_pos_as_xyz
  x,y,z
_cell_length_a                    8.8084
_cell_length_b                    8.8084
_cell_length_c                    40.0780
_cell_angle_alpha                 86.3071
_cell_angle_beta                  86.3071
_cell_angle_gamma                 82.9376
loop_
_atom_site_label
_atom_site_type_symbol
_atom_site_fract_x
_atom_site_fract_y
_atom_site_fract_z
_atom_site_U_iso_or_equiv
_atom_site_adp_type
_atom_site_occupancy
Ni1    Ni    0.74780   0.80464   0.11827   0.01267  Uiso   1.00
Ni2    Ni    0.96858   0.58942   0.16415   0.01267  Uiso   1.00
Ni3    Ni    0.90505   0.13885   0.10462   0.01267  Uiso   1.00
Ni4    Ni    0.19536   0.25220   0.38173   0.01267  Uiso   1.00
Ni5    Ni    0.41058   0.03142   0.33585   0.01267  Uiso   1.00
Ni6    Ni    0.86115   0.09495   0.39538   0.01267  Uiso   1.00
Ni7    Ni    0.25220   0.19536   0.88173   0.01267  Uiso   1.00
Ni8    Ni    0.03142   0.41058   0.83585   0.01267  Uiso   1.00
Ni9    Ni    0.09495   0.86115   0.89538   0.01267  Uiso   1.00
Ni10   Ni    0.80464   0.74780   0.61827   0.01267  Uiso   1.00
Ni11   Ni    0.58942   0.96858   0.66415   0.01267  Uiso   1.00
Ni12   Ni    0.13885   0.90505   0.60462   0.01267  Uiso   1.00
H1     H     0.98890   0.61750   0.96720   0.01267  Uiso   1.00
H2     H     0.32270   0.88070   0.97470   0.01267  Uiso   1.00
H3     H     0.39060   0.30840   0.24750   0.01267  Uiso   1.00
H4     H     0.05680   0.57100   0.29540   0.01267  Uiso   1.00
H5     H     0.00380   0.86260   0.20780   0.01267  Uiso   1.00
H6     H     0.15770   0.91670   0.19210   0.01267  Uiso   1.00
H7     H     0.27380   0.78240   0.14880   0.01267  Uiso   1.00
H8     H     0.36920   0.66020   0.17160   0.01267  Uiso   1.00
H9     H     0.01230   0.71890   0.24690   0.01267  Uiso   1.00
H10    H     0.11450   0.51810   0.93260   0.01267  Uiso   1.00
H11    H     0.29330   0.47930   0.92820   0.01267  Uiso   1.00
H12    H     0.43590   0.65510   0.90920   0.01267  Uiso   1.00
H13    H     0.44140   0.72140   0.94440   0.01267  Uiso   1.00
H14    H     0.34980   0.45740   0.19910   0.01267  Uiso   1.00
H15    H     0.88650   0.68350   0.01900   0.01267  Uiso   1.00
H16    H     0.21660   0.94760   0.02690   0.01267  Uiso   1.00
H17    H     0.38250   0.01110   0.53280   0.01267  Uiso   1.00
H18    H     0.11930   0.67730   0.52530   0.01267  Uiso   1.00
H19    H     0.69160   0.60940   0.25250   0.01267  Uiso   1.00
H20    H     0.42900   0.94320   0.20460   0.01267  Uiso   1.00
H21    H     0.13740   0.99620   0.29220   0.01267  Uiso   1.00
H22    H     0.08330   0.84230   0.30790   0.01267  Uiso   1.00
H23    H     0.21760   0.72620   0.35120   0.01267  Uiso   1.00
H24    H     0.33980   0.63080   0.32840   0.01267  Uiso   1.00
H25    H     0.28110   0.98770   0.25310   0.01267  Uiso   1.00
H26    H     0.48190   0.88550   0.56740   0.01267  Uiso   1.00
H27    H     0.52070   0.70670   0.57180   0.01267  Uiso   1.00
H28    H     0.34490   0.56410   0.59080   0.01267  Uiso   1.00
H29    H     0.27860   0.55860   0.55560   0.01267  Uiso   1.00
H30    H     0.54260   0.65020   0.30090   0.01267  Uiso   1.00
H31    H     0.31650   0.11350   0.48100   0.01267  Uiso   1.00
H32    H     0.05240   0.78340   0.47310   0.01267  Uiso   1.00
H33    H     0.01110   0.38250   0.03280   0.01267  Uiso   1.00
H34    H     0.67730   0.11930   0.02530   0.01267  Uiso   1.00
H35    H     0.60940   0.69160   0.75250   0.01267  Uiso   1.00
H36    H     0.94320   0.42900   0.70460   0.01267  Uiso   1.00
H37    H     0.99620   0.13740   0.79220   0.01267  Uiso   1.00
H38    H     0.84230   0.08330   0.80790   0.01267  Uiso   1.00
H39    H     0.72620   0.21760   0.85120   0.01267  Uiso   1.00
H40    H     0.63080   0.33980   0.82840   0.01267  Uiso   1.00
H41    H     0.98770   0.28110   0.75310   0.01267  Uiso   1.00
H42    H     0.88550   0.48190   0.06740   0.01267  Uiso   1.00
H43    H     0.70670   0.52070   0.07180   0.01267  Uiso   1.00
H44    H     0.56410   0.34490   0.09080   0.01267  Uiso   1.00
H45    H     0.55860   0.27860   0.05560   0.01267  Uiso   1.00
H46    H     0.65020   0.54260   0.80090   0.01267  Uiso   1.00
H47    H     0.11350   0.31650   0.98100   0.01267  Uiso   1.00
H48    H     0.78340   0.05240   0.97310   0.01267  Uiso   1.00
H49    H     0.61750   0.98890   0.46720   0.01267  Uiso   1.00
H50    H     0.88070   0.32270   0.47470   0.01267  Uiso   1.00
H51    H     0.30840   0.39060   0.74750   0.01267  Uiso   1.00
H52    H     0.57100   0.05680   0.79540   0.01267  Uiso   1.00
H53    H     0.86260   0.00380   0.70780   0.01267  Uiso   1.00
H54    H     0.91670   0.15770   0.69210   0.01267  Uiso   1.00
H55    H     0.78240   0.27380   0.64880   0.01267  Uiso   1.00
H56    H     0.66020   0.36920   0.67160   0.01267  Uiso   1.00
H57    H     0.71890   0.01230   0.74690   0.01267  Uiso   1.00
H58    H     0.51810   0.11450   0.43260   0.01267  Uiso   1.00
H59    H     0.47930   0.29330   0.42820   0.01267  Uiso   1.00
H60    H     0.65510   0.43590   0.40920   0.01267  Uiso   1.00
H61    H     0.72140   0.44140   0.44440   0.01267  Uiso   1.00
H62    H     0.45740   0.34980   0.69910   0.01267  Uiso   1.00
H63    H     0.68350   0.88650   0.51900   0.01267  Uiso   1.00
H64    H     0.94760   0.21660   0.52690   0.01267  Uiso   1.00
C1     C     0.03610   0.68390   0.97916   0.01267  Uiso   1.00
C2     C     0.23480   0.84040   0.98341   0.01267  Uiso   1.00
C3     C     0.31440   0.39140   0.24750   0.01267  Uiso   1.00
C4     C     0.22680   0.42300   0.27671   0.01267  Uiso   1.00
C5     C     0.25230   0.31930   0.30747   0.01267  Uiso   1.00
C6     C     0.11580   0.54720   0.27596   0.01267  Uiso   1.00
C7     C     0.00000   0.90760   0.15702   0.01267  Uiso   1.00
C8     C     0.07770   0.85350   0.18883   0.01267  Uiso   1.00
C9     C     0.27350   0.68270   0.16057   0.01267  Uiso   1.00
C10    C     0.17920   0.60560   0.21791   0.01267  Uiso   1.00
C11    C     0.19580   0.55380   0.88397   0.01267  Uiso   1.00
C12    C     0.08990   0.63710   0.24697   0.01267  Uiso   1.00
C13    C     0.20680   0.55140   0.92150   0.01267  Uiso   1.00
C14    C     0.03990   0.82430   0.02837   0.01267  Uiso   1.00
C15    C     0.38800   0.73340   0.92377   0.01267  Uiso   1.00
C16    C     0.29030   0.48110   0.21849   0.01267  Uiso   1.00
C17    C     0.40870   0.88830   0.90710   0.01267  Uiso   1.00
C18    C     0.97400   0.72420   0.01016   0.01267  Uiso   1.00
C19    C     0.17030   0.88090   0.01484   0.01267  Uiso   1.00
C20    C     0.96400   0.87220   0.06132   0.01267  Uiso   1.00
C21    C     0.26760   0.56320   0.13492   0.01267  Uiso   1.00
C22    C     0.16810   0.74050   0.96530   0.01267  Uiso   1.00
C23    C     0.31610   0.96390   0.52084   0.01267  Uiso   1.00
C24    C     0.15960   0.76520   0.51659   0.01267  Uiso   1.00
C25    C     0.60860   0.68560   0.25250   0.01267  Uiso   1.00
C26    C     0.57700   0.77320   0.22329   0.01267  Uiso   1.00
C27    C     0.68070   0.74770   0.19253   0.01267  Uiso   1.00
C28    C     0.45280   0.88420   0.22404   0.01267  Uiso   1.00
C29    C     0.09240   0.00000   0.34298   0.01267  Uiso   1.00
C30    C     0.14650   0.92230   0.31117   0.01267  Uiso   1.00
C31    C     0.31730   0.72650   0.33943   0.01267  Uiso   1.00
C32    C     0.39440   0.82080   0.28209   0.01267  Uiso   1.00
C33    C     0.44620   0.80420   0.61603   0.01267  Uiso   1.00
C34    C     0.36290   0.91010   0.25303   0.01267  Uiso   1.00
C35    C     0.44860   0.79320   0.57850   0.01267  Uiso   1.00
C36    C     0.17570   0.96010   0.47163   0.01267  Uiso   1.00
C37    C     0.26660   0.61200   0.57623   0.01267  Uiso   1.00
C38    C     0.51890   0.70970   0.28151   0.01267  Uiso   1.00
C39    C     0.11170   0.59130   0.59290   0.01267  Uiso   1.00
C40    C     0.27580   0.02600   0.48984   0.01267  Uiso   1.00
C41    C     0.11910   0.82970   0.48516   0.01267  Uiso   1.00
C42    C     0.12780   0.03600   0.43868   0.01267  Uiso   1.00
C43    C     0.43680   0.73240   0.36508   0.01267  Uiso   1.00
C44    C     0.25950   0.83190   0.53470   0.01267  Uiso   1.00
C45    C     0.96390   0.31610   0.02084   0.01267  Uiso   1.00
C46    C     0.76520   0.15960   0.01659   0.01267  Uiso   1.00
C47    C     0.68560   0.60860   0.75250   0.01267  Uiso   1.00
C48    C     0.77320   0.57700   0.72329   0.01267  Uiso   1.00
C49    C     0.74770   0.68070   0.69253   0.01267  Uiso   1.00
C50    C     0.88420   0.45280   0.72404   0.01267  Uiso   1.00
C51    C     0.00000   0.09240   0.84298   0.01267  Uiso   1.00
C52    C     0.92230   0.14650   0.81117   0.01267  Uiso   1.00
C53    C     0.72650   0.31730   0.83943   0.01267  Uiso   1.00
C54    C     0.82080   0.39440   0.78209   0.01267  Uiso   1.00
C55    C     0.80420   0.44620   0.11603   0.01267  Uiso   1.00
C56    C     0.91010   0.36290   0.75303   0.01267  Uiso   1.00
C57    C     0.79320   0.44860   0.07850   0.01267  Uiso   1.00
C58    C     0.96010   0.17570   0.97163   0.01267  Uiso   1.00
C59    C     0.61200   0.26660   0.07623   0.01267  Uiso   1.00
C60    C     0.70970   0.51890   0.78151   0.01267  Uiso   1.00
C61    C     0.59130   0.11170   0.09290   0.01267  Uiso   1.00
C62    C     0.02600   0.27580   0.98984   0.01267  Uiso   1.00
C63    C     0.82970   0.11910   0.98516   0.01267  Uiso   1.00
C64    C     0.03600   0.12780   0.93868   0.01267  Uiso   1.00
C65    C     0.73240   0.43680   0.86508   0.01267  Uiso   1.00
C66    C     0.83190   0.25950   0.03470   0.01267  Uiso   1.00
C67    C     0.68390   0.03610   0.47916   0.01267  Uiso   1.00
C68    C     0.84040   0.23480   0.48341   0.01267  Uiso   1.00
C69    C     0.39140   0.31440   0.74750   0.01267  Uiso   1.00
C70    C     0.42300   0.22680   0.77671   0.01267  Uiso   1.00
C71    C     0.31930   0.25230   0.80747   0.01267  Uiso   1.00
C72    C     0.54720   0.11580   0.77596   0.01267  Uiso   1.00
C73    C     0.90760   0.00000   0.65702   0.01267  Uiso   1.00
C74    C     0.85350   0.07770   0.68883   0.01267  Uiso   1.00
C75    C     0.68270   0.27350   0.66057   0.01267  Uiso   1.00
C76    C     0.60560   0.17920   0.71791   0.01267  Uiso   1.00
C77    C     0.55380   0.19580   0.38397   0.01267  Uiso   1.00
C78    C     0.63710   0.08990   0.74697   0.01267  Uiso   1.00
C79    C     0.55140   0.20680   0.42150   0.01267  Uiso   1.00
C80    C     0.82430   0.03990   0.52837   0.01267  Uiso   1.00
C81    C     0.73340   0.38800   0.42377   0.01267  Uiso   1.00
C82    C     0.48110   0.29030   0.71849   0.01267  Uiso   1.00
C83    C     0.88830   0.40870   0.40710   0.01267  Uiso   1.00
C84    C     0.72420   0.97400   0.51016   0.01267  Uiso   1.00
C85    C     0.88090   0.17030   0.51484   0.01267  Uiso   1.00
C86    C     0.87220   0.96400   0.56132   0.01267  Uiso   1.00
C87    C     0.56320   0.26760   0.63492   0.01267  Uiso   1.00
C88    C     0.74050   0.16810   0.46530   0.01267  Uiso   1.00
N1     N     0.14500   0.69180   0.18667   0.01267  Uiso   1.00
N2     N     0.22610   0.70630   0.93175   0.01267  Uiso   1.00
N3     N     0.30820   0.85500   0.31333   0.01267  Uiso   1.00
N4     N     0.29370   0.77390   0.56825   0.01267  Uiso   1.00
N5     N     0.85500   0.30820   0.81333   0.01267  Uiso   1.00
N6     N     0.77390   0.29370   0.06825   0.01267  Uiso   1.00
N7     N     0.69180   0.14500   0.68667   0.01267  Uiso   1.00
N8     N     0.70630   0.22610   0.43175   0.01267  Uiso   1.00
O1     O     0.98290   0.04670   0.14924   0.01267  Uiso   1.00
O2     O     0.95240   0.80540   0.14092   0.01267  Uiso   1.00
O3     O     0.33950   0.19750   0.30299   0.01267  Uiso   1.00
O4     O     0.18330   0.35910   0.33469   0.01267  Uiso   1.00
O5     O     0.14460   0.50460   0.13360   0.01267  Uiso   1.00
O6     O     0.85860   0.79740   0.07300   0.01267  Uiso   1.00
O7     O     0.19300   0.43020   0.87065   0.01267  Uiso   1.00
O8     O     0.29440   0.95880   0.89147   0.01267  Uiso   1.00
O9     O     0.18300   0.68040   0.86744   0.01267  Uiso   1.00
O10    O     0.01120   0.98400   0.07393   0.01267  Uiso   1.00
O11    O     0.38420   0.53380   0.11654   0.01267  Uiso   1.00
O12    O     0.53540   0.93540   0.90826   0.01267  Uiso   1.00
O13    O     0.95330   0.01710   0.35076   0.01267  Uiso   1.00
O14    O     0.19460   0.04760   0.35908   0.01267  Uiso   1.00
O15    O     0.80250   0.66050   0.19701   0.01267  Uiso   1.00
O16    O     0.64090   0.81670   0.16531   0.01267  Uiso   1.00
O17    O     0.49540   0.85540   0.36640   0.01267  Uiso   1.00
O18    O     0.20260   0.14140   0.42700   0.01267  Uiso   1.00
O19    O     0.56980   0.80700   0.62935   0.01267  Uiso   1.00
O20    O     0.04120   0.70560   0.60853   0.01267  Uiso   1.00
O21    O     0.31960   0.81700   0.63256   0.01267  Uiso   1.00
O22    O     0.01600   0.98880   0.42607   0.01267  Uiso   1.00
O23    O     0.46620   0.61580   0.38346   0.01267  Uiso   1.00
O24    O     0.06460   0.46460   0.59174   0.01267  Uiso   1.00
O25    O     0.01710   0.95330   0.85076   0.01267  Uiso   1.00
O26    O     0.04760   0.19460   0.85908   0.01267  Uiso   1.00
O27    O     0.66050   0.80250   0.69701   0.01267  Uiso   1.00
O28    O     0.81670   0.64090   0.66531   0.01267  Uiso   1.00
O29    O     0.85540   0.49540   0.86640   0.01267  Uiso   1.00
O30    O     0.14140   0.20260   0.92700   0.01267  Uiso   1.00
O31    O     0.80700   0.56980   0.12935   0.01267  Uiso   1.00
O32    O     0.70560   0.04120   0.10853   0.01267  Uiso   1.00
O33    O     0.81700   0.31960   0.13256   0.01267  Uiso   1.00
O34    O     0.98880   0.01600   0.92607   0.01267  Uiso   1.00
O35    O     0.61580   0.46620   0.88346   0.01267  Uiso   1.00
O36    O     0.46460   0.06460   0.09174   0.01267  Uiso   1.00
O37    O     0.04670   0.98290   0.64924   0.01267  Uiso   1.00
O38    O     0.80540   0.95240   0.64092   0.01267  Uiso   1.00
O39    O     0.19750   0.33950   0.80299   0.01267  Uiso   1.00
O40    O     0.35910   0.18330   0.83469   0.01267  Uiso   1.00
O41    O     0.50460   0.14460   0.63360   0.01267  Uiso   1.00
O42    O     0.79740   0.85860   0.57300   0.01267  Uiso   1.00
O43    O     0.43020   0.19300   0.37065   0.01267  Uiso   1.00
O44    O     0.95880   0.29440   0.39147   0.01267  Uiso   1.00
O45    O     0.68040   0.18300   0.36744   0.01267  Uiso   1.00
O46    O     0.98400   0.01120   0.57393   0.01267  Uiso   1.00
O47    O     0.53380   0.38420   0.61654   0.01267  Uiso   1.00
O48    O     0.93540   0.53540   0.40826   0.01267  Uiso   1.00
