data_GAJTUI_clean
_audit_creation_date              2014-07-02
_audit_creation_method            'Materials Studio'
_symmetry_space_group_name_H-M    'P1'
_symmetry_Int_Tables_number       1
_symmetry_cell_setting            triclinic
loop_
_symmetry_equiv_pos_as_xyz
  x,y,z
_cell_length_a                    12.8399
_cell_length_b                    12.8399
_cell_length_c                    34.8725
_cell_angle_alpha                 82.4035
_cell_angle_beta                  82.4035
_cell_angle_gamma                 63.7165
loop_
_atom_site_label
_atom_site_type_symbol
_atom_site_fract_x
_atom_site_fract_y
_atom_site_fract_z
_atom_site_U_iso_or_equiv
_atom_site_adp_type
_atom_site_occupancy
Tb1    Tb    0.79635   0.63792   0.44116   0.01267  Uiso   1.00
Tb2    Tb    0.86978   0.65054   0.31586   0.01267  Uiso   1.00
Tb3    Tb    0.63792   0.79635   0.94116   0.01267  Uiso   1.00
Tb4    Tb    0.65054   0.86978   0.81586   0.01267  Uiso   1.00
H1     H     0.87320   0.95280   0.43610   0.01267  Uiso   1.00
H2     H     0.93840   0.09800   0.43130   0.01267  Uiso   1.00
H3     H     0.99650   0.89850   0.32630   0.01267  Uiso   1.00
H4     H     0.38490   0.04650   0.29020   0.01267  Uiso   1.00
H5     H     0.55960   0.90100   0.30860   0.01267  Uiso   1.00
H6     H     0.41060   0.88960   0.41580   0.01267  Uiso   1.00
H7     H     0.44990   0.67350   0.71260   0.01267  Uiso   1.00
H8     H     0.52010   0.49510   0.68680   0.01267  Uiso   1.00
H9     H     0.75490   0.56630   0.75700   0.01267  Uiso   1.00
H10    H     0.51080   0.38780   0.59470   0.01267  Uiso   1.00
H11    H     0.54560   0.47880   0.53550   0.01267  Uiso   1.00
H12    H     0.86770   0.38570   0.56260   0.01267  Uiso   1.00
H13    H     0.23880   0.39400   0.33590   0.01267  Uiso   1.00
H14    H     0.41890   0.24330   0.34800   0.01267  Uiso   1.00
H15    H     0.14080   0.36600   0.44860   0.01267  Uiso   1.00
H16    H     0.60780   0.24320   0.43020   0.01267  Uiso   1.00
H17    H     0.67270   0.38390   0.42990   0.01267  Uiso   1.00
H18    H     0.79800   0.33600   0.32010   0.01267  Uiso   1.00
H19    H     0.95280   0.87320   0.93610   0.01267  Uiso   1.00
H20    H     0.09800   0.93840   0.93130   0.01267  Uiso   1.00
H21    H     0.89850   0.99650   0.82630   0.01267  Uiso   1.00
H22    H     0.04650   0.38490   0.79020   0.01267  Uiso   1.00
H23    H     0.90100   0.55960   0.80860   0.01267  Uiso   1.00
H24    H     0.88960   0.41060   0.91580   0.01267  Uiso   1.00
H25    H     0.67350   0.44990   0.21260   0.01267  Uiso   1.00
H26    H     0.49510   0.52010   0.18680   0.01267  Uiso   1.00
H27    H     0.56630   0.75490   0.25700   0.01267  Uiso   1.00
H28    H     0.38780   0.51080   0.09470   0.01267  Uiso   1.00
H29    H     0.47880   0.54560   0.03550   0.01267  Uiso   1.00
H30    H     0.38570   0.86770   0.06260   0.01267  Uiso   1.00
H31    H     0.39400   0.23880   0.83590   0.01267  Uiso   1.00
H32    H     0.24330   0.41890   0.84800   0.01267  Uiso   1.00
H33    H     0.36600   0.14080   0.94860   0.01267  Uiso   1.00
H34    H     0.24320   0.60780   0.93020   0.01267  Uiso   1.00
H35    H     0.38390   0.67270   0.92990   0.01267  Uiso   1.00
H36    H     0.33600   0.79800   0.82010   0.01267  Uiso   1.00
C1     C     0.88600   0.81800   0.38027   0.01267  Uiso   1.00
C2     C     0.92750   0.91070   0.38080   0.01267  Uiso   1.00
C3     C     0.91030   0.96990   0.41307   0.01267  Uiso   1.00
C4     C     0.94980   0.05540   0.41029   0.01267  Uiso   1.00
C5     C     0.00550   0.07570   0.37628   0.01267  Uiso   1.00
C6     C     0.98420   0.93900   0.34794   0.01267  Uiso   1.00
C7     C     0.29840   0.04940   0.34296   0.01267  Uiso   1.00
C8     C     0.39190   0.01310   0.31562   0.01267  Uiso   1.00
C9     C     0.49520   0.92720   0.32661   0.01267  Uiso   1.00
C10    C     0.50420   0.87860   0.36471   0.01267  Uiso   1.00
C11    C     0.40530   0.92130   0.39013   0.01267  Uiso   1.00
C12    C     0.61580   0.78460   0.37806   0.01267  Uiso   1.00
C13    C     0.55770   0.75730   0.75264   0.01267  Uiso   1.00
C14    C     0.59610   0.64170   0.73731   0.01267  Uiso   1.00
C15    C     0.52530   0.61750   0.71636   0.01267  Uiso   1.00
C16    C     0.56620   0.51140   0.70125   0.01267  Uiso   1.00
C17    C     0.67800   0.42960   0.70829   0.01267  Uiso   1.00
C18    C     0.70660   0.55280   0.74263   0.01267  Uiso   1.00
C19    C     0.66850   0.34290   0.61232   0.01267  Uiso   1.00
C20    C     0.58220   0.39060   0.58794   0.01267  Uiso   1.00
C21    C     0.60370   0.44350   0.55258   0.01267  Uiso   1.00
C22    C     0.71070   0.44410   0.54265   0.01267  Uiso   1.00
C23    C     0.79390   0.38870   0.56914   0.01267  Uiso   1.00
C24    C     0.73730   0.50450   0.50555   0.01267  Uiso   1.00
C25    C     0.05030   0.49130   0.38518   0.01267  Uiso   1.00
C26    C     0.16830   0.39630   0.39153   0.01267  Uiso   1.00
C27    C     0.25400   0.35900   0.36096   0.01267  Uiso   1.00
C28    C     0.36080   0.27040   0.36805   0.01267  Uiso   1.00
C29    C     0.38060   0.22180   0.40586   0.01267  Uiso   1.00
C30    C     0.19730   0.34170   0.42789   0.01267  Uiso   1.00
C31    C     0.66910   0.20670   0.37571   0.01267  Uiso   1.00
C32    C     0.64740   0.26180   0.40817   0.01267  Uiso   1.00
C33    C     0.68560   0.34560   0.40770   0.01267  Uiso   1.00
C34    C     0.74250   0.37450   0.37507   0.01267  Uiso   1.00
C35    C     0.78380   0.46740   0.37503   0.01267  Uiso   1.00
C36    C     0.76070   0.31630   0.34261   0.01267  Uiso   1.00
C37    C     0.81800   0.88600   0.88027   0.01267  Uiso   1.00
C38    C     0.91070   0.92750   0.88080   0.01267  Uiso   1.00
C39    C     0.96990   0.91030   0.91307   0.01267  Uiso   1.00
C40    C     0.05540   0.94980   0.91029   0.01267  Uiso   1.00
C41    C     0.07570   0.00550   0.87628   0.01267  Uiso   1.00
C42    C     0.93900   0.98420   0.84794   0.01267  Uiso   1.00
C43    C     0.04940   0.29840   0.84296   0.01267  Uiso   1.00
C44    C     0.01310   0.39190   0.81562   0.01267  Uiso   1.00
C45    C     0.92720   0.49520   0.82661   0.01267  Uiso   1.00
C46    C     0.87860   0.50420   0.86471   0.01267  Uiso   1.00
C47    C     0.92130   0.40530   0.89013   0.01267  Uiso   1.00
C48    C     0.78460   0.61580   0.87806   0.01267  Uiso   1.00
C49    C     0.75730   0.55770   0.25264   0.01267  Uiso   1.00
C50    C     0.64170   0.59610   0.23731   0.01267  Uiso   1.00
C51    C     0.61750   0.52530   0.21636   0.01267  Uiso   1.00
C52    C     0.51140   0.56620   0.20125   0.01267  Uiso   1.00
C53    C     0.42960   0.67800   0.20829   0.01267  Uiso   1.00
C54    C     0.55280   0.70660   0.24263   0.01267  Uiso   1.00
C55    C     0.34290   0.66850   0.11232   0.01267  Uiso   1.00
C56    C     0.39060   0.58220   0.08794   0.01267  Uiso   1.00
C57    C     0.44350   0.60370   0.05258   0.01267  Uiso   1.00
C58    C     0.44410   0.71070   0.04265   0.01267  Uiso   1.00
C59    C     0.38870   0.79390   0.06914   0.01267  Uiso   1.00
C60    C     0.50450   0.73730   0.00555   0.01267  Uiso   1.00
C61    C     0.49130   0.05030   0.88518   0.01267  Uiso   1.00
C62    C     0.39630   0.16830   0.89153   0.01267  Uiso   1.00
C63    C     0.35900   0.25400   0.86096   0.01267  Uiso   1.00
C64    C     0.27040   0.36080   0.86805   0.01267  Uiso   1.00
C65    C     0.22180   0.38060   0.90586   0.01267  Uiso   1.00
C66    C     0.34170   0.19730   0.92789   0.01267  Uiso   1.00
C67    C     0.20670   0.66910   0.87571   0.01267  Uiso   1.00
C68    C     0.26180   0.64740   0.90817   0.01267  Uiso   1.00
C69    C     0.34560   0.68560   0.90770   0.01267  Uiso   1.00
C70    C     0.37450   0.74250   0.87507   0.01267  Uiso   1.00
C71    C     0.46740   0.78380   0.87503   0.01267  Uiso   1.00
C72    C     0.31630   0.76070   0.84261   0.01267  Uiso   1.00
S1     S     0.05136   0.19034   0.37393   0.01267  Uiso   1.00
S2     S     0.16625   0.16259   0.32675   0.01267  Uiso   1.00
S3     S     0.51375   0.10499   0.41972   0.01267  Uiso   1.00
S4     S     0.62721   0.09251   0.37250   0.01267  Uiso   1.00
S5     S     0.74785   0.28603   0.69277   0.01267  Uiso   1.00
S6     S     0.63574   0.27844   0.65864   0.01267  Uiso   1.00
S7     S     0.19034   0.05136   0.87393   0.01267  Uiso   1.00
S8     S     0.16259   0.16625   0.82675   0.01267  Uiso   1.00
S9     S     0.10499   0.51375   0.91972   0.01267  Uiso   1.00
S10    S     0.09251   0.62721   0.87250   0.01267  Uiso   1.00
S11    S     0.28603   0.74785   0.19277   0.01267  Uiso   1.00
S12    S     0.27844   0.63574   0.15864   0.01267  Uiso   1.00
N1     N     0.74749   0.44929   0.72842   0.01267  Uiso   1.00
N2     N     0.77320   0.33860   0.60412   0.01267  Uiso   1.00
N3     N     0.02310   0.02110   0.34477   0.01267  Uiso   1.00
N4     N     0.30230   0.00570   0.38009   0.01267  Uiso   1.00
N5     N     0.30100   0.25660   0.43522   0.01267  Uiso   1.00
N6     N     0.72550   0.23010   0.34257   0.01267  Uiso   1.00
N7     N     0.44929   0.74749   0.22842   0.01267  Uiso   1.00
N8     N     0.33860   0.77320   0.10412   0.01267  Uiso   1.00
N9     N     0.02110   0.02310   0.84477   0.01267  Uiso   1.00
N10    N     0.00570   0.30230   0.88009   0.01267  Uiso   1.00
N11    N     0.25660   0.30100   0.93522   0.01267  Uiso   1.00
N12    N     0.23010   0.72550   0.84257   0.01267  Uiso   1.00
O1     O     0.89641   0.78021   0.34830   0.01267  Uiso   1.00
O2     O     0.84243   0.78703   0.41145   0.01267  Uiso   1.00
O3     O     0.69721   0.73701   0.35320   0.01267  Uiso   1.00
O4     O     0.62193   0.75833   0.41378   0.01267  Uiso   1.00
O5     O     0.02838   0.53018   0.35087   0.01267  Uiso   1.00
O6     O     0.98133   0.52653   0.41445   0.01267  Uiso   1.00
O7     O     0.82503   0.49703   0.34352   0.01267  Uiso   1.00
O8     O     0.77329   0.50789   0.40666   0.01267  Uiso   1.00
O9     O     0.63531   0.77291   0.76676   0.01267  Uiso   1.00
O10    O     0.45511   0.83151   0.74998   0.01267  Uiso   1.00
O11    O     0.84059   0.48699   0.49466   0.01267  Uiso   1.00
O12    O     0.65590   0.57370   0.48556   0.01267  Uiso   1.00
O13    O     0.78021   0.89641   0.84830   0.01267  Uiso   1.00
O14    O     0.78703   0.84243   0.91145   0.01267  Uiso   1.00
O15    O     0.73701   0.69721   0.85320   0.01267  Uiso   1.00
O16    O     0.75833   0.62193   0.91378   0.01267  Uiso   1.00
O17    O     0.53018   0.02838   0.85087   0.01267  Uiso   1.00
O18    O     0.52653   0.98133   0.91445   0.01267  Uiso   1.00
O19    O     0.49703   0.82503   0.84352   0.01267  Uiso   1.00
O20    O     0.50789   0.77329   0.90666   0.01267  Uiso   1.00
O21    O     0.77291   0.63531   0.26676   0.01267  Uiso   1.00
O22    O     0.83151   0.45511   0.24998   0.01267  Uiso   1.00
O23    O     0.48699   0.84059   0.99466   0.01267  Uiso   1.00
O24    O     0.57370   0.65590   0.98556   0.01267  Uiso   1.00
Tb5    Tb    0.36208   0.20365   0.05884   0.01267  Uiso   1.00
Tb6    Tb    0.34946   0.13022   0.18414   0.01267  Uiso   1.00
Tb7    Tb    0.20365   0.36208   0.55884   0.01267  Uiso   1.00
Tb8    Tb    0.13022   0.34946   0.68414   0.01267  Uiso   1.00
H37    H     0.04720   0.12680   0.06390   0.01267  Uiso   1.00
H38    H     0.90200   0.06160   0.06870   0.01267  Uiso   1.00
H39    H     0.10150   0.00350   0.17370   0.01267  Uiso   1.00
H40    H     0.95350   0.61510   0.20980   0.01267  Uiso   1.00
H41    H     0.09900   0.44040   0.19140   0.01267  Uiso   1.00
H42    H     0.11040   0.58940   0.08420   0.01267  Uiso   1.00
H43    H     0.32650   0.55010   0.78740   0.01267  Uiso   1.00
H44    H     0.50490   0.47990   0.81320   0.01267  Uiso   1.00
H45    H     0.43370   0.24510   0.74300   0.01267  Uiso   1.00
H46    H     0.61220   0.48920   0.90530   0.01267  Uiso   1.00
H47    H     0.52120   0.45440   0.96450   0.01267  Uiso   1.00
H48    H     0.61430   0.13230   0.93740   0.01267  Uiso   1.00
H49    H     0.60600   0.76120   0.16410   0.01267  Uiso   1.00
H50    H     0.75670   0.58110   0.15200   0.01267  Uiso   1.00
H51    H     0.63400   0.85920   0.05140   0.01267  Uiso   1.00
H52    H     0.75680   0.39220   0.06980   0.01267  Uiso   1.00
H53    H     0.61610   0.32730   0.07010   0.01267  Uiso   1.00
H54    H     0.66400   0.20200   0.17990   0.01267  Uiso   1.00
H55    H     0.12680   0.04720   0.56390   0.01267  Uiso   1.00
H56    H     0.06160   0.90200   0.56870   0.01267  Uiso   1.00
H57    H     0.00350   0.10150   0.67370   0.01267  Uiso   1.00
H58    H     0.61510   0.95350   0.70980   0.01267  Uiso   1.00
H59    H     0.44040   0.09900   0.69140   0.01267  Uiso   1.00
H60    H     0.58940   0.11040   0.58420   0.01267  Uiso   1.00
H61    H     0.55010   0.32650   0.28740   0.01267  Uiso   1.00
H62    H     0.47990   0.50490   0.31320   0.01267  Uiso   1.00
H63    H     0.24510   0.43370   0.24300   0.01267  Uiso   1.00
H64    H     0.48920   0.61220   0.40530   0.01267  Uiso   1.00
H65    H     0.45440   0.52120   0.46450   0.01267  Uiso   1.00
H66    H     0.13230   0.61430   0.43740   0.01267  Uiso   1.00
H67    H     0.76120   0.60600   0.66410   0.01267  Uiso   1.00
H68    H     0.58110   0.75670   0.65200   0.01267  Uiso   1.00
H69    H     0.85920   0.63400   0.55140   0.01267  Uiso   1.00
H70    H     0.39220   0.75680   0.56980   0.01267  Uiso   1.00
H71    H     0.32730   0.61610   0.57010   0.01267  Uiso   1.00
H72    H     0.20200   0.66400   0.67990   0.01267  Uiso   1.00
C73    C     0.18200   0.11400   0.11973   0.01267  Uiso   1.00
C74    C     0.08930   0.07250   0.11920   0.01267  Uiso   1.00
C75    C     0.03010   0.08970   0.08693   0.01267  Uiso   1.00
C76    C     0.94460   0.05020   0.08971   0.01267  Uiso   1.00
C77    C     0.92430   0.99450   0.12372   0.01267  Uiso   1.00
C78    C     0.06100   0.01580   0.15206   0.01267  Uiso   1.00
C79    C     0.95060   0.70160   0.15704   0.01267  Uiso   1.00
C80    C     0.98690   0.60810   0.18438   0.01267  Uiso   1.00
C81    C     0.07280   0.50480   0.17339   0.01267  Uiso   1.00
C82    C     0.12140   0.49580   0.13529   0.01267  Uiso   1.00
C83    C     0.07870   0.59470   0.10987   0.01267  Uiso   1.00
C84    C     0.21540   0.38420   0.12194   0.01267  Uiso   1.00
C85    C     0.24270   0.44230   0.74736   0.01267  Uiso   1.00
C86    C     0.35830   0.40390   0.76269   0.01267  Uiso   1.00
C87    C     0.38250   0.47470   0.78364   0.01267  Uiso   1.00
C88    C     0.48860   0.43380   0.79875   0.01267  Uiso   1.00
C89    C     0.57040   0.32200   0.79171   0.01267  Uiso   1.00
C90    C     0.44720   0.29340   0.75737   0.01267  Uiso   1.00
C91    C     0.65710   0.33150   0.88768   0.01267  Uiso   1.00
C92    C     0.60940   0.41780   0.91206   0.01267  Uiso   1.00
C93    C     0.55650   0.39630   0.94742   0.01267  Uiso   1.00
C94    C     0.55590   0.28930   0.95735   0.01267  Uiso   1.00
C95    C     0.61130   0.20610   0.93086   0.01267  Uiso   1.00
C96    C     0.49550   0.26270   0.99445   0.01267  Uiso   1.00
C97    C     0.50870   0.94970   0.11482   0.01267  Uiso   1.00
C98    C     0.60370   0.83170   0.10847   0.01267  Uiso   1.00
C99    C     0.64100   0.74600   0.13904   0.01267  Uiso   1.00
C100   C     0.72960   0.63920   0.13195   0.01267  Uiso   1.00
C101   C     0.77820   0.61940   0.09414   0.01267  Uiso   1.00
C102   C     0.65830   0.80270   0.07211   0.01267  Uiso   1.00
C103   C     0.79330   0.33090   0.12429   0.01267  Uiso   1.00
C104   C     0.73820   0.35260   0.09183   0.01267  Uiso   1.00
C105   C     0.65440   0.31440   0.09230   0.01267  Uiso   1.00
C106   C     0.62550   0.25750   0.12493   0.01267  Uiso   1.00
C107   C     0.53260   0.21620   0.12497   0.01267  Uiso   1.00
C108   C     0.68370   0.23930   0.15739   0.01267  Uiso   1.00
C109   C     0.11400   0.18200   0.61973   0.01267  Uiso   1.00
C110   C     0.07250   0.08930   0.61920   0.01267  Uiso   1.00
C111   C     0.08970   0.03010   0.58693   0.01267  Uiso   1.00
C112   C     0.05020   0.94460   0.58971   0.01267  Uiso   1.00
C113   C     0.99450   0.92430   0.62372   0.01267  Uiso   1.00
C114   C     0.01580   0.06100   0.65206   0.01267  Uiso   1.00
C115   C     0.70160   0.95060   0.65704   0.01267  Uiso   1.00
C116   C     0.60810   0.98690   0.68438   0.01267  Uiso   1.00
C117   C     0.50480   0.07280   0.67339   0.01267  Uiso   1.00
C118   C     0.49580   0.12140   0.63529   0.01267  Uiso   1.00
C119   C     0.59470   0.07870   0.60987   0.01267  Uiso   1.00
C120   C     0.38420   0.21540   0.62194   0.01267  Uiso   1.00
C121   C     0.44230   0.24270   0.24736   0.01267  Uiso   1.00
C122   C     0.40390   0.35830   0.26269   0.01267  Uiso   1.00
C123   C     0.47470   0.38250   0.28364   0.01267  Uiso   1.00
C124   C     0.43380   0.48860   0.29875   0.01267  Uiso   1.00
C125   C     0.32200   0.57040   0.29171   0.01267  Uiso   1.00
C126   C     0.29340   0.44720   0.25737   0.01267  Uiso   1.00
C127   C     0.33150   0.65710   0.38768   0.01267  Uiso   1.00
C128   C     0.41780   0.60940   0.41206   0.01267  Uiso   1.00
C129   C     0.39630   0.55650   0.44742   0.01267  Uiso   1.00
C130   C     0.28930   0.55590   0.45735   0.01267  Uiso   1.00
C131   C     0.20610   0.61130   0.43086   0.01267  Uiso   1.00
C132   C     0.26270   0.49550   0.49445   0.01267  Uiso   1.00
C133   C     0.94970   0.50870   0.61482   0.01267  Uiso   1.00
C134   C     0.83170   0.60370   0.60847   0.01267  Uiso   1.00
C135   C     0.74600   0.64100   0.63904   0.01267  Uiso   1.00
C136   C     0.63920   0.72960   0.63195   0.01267  Uiso   1.00
C137   C     0.61940   0.77820   0.59414   0.01267  Uiso   1.00
C138   C     0.80270   0.65830   0.57211   0.01267  Uiso   1.00
C139   C     0.33090   0.79330   0.62429   0.01267  Uiso   1.00
C140   C     0.35260   0.73820   0.59183   0.01267  Uiso   1.00
C141   C     0.31440   0.65440   0.59230   0.01267  Uiso   1.00
C142   C     0.25750   0.62550   0.62493   0.01267  Uiso   1.00
C143   C     0.21620   0.53260   0.62497   0.01267  Uiso   1.00
C144   C     0.23930   0.68370   0.65739   0.01267  Uiso   1.00
S13    S     0.80966   0.94864   0.12607   0.01267  Uiso   1.00
S14    S     0.83741   0.83375   0.17325   0.01267  Uiso   1.00
S15    S     0.89501   0.48625   0.08028   0.01267  Uiso   1.00
S16    S     0.90749   0.37279   0.12750   0.01267  Uiso   1.00
S17    S     0.71397   0.25215   0.80723   0.01267  Uiso   1.00
S18    S     0.72156   0.36426   0.84136   0.01267  Uiso   1.00
S19    S     0.94864   0.80966   0.62607   0.01267  Uiso   1.00
S20    S     0.83375   0.83741   0.67325   0.01267  Uiso   1.00
S21    S     0.48625   0.89501   0.58028   0.01267  Uiso   1.00
S22    S     0.37279   0.90749   0.62750   0.01267  Uiso   1.00
S23    S     0.25215   0.71397   0.30723   0.01267  Uiso   1.00
S24    S     0.36426   0.72156   0.34136   0.01267  Uiso   1.00
N13    N     0.55071   0.25251   0.77158   0.01267  Uiso   1.00
N14    N     0.66140   0.22680   0.89588   0.01267  Uiso   1.00
N15    N     0.97890   0.97690   0.15523   0.01267  Uiso   1.00
N16    N     0.99430   0.69770   0.11991   0.01267  Uiso   1.00
N17    N     0.74340   0.69900   0.06478   0.01267  Uiso   1.00
N18    N     0.76990   0.27450   0.15743   0.01267  Uiso   1.00
N19    N     0.25251   0.55071   0.27158   0.01267  Uiso   1.00
N20    N     0.22680   0.66140   0.39588   0.01267  Uiso   1.00
N21    N     0.97690   0.97890   0.65523   0.01267  Uiso   1.00
N22    N     0.69770   0.99430   0.61991   0.01267  Uiso   1.00
N23    N     0.69900   0.74340   0.56478   0.01267  Uiso   1.00
N24    N     0.27450   0.76990   0.65743   0.01267  Uiso   1.00
O25    O     0.21979   0.10359   0.15170   0.01267  Uiso   1.00
O26    O     0.21297   0.15757   0.08855   0.01267  Uiso   1.00
O27    O     0.26299   0.30279   0.14680   0.01267  Uiso   1.00
O28    O     0.24167   0.37807   0.08622   0.01267  Uiso   1.00
O29    O     0.46982   0.97162   0.14913   0.01267  Uiso   1.00
O30    O     0.47347   0.01867   0.08555   0.01267  Uiso   1.00
O31    O     0.50297   0.17497   0.15648   0.01267  Uiso   1.00
O32    O     0.49211   0.22671   0.09334   0.01267  Uiso   1.00
O33    O     0.22709   0.36469   0.73324   0.01267  Uiso   1.00
O34    O     0.16849   0.54489   0.75002   0.01267  Uiso   1.00
O35    O     0.51301   0.15941   0.00534   0.01267  Uiso   1.00
O36    O     0.42630   0.34410   0.01444   0.01267  Uiso   1.00
O37    O     0.10359   0.21979   0.65170   0.01267  Uiso   1.00
O38    O     0.15757   0.21297   0.58855   0.01267  Uiso   1.00
O39    O     0.30279   0.26299   0.64680   0.01267  Uiso   1.00
O40    O     0.37807   0.24167   0.58622   0.01267  Uiso   1.00
O41    O     0.97162   0.46982   0.64913   0.01267  Uiso   1.00
O42    O     0.01867   0.47347   0.58555   0.01267  Uiso   1.00
O43    O     0.17497   0.50297   0.65648   0.01267  Uiso   1.00
O44    O     0.22671   0.49211   0.59334   0.01267  Uiso   1.00
O45    O     0.36469   0.22709   0.23324   0.01267  Uiso   1.00
O46    O     0.54489   0.16849   0.25002   0.01267  Uiso   1.00
O47    O     0.15941   0.51301   0.50534   0.01267  Uiso   1.00
O48    O     0.34410   0.42630   0.51444   0.01267  Uiso   1.00
