data_GAJVEU_charged
_audit_creation_date              2014-07-02
_audit_creation_method            'Materials Studio'
_symmetry_space_group_name_H-M    'P1'
_symmetry_Int_Tables_number       1
_symmetry_cell_setting            triclinic
loop_
_symmetry_equiv_pos_as_xyz
  x,y,z
_cell_length_a                    9.5959
_cell_length_b                    17.2532
_cell_length_c                    18.4950
_cell_angle_alpha                 90.4486
_cell_angle_beta                  90.0000
_cell_angle_gamma                 106.1460
loop_
_atom_site_label
_atom_site_type_symbol
_atom_site_fract_x
_atom_site_fract_y
_atom_site_fract_z
_atom_site_U_iso_or_equiv
_atom_site_adp_type
_atom_site_occupancy
Zn1    Zn    0.55720   0.69330   0.99568   0.01267  Uiso   1.00
Zn2    Zn    0.86390   0.30670   0.50432   0.01267  Uiso   1.00
Zn3    Zn    0.44280   0.30670   0.00432   0.01267  Uiso   1.00
Zn4    Zn    0.13610   0.69330   0.49568   0.01267  Uiso   1.00
Zn5    Zn    0.50000   0.50000  -0.00000   0.01267  Uiso   1.00
Zn6    Zn    0.00000   0.50000   0.50000   0.01267  Uiso   1.00
H1     H     0.84090   0.73500   0.81540   0.01267  Uiso   1.00
H2     H     0.95200   0.74080   0.70150   0.01267  Uiso   1.00
H3     H     0.75900   0.50280   0.66920   0.01267  Uiso   1.00
H4     H     0.65130   0.49620   0.78330   0.01267  Uiso   1.00
H5     H     0.33400   0.92060   0.07920   0.01267  Uiso   1.00
H6     H     0.66100   0.94340   0.93770   0.01267  Uiso   1.00
H7     H     0.04000   0.56480   0.88770   0.01267  Uiso   1.00
H8     H     0.19210   0.51420   0.08200   0.01267  Uiso   1.00
H9     H     0.10590   0.26500   0.68460   0.01267  Uiso   1.00
H10    H     0.21120   0.25920   0.79850   0.01267  Uiso   1.00
H11    H     0.25620   0.49720   0.83080   0.01267  Uiso   1.00
H12    H     0.15510   0.50380   0.71670   0.01267  Uiso   1.00
H13    H     0.41340   0.07940   0.42080   0.01267  Uiso   1.00
H14    H     0.71760   0.05660   0.56230   0.01267  Uiso   1.00
H15    H     0.47520   0.43520   0.61230   0.01267  Uiso   1.00
H16    H     0.67790   0.48580   0.41800   0.01267  Uiso   1.00
H17    H     0.15910   0.26500   0.18460   0.01267  Uiso   1.00
H18    H     0.04800   0.25920   0.29850   0.01267  Uiso   1.00
H19    H     0.24100   0.49720   0.33080   0.01267  Uiso   1.00
H20    H     0.34870   0.50380   0.21670   0.01267  Uiso   1.00
H21    H     0.66600   0.07940   0.92080   0.01267  Uiso   1.00
H22    H     0.33900   0.05660   0.06230   0.01267  Uiso   1.00
H23    H     0.96000   0.43520   0.11230   0.01267  Uiso   1.00
H24    H     0.80790   0.48580   0.91800   0.01267  Uiso   1.00
H25    H     0.89410   0.73500   0.31540   0.01267  Uiso   1.00
H26    H     0.78880   0.74080   0.20150   0.01267  Uiso   1.00
H27    H     0.74380   0.50280   0.16920   0.01267  Uiso   1.00
H28    H     0.84490   0.49620   0.28330   0.01267  Uiso   1.00
H29    H     0.58660   0.92060   0.57920   0.01267  Uiso   1.00
H30    H     0.28240   0.94340   0.43770   0.01267  Uiso   1.00
H31    H     0.52480   0.56480   0.38770   0.01267  Uiso   1.00
H32    H     0.32210   0.51420   0.58200   0.01267  Uiso   1.00
C1     C     0.66320   0.61120   0.88193   0.01267  Uiso   1.00
C2     C     0.73658   0.61516   0.81000   0.01267  Uiso   1.00
C3     C     0.82502   0.68784   0.78620   0.01267  Uiso   1.00
C4     C     0.89085   0.69110   0.71830   0.01267  Uiso   1.00
C5     C     0.86762   0.62244   0.67540   0.01267  Uiso   1.00
C6     C     0.77681   0.54962   0.69900   0.01267  Uiso   1.00
C7     C     0.71231   0.54602   0.76650   0.01267  Uiso   1.00
C8     C     0.93879   0.62678   0.60269   0.01267  Uiso   1.00
C9     C     0.48230   0.83020   0.01660   0.01267  Uiso   1.00
C10    C     0.49100   0.91860   0.00800   0.01267  Uiso   1.00
C11    C     0.40110   0.95280   0.04610   0.01267  Uiso   1.00
C12    C     0.59440   0.96580   0.96260   0.01267  Uiso   1.00
C13    C     0.28583   0.59846   0.96150   0.01267  Uiso   1.00
C14    C     0.13832   0.54624   0.98240   0.01267  Uiso   1.00
C15    C     0.02324   0.53828   0.93300   0.01267  Uiso   1.00
C16    C     0.11414   0.50828   0.04880   0.01267  Uiso   1.00
C17    C     0.05200   0.38880   0.61807   0.01267  Uiso   1.00
C18    C     0.12142   0.38484   0.69000   0.01267  Uiso   1.00
C19    C     0.13718   0.31216   0.71380   0.01267  Uiso   1.00
C20    C     0.19975   0.30890   0.78170   0.01267  Uiso   1.00
C21    C     0.24518   0.37756   0.82460   0.01267  Uiso   1.00
C22    C     0.22719   0.45038   0.80100   0.01267  Uiso   1.00
C23    C     0.16629   0.45398   0.73350   0.01267  Uiso   1.00
C24    C     0.31201   0.37322   0.89731   0.01267  Uiso   1.00
C25    C     0.65210   0.16980   0.48340   0.01267  Uiso   1.00
C26    C     0.57240   0.08140   0.49200   0.01267  Uiso   1.00
C27    C     0.44830   0.04720   0.45390   0.01267  Uiso   1.00
C28    C     0.62860   0.03420   0.53740   0.01267  Uiso   1.00
C29    C     0.68737   0.40154   0.53850   0.01267  Uiso   1.00
C30    C     0.59208   0.45376   0.51760   0.01267  Uiso   1.00
C31    C     0.48496   0.46172   0.56700   0.01267  Uiso   1.00
C32    C     0.60586   0.49172   0.45120   0.01267  Uiso   1.00
C33    C     0.33680   0.38880   0.11807   0.01267  Uiso   1.00
C34    C     0.26342   0.38484   0.19000   0.01267  Uiso   1.00
C35    C     0.17498   0.31216   0.21380   0.01267  Uiso   1.00
C36    C     0.10915   0.30890   0.28170   0.01267  Uiso   1.00
C37    C     0.13238   0.37756   0.32460   0.01267  Uiso   1.00
C38    C     0.22319   0.45038   0.30100   0.01267  Uiso   1.00
C39    C     0.28769   0.45398   0.23350   0.01267  Uiso   1.00
C40    C     0.06121   0.37322   0.39731   0.01267  Uiso   1.00
C41    C     0.51770   0.16980   0.98340   0.01267  Uiso   1.00
C42    C     0.50900   0.08140   0.99200   0.01267  Uiso   1.00
C43    C     0.59890   0.04720   0.95390   0.01267  Uiso   1.00
C44    C     0.40560   0.03420   0.03740   0.01267  Uiso   1.00
C45    C     0.71417   0.40154   0.03850   0.01267  Uiso   1.00
C46    C     0.86168   0.45376   0.01760   0.01267  Uiso   1.00
C47    C     0.97676   0.46172   0.06700   0.01267  Uiso   1.00
C48    C     0.88586   0.49172   0.95120   0.01267  Uiso   1.00
C49    C     0.94800   0.61120   0.38193   0.01267  Uiso   1.00
C50    C     0.87858   0.61516   0.31000   0.01267  Uiso   1.00
C51    C     0.86282   0.68784   0.28620   0.01267  Uiso   1.00
C52    C     0.80025   0.69110   0.21830   0.01267  Uiso   1.00
C53    C     0.75482   0.62244   0.17540   0.01267  Uiso   1.00
C54    C     0.77281   0.54962   0.19900   0.01267  Uiso   1.00
C55    C     0.83371   0.54602   0.26650   0.01267  Uiso   1.00
C56    C     0.68799   0.62678   0.10269   0.01267  Uiso   1.00
C57    C     0.34790   0.83020   0.51660   0.01267  Uiso   1.00
C58    C     0.42760   0.91860   0.50800   0.01267  Uiso   1.00
C59    C     0.55170   0.95280   0.54610   0.01267  Uiso   1.00
C60    C     0.37140   0.96580   0.46260   0.01267  Uiso   1.00
C61    C     0.31263   0.59846   0.46150   0.01267  Uiso   1.00
C62    C     0.40792   0.54624   0.48240   0.01267  Uiso   1.00
C63    C     0.51504   0.53828   0.43300   0.01267  Uiso   1.00
C64    C     0.39414   0.50828   0.54880   0.01267  Uiso   1.00
O1     O     0.67681   0.67822   0.91442   0.01267  Uiso   1.00
O2     O     0.59054   0.54268   0.90323   0.01267  Uiso   1.00
O3     O     0.03330   0.69140   0.58833   0.01267  Uiso   1.00
O4     O     0.89846   0.56812   0.56075   0.01267  Uiso   1.00
O5     O     0.56259   0.80378   0.97700   0.01267  Uiso   1.00
O6     O     0.42210   0.79260   0.07210   0.01267  Uiso   1.00
O7     O     0.39161   0.59702   0.00612   0.01267  Uiso   1.00
O8     O     0.30482   0.64024   0.90780   0.01267  Uiso   1.00
O9     O     0.99859   0.32178   0.58558   0.01267  Uiso   1.00
O10    O     0.04786   0.45732   0.59677   0.01267  Uiso   1.00
O11    O     0.34190   0.30860   0.91167   0.01267  Uiso   1.00
O12    O     0.33034   0.43188   0.93925   0.01267  Uiso   1.00
O13    O     0.75881   0.19622   0.52300   0.01267  Uiso   1.00
O14    O     0.62950   0.20740   0.42790   0.01267  Uiso   1.00
O15    O     0.79459   0.40298   0.49388   0.01267  Uiso   1.00
O16    O     0.66458   0.35976   0.59220   0.01267  Uiso   1.00
O17    O     0.32319   0.32178   0.08558   0.01267  Uiso   1.00
O18    O     0.40946   0.45732   0.09677   0.01267  Uiso   1.00
O19    O     0.96670   0.30860   0.41167   0.01267  Uiso   1.00
O20    O     0.10154   0.43188   0.43925   0.01267  Uiso   1.00
O21    O     0.43741   0.19622   0.02300   0.01267  Uiso   1.00
O22    O     0.57790   0.20740   0.92790   0.01267  Uiso   1.00
O23    O     0.60839   0.40298   0.99388   0.01267  Uiso   1.00
O24    O     0.69518   0.35976   0.09220   0.01267  Uiso   1.00
O25    O     0.00141   0.67822   0.41442   0.01267  Uiso   1.00
O26    O     0.95214   0.54268   0.40323   0.01267  Uiso   1.00
O27    O     0.65810   0.69140   0.08833   0.01267  Uiso   1.00
O28    O     0.66966   0.56812   0.06075   0.01267  Uiso   1.00
O29    O     0.24119   0.80378   0.47700   0.01267  Uiso   1.00
O30    O     0.37050   0.79260   0.57210   0.01267  Uiso   1.00
O31    O     0.20541   0.59702   0.50612   0.01267  Uiso   1.00
O32    O     0.33542   0.64024   0.40780   0.01267  Uiso   1.00
H33    H     0.27240   0.74360   0.33640   0.01267  Uiso   1.00
H34    H     0.35690   0.83240   0.31060   0.01267  Uiso   1.00
H35    H     0.18850   0.79600   0.29180   0.01267  Uiso   1.00
H36    H     0.43450   0.67640   0.26210   0.01267  Uiso   1.00
H37    H     0.49310   0.71900   0.18710   0.01267  Uiso   1.00
H38    H     0.52310   0.77000   0.26100   0.01267  Uiso   1.00
C65    C     0.28160   0.78320   0.29780   0.01267  Uiso   1.00
C66    C     0.45330   0.72660   0.23460   0.01267  Uiso   1.00
N1     N     0.32210   0.74760   0.22540   0.01267  Uiso   1.00
H39    H     0.52880   0.25640   0.16360   0.01267  Uiso   1.00
H40    H     0.52450   0.16760   0.18940   0.01267  Uiso   1.00
H41    H     0.39250   0.20400   0.20820   0.01267  Uiso   1.00
H42    H     0.75810   0.32360   0.23790   0.01267  Uiso   1.00
H43    H     0.77410   0.28100   0.31290   0.01267  Uiso   1.00
H44    H     0.75310   0.23000   0.23900   0.01267  Uiso   1.00
C67    C     0.49840   0.21680   0.20220   0.01267  Uiso   1.00
C68    C     0.72670   0.27340   0.26540   0.01267  Uiso   1.00
N2     N     0.57450   0.25240   0.27460   0.01267  Uiso   1.00
H45    H     0.72760   0.25640   0.66360   0.01267  Uiso   1.00
H46    H     0.64310   0.16760   0.68940   0.01267  Uiso   1.00
H47    H     0.81150   0.20400   0.70820   0.01267  Uiso   1.00
H48    H     0.56550   0.32360   0.73790   0.01267  Uiso   1.00
H49    H     0.50690   0.28100   0.81290   0.01267  Uiso   1.00
H50    H     0.47690   0.23000   0.73900   0.01267  Uiso   1.00
C69    C     0.71840   0.21680   0.70220   0.01267  Uiso   1.00
C70    C     0.54670   0.27340   0.76540   0.01267  Uiso   1.00
N3     N     0.67790   0.25240   0.77460   0.01267  Uiso   1.00
H51    H     0.47120   0.74360   0.83640   0.01267  Uiso   1.00
H52    H     0.47550   0.83240   0.81060   0.01267  Uiso   1.00
H53    H     0.60750   0.79600   0.79180   0.01267  Uiso   1.00
H54    H     0.24190   0.67640   0.76210   0.01267  Uiso   1.00
H55    H     0.22590   0.71900   0.68710   0.01267  Uiso   1.00
H56    H     0.24690   0.77000   0.76100   0.01267  Uiso   1.00
C71    C     0.50160   0.78320   0.79780   0.01267  Uiso   1.00
C72    C     0.27330   0.72660   0.73460   0.01267  Uiso   1.00
N4     N     0.42550   0.74760   0.72540   0.01267  Uiso   1.00
