data_GAJZAU_clean
_audit_creation_date              2014-07-02
_audit_creation_method            'Materials Studio'
_symmetry_space_group_name_H-M    'P1'
_symmetry_Int_Tables_number       1
_symmetry_cell_setting            triclinic
loop_
_symmetry_equiv_pos_as_xyz
  x,y,z
_cell_length_a                    5.6068
_cell_length_b                    13.3820
_cell_length_c                    21.1920
_cell_angle_alpha                 90.0000
_cell_angle_beta                  95.8920
_cell_angle_gamma                 90.0000
loop_
_atom_site_label
_atom_site_type_symbol
_atom_site_fract_x
_atom_site_fract_y
_atom_site_fract_z
_atom_site_U_iso_or_equiv
_atom_site_adp_type
_atom_site_occupancy
Pr1    Pr    0.62969   0.13596   0.97105   0.01267  Uiso   1.00
Pr2    Pr    0.37031   0.63596   0.52895   0.01267  Uiso   1.00
Pr3    Pr    0.37031   0.86404   0.02895   0.01267  Uiso   1.00
Pr4    Pr    0.62969   0.36404   0.47105   0.01267  Uiso   1.00
P1     P     0.91040   0.02303   0.08661   0.01267  Uiso   1.00
P2     P     0.08960   0.52303   0.41339   0.01267  Uiso   1.00
P3     P     0.08960   0.97697   0.91339   0.01267  Uiso   1.00
P4     P     0.91040   0.47697   0.58661   0.01267  Uiso   1.00
H1     H     0.75690   0.97600   0.17960   0.01267  Uiso   1.00
H2     H     0.67270   0.08440   0.16100   0.01267  Uiso   1.00
H3     H     0.75800   0.10440   0.27960   0.01267  Uiso   1.00
H4     H     0.88030   0.99900   0.28580   0.01267  Uiso   1.00
H5     H     0.02630   0.10060   0.37060   0.01267  Uiso   1.00
H6     H     0.23570   0.07020   0.33070   0.01267  Uiso   1.00
H7     H     0.99480   0.25680   0.32140   0.01267  Uiso   1.00
H8     H     0.24250   0.30220   0.24570   0.01267  Uiso   1.00
H9     H     0.37040   0.19790   0.25140   0.01267  Uiso   1.00
H10    H     0.08550   0.19770   0.16130   0.01267  Uiso   1.00
H11    H     0.88090   0.22550   0.20350   0.01267  Uiso   1.00
H12    H     0.24310   0.47600   0.32040   0.01267  Uiso   1.00
H13    H     0.32730   0.58440   0.33900   0.01267  Uiso   1.00
H14    H     0.24200   0.60440   0.22040   0.01267  Uiso   1.00
H15    H     0.11970   0.49900   0.21420   0.01267  Uiso   1.00
H16    H     0.97370   0.60060   0.12940   0.01267  Uiso   1.00
H17    H     0.76430   0.57020   0.16930   0.01267  Uiso   1.00
H18    H     0.00520   0.75680   0.17860   0.01267  Uiso   1.00
H19    H     0.75750   0.80220   0.25430   0.01267  Uiso   1.00
H20    H     0.62960   0.69790   0.24860   0.01267  Uiso   1.00
H21    H     0.91450   0.69770   0.33870   0.01267  Uiso   1.00
H22    H     0.11910   0.72550   0.29650   0.01267  Uiso   1.00
H23    H     0.24310   0.02400   0.82040   0.01267  Uiso   1.00
H24    H     0.32730   0.91560   0.83900   0.01267  Uiso   1.00
H25    H     0.24200   0.89560   0.72040   0.01267  Uiso   1.00
H26    H     0.11970   0.00100   0.71420   0.01267  Uiso   1.00
H27    H     0.97370   0.89940   0.62940   0.01267  Uiso   1.00
H28    H     0.76430   0.92980   0.66930   0.01267  Uiso   1.00
H29    H     0.00520   0.74320   0.67860   0.01267  Uiso   1.00
H30    H     0.75750   0.69780   0.75430   0.01267  Uiso   1.00
H31    H     0.62960   0.80210   0.74860   0.01267  Uiso   1.00
H32    H     0.91450   0.80230   0.83870   0.01267  Uiso   1.00
H33    H     0.11910   0.77450   0.79650   0.01267  Uiso   1.00
H34    H     0.75690   0.52400   0.67960   0.01267  Uiso   1.00
H35    H     0.67270   0.41560   0.66100   0.01267  Uiso   1.00
H36    H     0.75800   0.39560   0.77960   0.01267  Uiso   1.00
H37    H     0.88030   0.50100   0.78580   0.01267  Uiso   1.00
H38    H     0.02630   0.39940   0.87060   0.01267  Uiso   1.00
H39    H     0.23570   0.42980   0.83070   0.01267  Uiso   1.00
H40    H     0.99480   0.24320   0.82140   0.01267  Uiso   1.00
H41    H     0.24250   0.19780   0.74570   0.01267  Uiso   1.00
H42    H     0.37040   0.30210   0.75140   0.01267  Uiso   1.00
H43    H     0.08550   0.30230   0.66130   0.01267  Uiso   1.00
H44    H     0.88090   0.27450   0.70350   0.01267  Uiso   1.00
C1     C     0.81050   0.04020   0.16510   0.01267  Uiso   1.00
C2     C     0.90860   0.06930   0.27820   0.01267  Uiso   1.00
C3     C     0.08880   0.10870   0.32990   0.01267  Uiso   1.00
C4     C     0.14450   0.21950   0.31970   0.01267  Uiso   1.00
C5     C     0.21900   0.23180   0.25390   0.01267  Uiso   1.00
C6     C     0.03000   0.18920   0.20280   0.01267  Uiso   1.00
C7     C     0.32570   0.26170   0.37040   0.01267  Uiso   1.00
C8     C     0.18950   0.54020   0.33490   0.01267  Uiso   1.00
C9     C     0.09140   0.56930   0.22180   0.01267  Uiso   1.00
C10    C     0.91120   0.60870   0.17010   0.01267  Uiso   1.00
C11    C     0.85550   0.71950   0.18030   0.01267  Uiso   1.00
C12    C     0.78100   0.73180   0.24610   0.01267  Uiso   1.00
C13    C     0.97000   0.68920   0.29720   0.01267  Uiso   1.00
C14    C     0.67430   0.76170   0.12960   0.01267  Uiso   1.00
C15    C     0.18950   0.95980   0.83490   0.01267  Uiso   1.00
C16    C     0.09140   0.93070   0.72180   0.01267  Uiso   1.00
C17    C     0.91120   0.89130   0.67010   0.01267  Uiso   1.00
C18    C     0.85550   0.78050   0.68030   0.01267  Uiso   1.00
C19    C     0.78100   0.76820   0.74610   0.01267  Uiso   1.00
C20    C     0.97000   0.81080   0.79720   0.01267  Uiso   1.00
C21    C     0.67430   0.73830   0.62960   0.01267  Uiso   1.00
C22    C     0.81050   0.45980   0.66510   0.01267  Uiso   1.00
C23    C     0.90860   0.43070   0.77820   0.01267  Uiso   1.00
C24    C     0.08880   0.39130   0.82990   0.01267  Uiso   1.00
C25    C     0.14450   0.28050   0.81970   0.01267  Uiso   1.00
C26    C     0.21900   0.26820   0.75390   0.01267  Uiso   1.00
C27    C     0.03000   0.31080   0.70280   0.01267  Uiso   1.00
C28    C     0.32570   0.23830   0.87040   0.01267  Uiso   1.00
N1     N     0.98970   0.08130   0.21470   0.01267  Uiso   1.00
N2     N     0.01030   0.58130   0.28530   0.01267  Uiso   1.00
N3     N     0.01030   0.91870   0.78530   0.01267  Uiso   1.00
N4     N     0.98970   0.41870   0.71470   0.01267  Uiso   1.00
O1     O     0.68570   0.98260   0.04700   0.01267  Uiso   1.00
O2     O     0.96160   0.12310   0.05740   0.01267  Uiso   1.00
O3     O     0.12010   0.95250   0.09260   0.01267  Uiso   1.00
O4     O     0.30190   0.24300   0.42820   0.01267  Uiso   1.00
O5     O     0.49490   0.31480   0.35680   0.01267  Uiso   1.00
O6     O     0.31430   0.48260   0.45300   0.01267  Uiso   1.00
O7     O     0.03840   0.62310   0.44260   0.01267  Uiso   1.00
O8     O     0.87990   0.45250   0.40740   0.01267  Uiso   1.00
O9     O     0.69810   0.74300   0.07180   0.01267  Uiso   1.00
O10    O     0.50510   0.81480   0.14320   0.01267  Uiso   1.00
O11    O     0.31430   0.01740   0.95300   0.01267  Uiso   1.00
O12    O     0.03840   0.87690   0.94260   0.01267  Uiso   1.00
O13    O     0.87990   0.04750   0.90740   0.01267  Uiso   1.00
O14    O     0.69810   0.75700   0.57180   0.01267  Uiso   1.00
O15    O     0.50510   0.68520   0.64320   0.01267  Uiso   1.00
O16    O     0.68570   0.51740   0.54700   0.01267  Uiso   1.00
O17    O     0.96160   0.37690   0.55740   0.01267  Uiso   1.00
O18    O     0.12010   0.54750   0.59260   0.01267  Uiso   1.00
O19    O     0.30190   0.25700   0.92820   0.01267  Uiso   1.00
O20    O     0.49490   0.18520   0.85680   0.01267  Uiso   1.00
