data_GAJZIC_clean
_audit_creation_date              2014-07-02
_audit_creation_method            'Materials Studio'
_symmetry_space_group_name_H-M    'P1'
_symmetry_Int_Tables_number       1
_symmetry_cell_setting            triclinic
loop_
_symmetry_equiv_pos_as_xyz
  x,y,z
_cell_length_a                    5.5462
_cell_length_b                    13.3430
_cell_length_c                    21.1640
_cell_angle_alpha                 90.0000
_cell_angle_beta                  96.5160
_cell_angle_gamma                 90.0000
loop_
_atom_site_label
_atom_site_type_symbol
_atom_site_fract_x
_atom_site_fract_y
_atom_site_fract_z
_atom_site_U_iso_or_equiv
_atom_site_adp_type
_atom_site_occupancy
Sm1    Sm    0.62667   0.13256   0.97225   0.01267  Uiso   1.00
Sm2    Sm    0.37333   0.63256   0.52775   0.01267  Uiso   1.00
Sm3    Sm    0.37333   0.86744   0.02775   0.01267  Uiso   1.00
Sm4    Sm    0.62667   0.36744   0.47225   0.01267  Uiso   1.00
P1     P     0.91590   0.02330   0.08711   0.01267  Uiso   1.00
P2     P     0.08410   0.52330   0.41289   0.01267  Uiso   1.00
P3     P     0.08410   0.97670   0.91289   0.01267  Uiso   1.00
P4     P     0.91590   0.47670   0.58711   0.01267  Uiso   1.00
H1     H     0.77180   0.97210   0.18030   0.01267  Uiso   1.00
H2     H     0.67770   0.08000   0.16260   0.01267  Uiso   1.00
H3     H     0.76460   0.09300   0.28020   0.01267  Uiso   1.00
H4     H     0.90650   0.99130   0.28550   0.01267  Uiso   1.00
H5     H     0.02800   0.09320   0.36980   0.01267  Uiso   1.00
H6     H     0.24470   0.06810   0.33110   0.01267  Uiso   1.00
H7     H     0.98880   0.25120   0.32570   0.01267  Uiso   1.00
H8     H     0.21000   0.30780   0.24790   0.01267  Uiso   1.00
H9     H     0.37160   0.21110   0.25240   0.01267  Uiso   1.00
H10    H     0.09030   0.19400   0.16260   0.01267  Uiso   1.00
H11    H     0.87420   0.21890   0.20170   0.01267  Uiso   1.00
H12    H     0.22820   0.47210   0.31970   0.01267  Uiso   1.00
H13    H     0.32230   0.58000   0.33740   0.01267  Uiso   1.00
H14    H     0.23540   0.59300   0.21980   0.01267  Uiso   1.00
H15    H     0.09350   0.49130   0.21450   0.01267  Uiso   1.00
H16    H     0.97200   0.59320   0.13020   0.01267  Uiso   1.00
H17    H     0.75530   0.56810   0.16890   0.01267  Uiso   1.00
H18    H     0.01120   0.75120   0.17430   0.01267  Uiso   1.00
H19    H     0.79000   0.80780   0.25210   0.01267  Uiso   1.00
H20    H     0.62840   0.71110   0.24760   0.01267  Uiso   1.00
H21    H     0.90970   0.69400   0.33740   0.01267  Uiso   1.00
H22    H     0.12580   0.71890   0.29830   0.01267  Uiso   1.00
H23    H     0.22820   0.02790   0.81970   0.01267  Uiso   1.00
H24    H     0.32230   0.92000   0.83740   0.01267  Uiso   1.00
H25    H     0.23540   0.90700   0.71980   0.01267  Uiso   1.00
H26    H     0.09350   0.00870   0.71450   0.01267  Uiso   1.00
H27    H     0.97200   0.90680   0.63020   0.01267  Uiso   1.00
H28    H     0.75530   0.93190   0.66890   0.01267  Uiso   1.00
H29    H     0.01120   0.74880   0.67430   0.01267  Uiso   1.00
H30    H     0.79000   0.69220   0.75210   0.01267  Uiso   1.00
H31    H     0.62840   0.78890   0.74760   0.01267  Uiso   1.00
H32    H     0.90970   0.80600   0.83740   0.01267  Uiso   1.00
H33    H     0.12580   0.78110   0.79830   0.01267  Uiso   1.00
H34    H     0.77180   0.52790   0.68030   0.01267  Uiso   1.00
H35    H     0.67770   0.42000   0.66260   0.01267  Uiso   1.00
H36    H     0.76460   0.40700   0.78020   0.01267  Uiso   1.00
H37    H     0.90650   0.50870   0.78550   0.01267  Uiso   1.00
H38    H     0.02800   0.40680   0.86980   0.01267  Uiso   1.00
H39    H     0.24470   0.43190   0.83110   0.01267  Uiso   1.00
H40    H     0.98880   0.24880   0.82570   0.01267  Uiso   1.00
H41    H     0.21000   0.19220   0.74790   0.01267  Uiso   1.00
H42    H     0.37160   0.28890   0.75240   0.01267  Uiso   1.00
H43    H     0.09030   0.30600   0.66260   0.01267  Uiso   1.00
H44    H     0.87420   0.28110   0.70170   0.01267  Uiso   1.00
C1     C     0.82000   0.03740   0.16610   0.01267  Uiso   1.00
C2     C     0.92300   0.06270   0.27850   0.01267  Uiso   1.00
C3     C     0.09200   0.10430   0.32960   0.01267  Uiso   1.00
C4     C     0.14300   0.21680   0.32280   0.01267  Uiso   1.00
C5     C     0.20900   0.23610   0.25550   0.01267  Uiso   1.00
C6     C     0.03000   0.18550   0.20360   0.01267  Uiso   1.00
C7     C     0.32300   0.26180   0.37380   0.01267  Uiso   1.00
C8     C     0.18000   0.53740   0.33390   0.01267  Uiso   1.00
C9     C     0.07700   0.56270   0.22150   0.01267  Uiso   1.00
C10    C     0.90800   0.60430   0.17040   0.01267  Uiso   1.00
C11    C     0.85700   0.71680   0.17720   0.01267  Uiso   1.00
C12    C     0.79100   0.73610   0.24450   0.01267  Uiso   1.00
C13    C     0.97000   0.68550   0.29640   0.01267  Uiso   1.00
C14    C     0.67700   0.76180   0.12620   0.01267  Uiso   1.00
C15    C     0.18000   0.96260   0.83390   0.01267  Uiso   1.00
C16    C     0.07700   0.93730   0.72150   0.01267  Uiso   1.00
C17    C     0.90800   0.89570   0.67040   0.01267  Uiso   1.00
C18    C     0.85700   0.78320   0.67720   0.01267  Uiso   1.00
C19    C     0.79100   0.76390   0.74450   0.01267  Uiso   1.00
C20    C     0.97000   0.81450   0.79640   0.01267  Uiso   1.00
C21    C     0.67700   0.73820   0.62620   0.01267  Uiso   1.00
C22    C     0.82000   0.46260   0.66610   0.01267  Uiso   1.00
C23    C     0.92300   0.43730   0.77850   0.01267  Uiso   1.00
C24    C     0.09200   0.39570   0.82960   0.01267  Uiso   1.00
C25    C     0.14300   0.28320   0.82280   0.01267  Uiso   1.00
C26    C     0.20900   0.26390   0.75550   0.01267  Uiso   1.00
C27    C     0.03000   0.31450   0.70360   0.01267  Uiso   1.00
C28    C     0.32300   0.23820   0.87380   0.01267  Uiso   1.00
N1     N     0.99600   0.07860   0.21480   0.01267  Uiso   1.00
N2     N     0.00400   0.57860   0.28520   0.01267  Uiso   1.00
N3     N     0.00400   0.92140   0.78520   0.01267  Uiso   1.00
N4     N     0.99600   0.42140   0.71480   0.01267  Uiso   1.00
O1     O     0.68650   0.98290   0.04490   0.01267  Uiso   1.00
O2     O     0.96260   0.12390   0.05810   0.01267  Uiso   1.00
O3     O     0.12820   0.95390   0.08980   0.01267  Uiso   1.00
O4     O     0.29600   0.24350   0.43100   0.01267  Uiso   1.00
O5     O     0.49800   0.31450   0.36030   0.01267  Uiso   1.00
O6     O     0.31350   0.48290   0.45510   0.01267  Uiso   1.00
O7     O     0.03740   0.62390   0.44190   0.01267  Uiso   1.00
O8     O     0.87180   0.45390   0.41020   0.01267  Uiso   1.00
O9     O     0.70400   0.74350   0.06900   0.01267  Uiso   1.00
O10    O     0.50200   0.81450   0.13970   0.01267  Uiso   1.00
O11    O     0.31350   0.01710   0.95510   0.01267  Uiso   1.00
O12    O     0.03740   0.87610   0.94190   0.01267  Uiso   1.00
O13    O     0.87180   0.04610   0.91020   0.01267  Uiso   1.00
O14    O     0.70400   0.75650   0.56900   0.01267  Uiso   1.00
O15    O     0.50200   0.68550   0.63970   0.01267  Uiso   1.00
O16    O     0.68650   0.51710   0.54490   0.01267  Uiso   1.00
O17    O     0.96260   0.37610   0.55810   0.01267  Uiso   1.00
O18    O     0.12820   0.54610   0.58980   0.01267  Uiso   1.00
O19    O     0.29600   0.25650   0.93100   0.01267  Uiso   1.00
O20    O     0.49800   0.18550   0.86030   0.01267  Uiso   1.00
