data_GAJZUO_clean
_audit_creation_date              2014-07-02
_audit_creation_method            'Materials Studio'
_symmetry_space_group_name_H-M    'P1'
_symmetry_Int_Tables_number       1
_symmetry_cell_setting            triclinic
loop_
_symmetry_equiv_pos_as_xyz
  x,y,z
_cell_length_a                    5.5234
_cell_length_b                    13.3490
_cell_length_c                    20.5860
_cell_angle_alpha                 90.0000
_cell_angle_beta                  95.2900
_cell_angle_gamma                 90.0000
loop_
_atom_site_label
_atom_site_type_symbol
_atom_site_fract_x
_atom_site_fract_y
_atom_site_fract_z
_atom_site_U_iso_or_equiv
_atom_site_adp_type
_atom_site_occupancy
Y1     Y     0.62640   0.13175   0.97210   0.01267  Uiso   1.00
Y2     Y     0.37360   0.63175   0.52790   0.01267  Uiso   1.00
Y3     Y     0.37360   0.86825   0.02790   0.01267  Uiso   1.00
Y4     Y     0.62640   0.36825   0.47210   0.01267  Uiso   1.00
P1     P     0.90840   0.02047   0.08510   0.01267  Uiso   1.00
P2     P     0.09160   0.52047   0.41490   0.01267  Uiso   1.00
P3     P     0.09160   0.97953   0.91490   0.01267  Uiso   1.00
P4     P     0.90840   0.47953   0.58510   0.01267  Uiso   1.00
H1     H     0.76520   0.97180   0.18260   0.01267  Uiso   1.00
H2     H     0.66640   0.07840   0.16320   0.01267  Uiso   1.00
H3     H     0.75660   0.10410   0.28540   0.01267  Uiso   1.00
H4     H     0.88400   0.99900   0.29110   0.01267  Uiso   1.00
H5     H     0.03830   0.10210   0.37750   0.01267  Uiso   1.00
H6     H     0.24740   0.07350   0.33420   0.01267  Uiso   1.00
H7     H     0.99020   0.25710   0.32600   0.01267  Uiso   1.00
H8     H     0.23020   0.30710   0.24610   0.01267  Uiso   1.00
H9     H     0.37350   0.20560   0.25130   0.01267  Uiso   1.00
H10    H     0.09070   0.19820   0.16120   0.01267  Uiso   1.00
H11    H     0.87980   0.22610   0.20400   0.01267  Uiso   1.00
H12    H     0.23480   0.47180   0.31740   0.01267  Uiso   1.00
H13    H     0.33360   0.57840   0.33680   0.01267  Uiso   1.00
H14    H     0.24340   0.60410   0.21460   0.01267  Uiso   1.00
H15    H     0.11600   0.49900   0.20890   0.01267  Uiso   1.00
H16    H     0.96170   0.60210   0.12250   0.01267  Uiso   1.00
H17    H     0.75260   0.57350   0.16580   0.01267  Uiso   1.00
H18    H     0.00980   0.75710   0.17400   0.01267  Uiso   1.00
H19    H     0.76980   0.80710   0.25390   0.01267  Uiso   1.00
H20    H     0.62650   0.70560   0.24870   0.01267  Uiso   1.00
H21    H     0.90930   0.69820   0.33880   0.01267  Uiso   1.00
H22    H     0.12020   0.72610   0.29600   0.01267  Uiso   1.00
H23    H     0.23480   0.02820   0.81740   0.01267  Uiso   1.00
H24    H     0.33360   0.92160   0.83680   0.01267  Uiso   1.00
H25    H     0.24340   0.89590   0.71460   0.01267  Uiso   1.00
H26    H     0.11600   0.00100   0.70890   0.01267  Uiso   1.00
H27    H     0.96170   0.89790   0.62250   0.01267  Uiso   1.00
H28    H     0.75260   0.92650   0.66580   0.01267  Uiso   1.00
H29    H     0.00980   0.74290   0.67400   0.01267  Uiso   1.00
H30    H     0.76980   0.69290   0.75390   0.01267  Uiso   1.00
H31    H     0.62650   0.79440   0.74870   0.01267  Uiso   1.00
H32    H     0.90930   0.80180   0.83880   0.01267  Uiso   1.00
H33    H     0.12020   0.77390   0.79600   0.01267  Uiso   1.00
H34    H     0.76520   0.52820   0.68260   0.01267  Uiso   1.00
H35    H     0.66640   0.42160   0.66320   0.01267  Uiso   1.00
H36    H     0.75660   0.39590   0.78540   0.01267  Uiso   1.00
H37    H     0.88400   0.50100   0.79110   0.01267  Uiso   1.00
H38    H     0.03830   0.39790   0.87750   0.01267  Uiso   1.00
H39    H     0.24740   0.42650   0.83420   0.01267  Uiso   1.00
H40    H     0.99020   0.24290   0.82600   0.01267  Uiso   1.00
H41    H     0.23020   0.19290   0.74610   0.01267  Uiso   1.00
H42    H     0.37350   0.29440   0.75130   0.01267  Uiso   1.00
H43    H     0.09070   0.30180   0.66120   0.01267  Uiso   1.00
H44    H     0.87980   0.27390   0.70400   0.01267  Uiso   1.00
C1     C     0.81110   0.03690   0.16660   0.01267  Uiso   1.00
C2     C     0.91000   0.06960   0.28300   0.01267  Uiso   1.00
C3     C     0.09670   0.11070   0.33490   0.01267  Uiso   1.00
C4     C     0.14420   0.22160   0.32320   0.01267  Uiso   1.00
C5     C     0.21570   0.23600   0.25470   0.01267  Uiso   1.00
C6     C     0.03280   0.19040   0.20400   0.01267  Uiso   1.00
C7     C     0.32790   0.26620   0.37490   0.01267  Uiso   1.00
C8     C     0.18890   0.53690   0.33340   0.01267  Uiso   1.00
C9     C     0.09000   0.56960   0.21700   0.01267  Uiso   1.00
C10    C     0.90330   0.61070   0.16510   0.01267  Uiso   1.00
C11    C     0.85580   0.72160   0.17680   0.01267  Uiso   1.00
C12    C     0.78430   0.73600   0.24530   0.01267  Uiso   1.00
C13    C     0.96720   0.69040   0.29600   0.01267  Uiso   1.00
C14    C     0.67210   0.76620   0.12510   0.01267  Uiso   1.00
C15    C     0.18890   0.96310   0.83340   0.01267  Uiso   1.00
C16    C     0.09000   0.93040   0.71700   0.01267  Uiso   1.00
C17    C     0.90330   0.88930   0.66510   0.01267  Uiso   1.00
C18    C     0.85580   0.77840   0.67680   0.01267  Uiso   1.00
C19    C     0.78430   0.76400   0.74530   0.01267  Uiso   1.00
C20    C     0.96720   0.80960   0.79600   0.01267  Uiso   1.00
C21    C     0.67210   0.73380   0.62510   0.01267  Uiso   1.00
C22    C     0.81110   0.46310   0.66660   0.01267  Uiso   1.00
C23    C     0.91000   0.43040   0.78300   0.01267  Uiso   1.00
C24    C     0.09670   0.38930   0.83490   0.01267  Uiso   1.00
C25    C     0.14420   0.27840   0.82320   0.01267  Uiso   1.00
C26    C     0.21570   0.26400   0.75470   0.01267  Uiso   1.00
C27    C     0.03280   0.30960   0.70400   0.01267  Uiso   1.00
C28    C     0.32790   0.23380   0.87490   0.01267  Uiso   1.00
N1     N     0.99150   0.08250   0.21640   0.01267  Uiso   1.00
N2     N     0.00850   0.58250   0.28360   0.01267  Uiso   1.00
N3     N     0.00850   0.91750   0.78360   0.01267  Uiso   1.00
N4     N     0.99150   0.41750   0.71640   0.01267  Uiso   1.00
O1     O     0.67980   0.97990   0.04550   0.01267  Uiso   1.00
O2     O     0.95750   0.12190   0.05410   0.01267  Uiso   1.00
O3     O     0.12260   0.95040   0.09070   0.01267  Uiso   1.00
O4     O     0.30270   0.24880   0.43420   0.01267  Uiso   1.00
O5     O     0.49510   0.32100   0.35940   0.01267  Uiso   1.00
O6     O     0.32020   0.47990   0.45450   0.01267  Uiso   1.00
O7     O     0.04250   0.62190   0.44590   0.01267  Uiso   1.00
O8     O     0.87740   0.45040   0.40930   0.01267  Uiso   1.00
O9     O     0.69730   0.74880   0.06580   0.01267  Uiso   1.00
O10    O     0.50490   0.82100   0.14060   0.01267  Uiso   1.00
O11    O     0.32020   0.02010   0.95450   0.01267  Uiso   1.00
O12    O     0.04250   0.87810   0.94590   0.01267  Uiso   1.00
O13    O     0.87740   0.04960   0.90930   0.01267  Uiso   1.00
O14    O     0.69730   0.75120   0.56580   0.01267  Uiso   1.00
O15    O     0.50490   0.67900   0.64060   0.01267  Uiso   1.00
O16    O     0.67980   0.52010   0.54550   0.01267  Uiso   1.00
O17    O     0.95750   0.37810   0.55410   0.01267  Uiso   1.00
O18    O     0.12260   0.54960   0.59070   0.01267  Uiso   1.00
O19    O     0.30270   0.25120   0.93420   0.01267  Uiso   1.00
O20    O     0.49510   0.17900   0.85940   0.01267  Uiso   1.00
