data_GAKBAX_clean
_audit_creation_date              2014-07-02
_audit_creation_method            'Materials Studio'
_symmetry_space_group_name_H-M    'P1'
_symmetry_Int_Tables_number       1
_symmetry_cell_setting            triclinic
loop_
_symmetry_equiv_pos_as_xyz
  x,y,z
_cell_length_a                    5.5313
_cell_length_b                    13.3960
_cell_length_c                    20.9340
_cell_angle_alpha                 90.0000
_cell_angle_beta                  96.1770
_cell_angle_gamma                 90.0000
loop_
_atom_site_label
_atom_site_type_symbol
_atom_site_fract_x
_atom_site_fract_y
_atom_site_fract_z
_atom_site_U_iso_or_equiv
_atom_site_adp_type
_atom_site_occupancy
Eu1    Eu    0.62677   0.13215   0.97237   0.01267  Uiso   1.00
Eu2    Eu    0.37323   0.63215   0.52763   0.01267  Uiso   1.00
Eu3    Eu    0.37323   0.86785   0.02763   0.01267  Uiso   1.00
Eu4    Eu    0.62677   0.36785   0.47237   0.01267  Uiso   1.00
P1     P     0.91310   0.02230   0.08659   0.01267  Uiso   1.00
P2     P     0.08690   0.52230   0.41341   0.01267  Uiso   1.00
P3     P     0.08690   0.97770   0.91341   0.01267  Uiso   1.00
P4     P     0.91310   0.47770   0.58659   0.01267  Uiso   1.00
H1     H     0.77180   0.97150   0.18160   0.01267  Uiso   1.00
H2     H     0.67410   0.07840   0.16350   0.01267  Uiso   1.00
H3     H     0.76210   0.09870   0.28160   0.01267  Uiso   1.00
H4     H     0.89610   0.99530   0.28780   0.01267  Uiso   1.00
H5     H     0.03700   0.09750   0.37220   0.01267  Uiso   1.00
H6     H     0.24850   0.07160   0.33080   0.01267  Uiso   1.00
H7     H     0.98770   0.25240   0.32440   0.01267  Uiso   1.00
H8     H     0.36930   0.20510   0.25020   0.01267  Uiso   1.00
H9     H     0.22160   0.30540   0.24570   0.01267  Uiso   1.00
H10    H     0.07310   0.19820   0.16180   0.01267  Uiso   1.00
H11    H     0.86830   0.22020   0.20630   0.01267  Uiso   1.00
H12    H     0.22820   0.47150   0.31840   0.01267  Uiso   1.00
H13    H     0.32590   0.57840   0.33650   0.01267  Uiso   1.00
H14    H     0.23790   0.59870   0.21840   0.01267  Uiso   1.00
H15    H     0.10390   0.49530   0.21220   0.01267  Uiso   1.00
H16    H     0.96300   0.59750   0.12780   0.01267  Uiso   1.00
H17    H     0.75150   0.57160   0.16920   0.01267  Uiso   1.00
H18    H     0.01230   0.75240   0.17560   0.01267  Uiso   1.00
H19    H     0.63070   0.70510   0.24980   0.01267  Uiso   1.00
H20    H     0.77840   0.80540   0.25430   0.01267  Uiso   1.00
H21    H     0.92690   0.69820   0.33820   0.01267  Uiso   1.00
H22    H     0.13170   0.72020   0.29370   0.01267  Uiso   1.00
H23    H     0.22820   0.02850   0.81840   0.01267  Uiso   1.00
H24    H     0.32590   0.92160   0.83650   0.01267  Uiso   1.00
H25    H     0.23790   0.90130   0.71840   0.01267  Uiso   1.00
H26    H     0.10390   0.00470   0.71220   0.01267  Uiso   1.00
H27    H     0.96300   0.90250   0.62780   0.01267  Uiso   1.00
H28    H     0.75150   0.92840   0.66920   0.01267  Uiso   1.00
H29    H     0.01230   0.74760   0.67560   0.01267  Uiso   1.00
H30    H     0.63070   0.79490   0.74980   0.01267  Uiso   1.00
H31    H     0.77840   0.69460   0.75430   0.01267  Uiso   1.00
H32    H     0.92690   0.80180   0.83820   0.01267  Uiso   1.00
H33    H     0.13170   0.77980   0.79370   0.01267  Uiso   1.00
H34    H     0.77180   0.52850   0.68160   0.01267  Uiso   1.00
H35    H     0.67410   0.42160   0.66350   0.01267  Uiso   1.00
H36    H     0.76210   0.40130   0.78160   0.01267  Uiso   1.00
H37    H     0.89610   0.50470   0.78780   0.01267  Uiso   1.00
H38    H     0.03700   0.40250   0.87220   0.01267  Uiso   1.00
H39    H     0.24850   0.42840   0.83080   0.01267  Uiso   1.00
H40    H     0.98770   0.24760   0.82440   0.01267  Uiso   1.00
H41    H     0.36930   0.29490   0.75020   0.01267  Uiso   1.00
H42    H     0.22160   0.19460   0.74570   0.01267  Uiso   1.00
H43    H     0.07310   0.30180   0.66180   0.01267  Uiso   1.00
H44    H     0.86830   0.27980   0.70630   0.01267  Uiso   1.00
C1     C     0.81800   0.03660   0.16670   0.01267  Uiso   1.00
C2     C     0.91800   0.06600   0.28000   0.01267  Uiso   1.00
C3     C     0.09600   0.10760   0.33070   0.01267  Uiso   1.00
C4     C     0.14300   0.21790   0.32170   0.01267  Uiso   1.00
C5     C     0.21100   0.23440   0.25390   0.01267  Uiso   1.00
C6     C     0.02400   0.18770   0.20440   0.01267  Uiso   1.00
C7     C     0.32600   0.26300   0.37340   0.01267  Uiso   1.00
C8     C     0.18200   0.53660   0.33330   0.01267  Uiso   1.00
C9     C     0.08200   0.56600   0.22000   0.01267  Uiso   1.00
C10    C     0.90400   0.60760   0.16930   0.01267  Uiso   1.00
C11    C     0.85700   0.71790   0.17830   0.01267  Uiso   1.00
C12    C     0.78900   0.73440   0.24610   0.01267  Uiso   1.00
C13    C     0.97600   0.68770   0.29560   0.01267  Uiso   1.00
C14    C     0.67400   0.76300   0.12660   0.01267  Uiso   1.00
C15    C     0.18200   0.96340   0.83330   0.01267  Uiso   1.00
C16    C     0.08200   0.93400   0.72000   0.01267  Uiso   1.00
C17    C     0.90400   0.89240   0.66930   0.01267  Uiso   1.00
C18    C     0.85700   0.78210   0.67830   0.01267  Uiso   1.00
C19    C     0.78900   0.76560   0.74610   0.01267  Uiso   1.00
C20    C     0.97600   0.81230   0.79560   0.01267  Uiso   1.00
C21    C     0.67400   0.73700   0.62660   0.01267  Uiso   1.00
C22    C     0.81800   0.46340   0.66670   0.01267  Uiso   1.00
C23    C     0.91800   0.43400   0.78000   0.01267  Uiso   1.00
C24    C     0.09600   0.39240   0.83070   0.01267  Uiso   1.00
C25    C     0.14300   0.28210   0.82170   0.01267  Uiso   1.00
C26    C     0.21100   0.26560   0.75390   0.01267  Uiso   1.00
C27    C     0.02400   0.31230   0.70440   0.01267  Uiso   1.00
C28    C     0.32600   0.23700   0.87340   0.01267  Uiso   1.00
N1     N     0.99800   0.07970   0.21570   0.01267  Uiso   1.00
N2     N     0.00200   0.57970   0.28430   0.01267  Uiso   1.00
N3     N     0.00200   0.92030   0.78430   0.01267  Uiso   1.00
N4     N     0.99800   0.42030   0.71570   0.01267  Uiso   1.00
O1     O     0.68350   0.98230   0.04550   0.01267  Uiso   1.00
O2     O     0.96130   0.12200   0.05720   0.01267  Uiso   1.00
O3     O     0.12670   0.95310   0.09000   0.01267  Uiso   1.00
O4     O     0.29650   0.24640   0.43240   0.01267  Uiso   1.00
O5     O     0.49730   0.31650   0.35980   0.01267  Uiso   1.00
O6     O     0.31650   0.48230   0.45450   0.01267  Uiso   1.00
O7     O     0.03870   0.62200   0.44280   0.01267  Uiso   1.00
O8     O     0.87330   0.45310   0.41000   0.01267  Uiso   1.00
O9     O     0.70350   0.74640   0.06760   0.01267  Uiso   1.00
O10    O     0.50270   0.81650   0.14020   0.01267  Uiso   1.00
O11    O     0.31650   0.01770   0.95450   0.01267  Uiso   1.00
O12    O     0.03870   0.87800   0.94280   0.01267  Uiso   1.00
O13    O     0.87330   0.04690   0.91000   0.01267  Uiso   1.00
O14    O     0.70350   0.75360   0.56760   0.01267  Uiso   1.00
O15    O     0.50270   0.68350   0.64020   0.01267  Uiso   1.00
O16    O     0.68350   0.51770   0.54550   0.01267  Uiso   1.00
O17    O     0.96130   0.37800   0.55720   0.01267  Uiso   1.00
O18    O     0.12670   0.54690   0.59000   0.01267  Uiso   1.00
O19    O     0.29650   0.25360   0.93240   0.01267  Uiso   1.00
O20    O     0.49730   0.18350   0.85980   0.01267  Uiso   1.00
