data_image0
_cell_length_a       12.251
_cell_length_b       18.631
_cell_length_c       20.976
_cell_angle_alpha    90
_cell_angle_beta     90
_cell_angle_gamma    90

_symmetry_space_group_name_H-M    "P 1"
_symmetry_int_tables_number       1

loop_
  _symmetry_equiv_pos_as_xyz
  'x, y, z'

loop_
  _atom_site_label
  _atom_site_occupancy
  _atom_site_fract_x
  _atom_site_fract_y
  _atom_site_fract_z
  _atom_site_thermal_displace_type
  _atom_site_B_iso_or_equiv
  _atom_site_type_symbol
  O1       1.0000 0.88720  0.04705  0.43260  Biso   1.000  O
  O2       1.0000 0.72250  0.08140  0.45590  Biso   1.000  O
  O3       1.0000 0.10600  0.45780  0.81440  Biso   1.000  O
  O4       1.0000 0.26650  0.42000  0.78880  Biso   1.000  O
  C1       1.0000 0.82390  0.08450  0.46560  Biso   1.000  C
  C2       1.0000 0.87110  0.13230  0.51510  Biso   1.000  C
  C3       1.0000 0.97750  0.12550  0.54030  Biso   1.000  C
  H1       1.0000 0.01970  0.08710  0.52650  Biso   1.000  H
  C4       1.0000 0.02280  0.17160  0.58390  Biso   1.000  C
  H2       1.0000 0.09250  0.16370  0.60000  Biso   1.000  H
  C5       1.0000 0.96570  0.22650  0.60200  Biso   1.000  C
  C6       1.0000 0.85930  0.23360  0.57640  Biso   1.000  C
  H3       1.0000 0.81830  0.27310  0.58900  Biso   1.000  H
  C7       1.0000 0.81210  0.18650  0.53440  Biso   1.000  C
  H4       1.0000 0.74090  0.19290  0.52020  Biso   1.000  H
  C8       1.0000 0.01610  0.27670  0.64760  Biso   1.000  C
  C9       1.0000 0.12980  0.28570  0.64760  Biso   1.000  C
  H5       1.0000 0.17260  0.26110  0.61820  Biso   1.000  H
  C10      1.0000 0.17750  0.33100  0.69110  Biso   1.000  C
  H6       1.0000 0.25320  0.33510  0.69260  Biso   1.000  H
  C11      1.0000 0.11460  0.37030  0.73260  Biso   1.000  C
  C12      1.0000 0.00340  0.36300  0.73250  Biso   1.000  C
  H7       1.0000 0.96140  0.38950  0.76090  Biso   1.000  H
  C13      1.0000 0.95300  0.31640  0.69020  Biso   1.000  C
  H8       1.0000 0.87740  0.31160  0.69020  Biso   1.000  H
  C14      1.0000 0.16520  0.41930  0.78080  Biso   1.000  C
  O5       1.0000 0.61280  0.95295  0.43260  Biso   1.000  O
  O6       1.0000 0.77750  0.91860  0.45590  Biso   1.000  O
  O7       1.0000 0.39400  0.54220  0.81440  Biso   1.000  O
  O8       1.0000 0.23350  0.58000  0.78880  Biso   1.000  O
  C15      1.0000 0.67610  0.91550  0.46560  Biso   1.000  C
  C16      1.0000 0.62890  0.86770  0.51510  Biso   1.000  C
  C17      1.0000 0.52250  0.87450  0.54030  Biso   1.000  C
  H9       1.0000 0.48030  0.91290  0.52650  Biso   1.000  H
  C18      1.0000 0.47720  0.82840  0.58390  Biso   1.000  C
  H10      1.0000 0.40750  0.83630  0.60000  Biso   1.000  H
  C19      1.0000 0.53430  0.77350  0.60200  Biso   1.000  C
  C20      1.0000 0.64070  0.76640  0.57640  Biso   1.000  C
  H11      1.0000 0.68170  0.72690  0.58900  Biso   1.000  H
  C21      1.0000 0.68790  0.81350  0.53440  Biso   1.000  C
  H12      1.0000 0.75910  0.80710  0.52020  Biso   1.000  H
  C22      1.0000 0.48390  0.72330  0.64760  Biso   1.000  C
  C23      1.0000 0.37020  0.71430  0.64760  Biso   1.000  C
  H13      1.0000 0.32740  0.73890  0.61820  Biso   1.000  H
  C24      1.0000 0.32250  0.66900  0.69110  Biso   1.000  C
  H14      1.0000 0.24680  0.66490  0.69260  Biso   1.000  H
  C25      1.0000 0.38540  0.62970  0.73260  Biso   1.000  C
  C26      1.0000 0.49660  0.63700  0.73250  Biso   1.000  C
  H15      1.0000 0.53860  0.61050  0.76090  Biso   1.000  H
  C27      1.0000 0.54700  0.68360  0.69020  Biso   1.000  C
  H16      1.0000 0.62260  0.68840  0.69020  Biso   1.000  H
  C28      1.0000 0.33480  0.58070  0.78080  Biso   1.000  C
  O9       1.0000 0.38720  0.45295  0.93260  Biso   1.000  O
  O10      1.0000 0.22250  0.41860  0.95590  Biso   1.000  O
  O11      1.0000 0.60600  0.04220  0.31440  Biso   1.000  O
  O12      1.0000 0.76650  0.08000  0.28880  Biso   1.000  O
  C29      1.0000 0.32390  0.41550  0.96560  Biso   1.000  C
  C30      1.0000 0.37110  0.36770  0.01510  Biso   1.000  C
  C31      1.0000 0.47750  0.37450  0.04030  Biso   1.000  C
  H17      1.0000 0.51970  0.41290  0.02650  Biso   1.000  H
  C32      1.0000 0.52280  0.32840  0.08390  Biso   1.000  C
  H18      1.0000 0.59250  0.33630  0.10000  Biso   1.000  H
  C33      1.0000 0.46570  0.27350  0.10200  Biso   1.000  C
  C34      1.0000 0.35930  0.26640  0.07640  Biso   1.000  C
  H19      1.0000 0.31830  0.22690  0.08900  Biso   1.000  H
  C35      1.0000 0.31210  0.31350  0.03440  Biso   1.000  C
  H20      1.0000 0.24090  0.30710  0.02020  Biso   1.000  H
  C36      1.0000 0.51610  0.22330  0.14760  Biso   1.000  C
  C37      1.0000 0.62980  0.21430  0.14760  Biso   1.000  C
  H21      1.0000 0.67260  0.23890  0.11820  Biso   1.000  H
  C38      1.0000 0.67750  0.16900  0.19110  Biso   1.000  C
  H22      1.0000 0.75320  0.16490  0.19260  Biso   1.000  H
  C39      1.0000 0.61460  0.12970  0.23260  Biso   1.000  C
  C40      1.0000 0.50340  0.13700  0.23250  Biso   1.000  C
  H23      1.0000 0.46140  0.11050  0.26090  Biso   1.000  H
  C41      1.0000 0.45300  0.18360  0.19020  Biso   1.000  C
  H24      1.0000 0.37740  0.18840  0.19020  Biso   1.000  H
  C42      1.0000 0.66520  0.08070  0.28080  Biso   1.000  C
  O13      1.0000 0.11280  0.54705  0.93260  Biso   1.000  O
  O14      1.0000 0.27750  0.58140  0.95590  Biso   1.000  O
  O15      1.0000 0.89400  0.95780  0.31440  Biso   1.000  O
  O16      1.0000 0.73350  0.92000  0.28880  Biso   1.000  O
  C43      1.0000 0.17610  0.58450  0.96560  Biso   1.000  C
  C44      1.0000 0.12890  0.63230  0.01510  Biso   1.000  C
  C45      1.0000 0.02250  0.62550  0.04030  Biso   1.000  C
  H25      1.0000 0.98030  0.58710  0.02650  Biso   1.000  H
  C46      1.0000 0.97720  0.67160  0.08390  Biso   1.000  C
  H26      1.0000 0.90750  0.66370  0.10000  Biso   1.000  H
  C47      1.0000 0.03430  0.72650  0.10200  Biso   1.000  C
  C48      1.0000 0.14070  0.73360  0.07640  Biso   1.000  C
  H27      1.0000 0.18170  0.77310  0.08900  Biso   1.000  H
  C49      1.0000 0.18790  0.68650  0.03440  Biso   1.000  C
  H28      1.0000 0.25910  0.69290  0.02020  Biso   1.000  H
  C50      1.0000 0.98390  0.77670  0.14760  Biso   1.000  C
  C51      1.0000 0.87020  0.78570  0.14760  Biso   1.000  C
  H29      1.0000 0.82740  0.76110  0.11820  Biso   1.000  H
  C52      1.0000 0.82250  0.83100  0.19110  Biso   1.000  C
  H30      1.0000 0.74680  0.83510  0.19260  Biso   1.000  H
  C53      1.0000 0.88540  0.87030  0.23260  Biso   1.000  C
  C54      1.0000 0.99660  0.86300  0.23250  Biso   1.000  C
  H31      1.0000 0.03860  0.88950  0.26090  Biso   1.000  H
  C55      1.0000 0.04700  0.81640  0.19020  Biso   1.000  C
  H32      1.0000 0.12260  0.81160  0.19020  Biso   1.000  H
  C56      1.0000 0.83480  0.91930  0.28080  Biso   1.000  C
  In1      1.0000 0.75000  0.00000  0.37340  Biso   1.000  In
  In2      1.0000 0.25000  0.50000  0.87340  Biso   1.000  In
  O17      1.0000 0.61280  0.54705  0.06740  Biso   1.000  O
  O18      1.0000 0.77750  0.58140  0.04410  Biso   1.000  O
  O19      1.0000 0.39400  0.95780  0.68560  Biso   1.000  O
  O20      1.0000 0.23350  0.92000  0.71120  Biso   1.000  O
  C57      1.0000 0.67610  0.58450  0.03440  Biso   1.000  C
  C58      1.0000 0.62890  0.63230  0.98490  Biso   1.000  C
  C59      1.0000 0.52250  0.62550  0.95970  Biso   1.000  C
  H33      1.0000 0.48030  0.58710  0.97350  Biso   1.000  H
  C60      1.0000 0.47720  0.67160  0.91610  Biso   1.000  C
  H34      1.0000 0.40750  0.66370  0.90000  Biso   1.000  H
  C61      1.0000 0.53430  0.72650  0.89800  Biso   1.000  C
  C62      1.0000 0.64070  0.73360  0.92360  Biso   1.000  C
  H35      1.0000 0.68170  0.77310  0.91100  Biso   1.000  H
  C63      1.0000 0.68790  0.68650  0.96560  Biso   1.000  C
  H36      1.0000 0.75910  0.69290  0.97980  Biso   1.000  H
  C64      1.0000 0.48390  0.77670  0.85240  Biso   1.000  C
  C65      1.0000 0.37020  0.78570  0.85240  Biso   1.000  C
  H37      1.0000 0.32740  0.76110  0.88180  Biso   1.000  H
  C66      1.0000 0.32250  0.83100  0.80890  Biso   1.000  C
  H38      1.0000 0.24680  0.83510  0.80740  Biso   1.000  H
  C67      1.0000 0.38540  0.87030  0.76740  Biso   1.000  C
  C68      1.0000 0.49660  0.86300  0.76750  Biso   1.000  C
  H39      1.0000 0.53860  0.88950  0.73910  Biso   1.000  H
  C69      1.0000 0.54700  0.81640  0.80980  Biso   1.000  C
  H40      1.0000 0.62260  0.81160  0.80980  Biso   1.000  H
  C70      1.0000 0.33480  0.91930  0.71920  Biso   1.000  C
  O21      1.0000 0.88720  0.45295  0.06740  Biso   1.000  O
  O22      1.0000 0.72250  0.41860  0.04410  Biso   1.000  O
  O23      1.0000 0.10600  0.04220  0.68560  Biso   1.000  O
  O24      1.0000 0.26650  0.08000  0.71120  Biso   1.000  O
  C71      1.0000 0.82390  0.41550  0.03440  Biso   1.000  C
  C72      1.0000 0.87110  0.36770  0.98490  Biso   1.000  C
  C73      1.0000 0.97750  0.37450  0.95970  Biso   1.000  C
  H41      1.0000 0.01970  0.41290  0.97350  Biso   1.000  H
  C74      1.0000 0.02280  0.32840  0.91610  Biso   1.000  C
  H42      1.0000 0.09250  0.33630  0.90000  Biso   1.000  H
  C75      1.0000 0.96570  0.27350  0.89800  Biso   1.000  C
  C76      1.0000 0.85930  0.26640  0.92360  Biso   1.000  C
  H43      1.0000 0.81830  0.22690  0.91100  Biso   1.000  H
  C77      1.0000 0.81210  0.31350  0.96560  Biso   1.000  C
  H44      1.0000 0.74090  0.30710  0.97980  Biso   1.000  H
  C78      1.0000 0.01610  0.22330  0.85240  Biso   1.000  C
  C79      1.0000 0.12980  0.21430  0.85240  Biso   1.000  C
  H45      1.0000 0.17260  0.23890  0.88180  Biso   1.000  H
  C80      1.0000 0.17750  0.16900  0.80890  Biso   1.000  C
  H46      1.0000 0.25320  0.16490  0.80740  Biso   1.000  H
  C81      1.0000 0.11460  0.12970  0.76740  Biso   1.000  C
  C82      1.0000 0.00340  0.13700  0.76750  Biso   1.000  C
  H47      1.0000 0.96140  0.11050  0.73910  Biso   1.000  H
  C83      1.0000 0.95300  0.18360  0.80980  Biso   1.000  C
  H48      1.0000 0.87740  0.18840  0.80980  Biso   1.000  H
  C84      1.0000 0.16520  0.08070  0.71920  Biso   1.000  C
  O25      1.0000 0.11280  0.95295  0.56740  Biso   1.000  O
  O26      1.0000 0.27750  0.91860  0.54410  Biso   1.000  O
  O27      1.0000 0.89400  0.54220  0.18560  Biso   1.000  O
  O28      1.0000 0.73350  0.58000  0.21120  Biso   1.000  O
  C85      1.0000 0.17610  0.91550  0.53440  Biso   1.000  C
  C86      1.0000 0.12890  0.86770  0.48490  Biso   1.000  C
  C87      1.0000 0.02250  0.87450  0.45970  Biso   1.000  C
  H49      1.0000 0.98030  0.91290  0.47350  Biso   1.000  H
  C88      1.0000 0.97720  0.82840  0.41610  Biso   1.000  C
  H50      1.0000 0.90750  0.83630  0.40000  Biso   1.000  H
  C89      1.0000 0.03430  0.77350  0.39800  Biso   1.000  C
  C90      1.0000 0.14070  0.76640  0.42360  Biso   1.000  C
  H51      1.0000 0.18170  0.72690  0.41100  Biso   1.000  H
  C91      1.0000 0.18790  0.81350  0.46560  Biso   1.000  C
  H52      1.0000 0.25910  0.80710  0.47980  Biso   1.000  H
  C92      1.0000 0.98390  0.72330  0.35240  Biso   1.000  C
  C93      1.0000 0.87020  0.71430  0.35240  Biso   1.000  C
  H53      1.0000 0.82740  0.73890  0.38180  Biso   1.000  H
  C94      1.0000 0.82250  0.66900  0.30890  Biso   1.000  C
  H54      1.0000 0.74680  0.66490  0.30740  Biso   1.000  H
  C95      1.0000 0.88540  0.62970  0.26740  Biso   1.000  C
  C96      1.0000 0.99660  0.63700  0.26750  Biso   1.000  C
  H55      1.0000 0.03860  0.61050  0.23910  Biso   1.000  H
  C97      1.0000 0.04700  0.68360  0.30980  Biso   1.000  C
  H56      1.0000 0.12260  0.68840  0.30980  Biso   1.000  H
  C98      1.0000 0.83480  0.58070  0.21920  Biso   1.000  C
  O29      1.0000 0.38720  0.04705  0.56740  Biso   1.000  O
  O30      1.0000 0.22250  0.08140  0.54410  Biso   1.000  O
  O31      1.0000 0.60600  0.45780  0.18560  Biso   1.000  O
  O32      1.0000 0.76650  0.42000  0.21120  Biso   1.000  O
  C99      1.0000 0.32390  0.08450  0.53440  Biso   1.000  C
  C100     1.0000 0.37110  0.13230  0.48490  Biso   1.000  C
  C101     1.0000 0.47750  0.12550  0.45970  Biso   1.000  C
  H57      1.0000 0.51970  0.08710  0.47350  Biso   1.000  H
  C102     1.0000 0.52280  0.17160  0.41610  Biso   1.000  C
  H58      1.0000 0.59250  0.16370  0.40000  Biso   1.000  H
  C103     1.0000 0.46570  0.22650  0.39800  Biso   1.000  C
  C104     1.0000 0.35930  0.23360  0.42360  Biso   1.000  C
  H59      1.0000 0.31830  0.27310  0.41100  Biso   1.000  H
  C105     1.0000 0.31210  0.18650  0.46560  Biso   1.000  C
  H60      1.0000 0.24090  0.19290  0.47980  Biso   1.000  H
  C106     1.0000 0.51610  0.27670  0.35240  Biso   1.000  C
  C107     1.0000 0.62980  0.28570  0.35240  Biso   1.000  C
  H61      1.0000 0.67260  0.26110  0.38180  Biso   1.000  H
  C108     1.0000 0.67750  0.33100  0.30890  Biso   1.000  C
  H62      1.0000 0.75320  0.33510  0.30740  Biso   1.000  H
  C109     1.0000 0.61460  0.37030  0.26740  Biso   1.000  C
  C110     1.0000 0.50340  0.36300  0.26750  Biso   1.000  C
  H63      1.0000 0.46140  0.38950  0.23910  Biso   1.000  H
  C111     1.0000 0.45300  0.31640  0.30980  Biso   1.000  C
  H64      1.0000 0.37740  0.31160  0.30980  Biso   1.000  H
  C112     1.0000 0.66520  0.41930  0.21920  Biso   1.000  C
  In3      1.0000 0.75000  0.50000  0.12660  Biso   1.000  In
  In4      1.0000 0.25000  0.00000  0.62660  Biso   1.000  In
