data_image0
_cell_length_a       10.7108
_cell_length_b       13.2616
_cell_length_c       20.7926
_cell_angle_alpha    90
_cell_angle_beta     92.5034
_cell_angle_gamma    90

_symmetry_space_group_name_H-M    "P 1"
_symmetry_int_tables_number       1

loop_
  _symmetry_equiv_pos_as_xyz
  'x, y, z'

loop_
  _atom_site_label
  _atom_site_occupancy
  _atom_site_fract_x
  _atom_site_fract_y
  _atom_site_fract_z
  _atom_site_thermal_displace_type
  _atom_site_B_iso_or_equiv
  _atom_site_type_symbol
  Ag1      1.0000 0.19470  0.19007  0.06907  Biso   1.000  Ag
  Ag2      1.0000 0.09897  0.99414  0.40110  Biso   1.000  Ag
  S1       1.0000 0.95685  0.23640  0.10417  Biso   1.000  S
  S2       1.0000 0.02388  0.12382  0.48366  Biso   1.000  S
  N1       1.0000 0.18394  0.14170  0.18023  Biso   1.000  N
  N2       1.0000 0.13938  0.05943  0.30021  Biso   1.000  N
  N3       1.0000 0.71322  0.14724  0.03161  Biso   1.000  N
  N4       1.0000 0.75391  0.95694  0.97928  Biso   1.000  N
  N5       1.0000 0.02829  0.13805  0.63712  Biso   1.000  N
  N6       1.0000 0.19718  0.28150  0.68744  Biso   1.000  N
  N7       1.0000 0.96573  0.35392  0.53198  Biso   1.000  N
  N8       1.0000 0.19680  0.44982  0.55499  Biso   1.000  N
  C1       1.0000 0.25360  0.06710  0.20541  Biso   1.000  C
  H1       1.0000 0.31900  0.04100  0.18210  Biso   1.000  H
  C2       1.0000 0.23120  0.02525  0.26456  Biso   1.000  C
  H2       1.0000 0.27800  0.96950  0.28120  Biso   1.000  H
  C3       1.0000 0.06910  0.13467  0.27510  Biso   1.000  C
  H3       1.0000 0.00200  0.15760  0.29990  Biso   1.000  H
  C4       1.0000 0.08994  0.17521  0.21494  Biso   1.000  C
  C5       1.0000 0.00810  0.25812  0.18766  Biso   1.000  C
  H4       1.0000 0.93700  0.26530  0.21230  Biso   1.000  H
  H5       1.0000 0.05500  0.31900  0.18690  Biso   1.000  H
  C6       1.0000 0.87360  0.11833  0.11645  Biso   1.000  C
  H6       1.0000 0.81500  0.12880  0.15130  Biso   1.000  H
  H7       1.0000 0.93000  0.06810  0.12930  Biso   1.000  H
  C7       1.0000 0.80208  0.08596  0.05634  Biso   1.000  C
  C8       1.0000 0.82430  0.99230  0.02902  Biso   1.000  C
  H8       1.0000 0.88700  0.95050  0.04390  Biso   1.000  H
  C9       1.0000 0.66230  0.01725  0.95662  Biso   1.000  C
  H9       1.0000 0.61100  0.99400  0.92180  Biso   1.000  H
  C10      1.0000 0.64340  0.11294  0.98137  Biso   1.000  C
  H10      1.0000 0.58600  0.15540  0.96440  Biso   1.000  H
  C11      1.0000 0.01250  0.18303  0.69397  Biso   1.000  C
  H11      1.0000 0.94800  0.16270  0.71640  Biso   1.000  H
  C12      1.0000 0.09580  0.25471  0.71857  Biso   1.000  C
  H12      1.0000 0.08200  0.28510  0.75710  Biso   1.000  H
  C13      1.0000 0.21362  0.23434  0.63173  Biso   1.000  C
  H13      1.0000 0.28600  0.25080  0.60860  Biso   1.000  H
  C14      1.0000 0.13021  0.16419  0.60561  Biso   1.000  C
  C15      1.0000 0.15343  0.11271  0.54287  Biso   1.000  C
  H14      1.0000 0.16000  0.04050  0.55060  Biso   1.000  H
  H15      1.0000 0.23200  0.13590  0.52430  Biso   1.000  H
  C16      1.0000 0.05320  0.24749  0.44890  Biso   1.000  C
  H16      1.0000 0.98400  0.26070  0.42030  Biso   1.000  H
  H17      1.0000 0.12800  0.24350  0.42420  Biso   1.000  H
  C17      1.0000 0.06617  0.32930  0.49845  Biso   1.000  C
  C18      1.0000 0.18019  0.37782  0.51006  Biso   1.000  C
  H18      1.0000 0.25300  0.35840  0.48450  Biso   1.000  H
  C19      1.0000 0.09620  0.47513  0.58740  Biso   1.000  C
  H19      1.0000 0.10500  0.52740  0.62010  Biso   1.000  H
  C20      1.0000 0.98190  0.42715  0.57553  Biso   1.000  C
  H20      1.0000 0.91400  0.44300  0.59930  Biso   1.000  H
  Ag3      1.0000 0.30530  0.69007  0.93093  Biso   1.000  Ag
  Ag4      1.0000 0.40103  0.49414  0.59890  Biso   1.000  Ag
  S3       1.0000 0.54315  0.73640  0.89583  Biso   1.000  S
  S4       1.0000 0.47612  0.62382  0.51634  Biso   1.000  S
  N9       1.0000 0.31606  0.64170  0.81977  Biso   1.000  N
  N10      1.0000 0.36062  0.55943  0.69979  Biso   1.000  N
  N11      1.0000 0.78678  0.64724  0.96839  Biso   1.000  N
  N12      1.0000 0.74609  0.45694  0.02072  Biso   1.000  N
  N13      1.0000 0.47171  0.63805  0.36288  Biso   1.000  N
  N14      1.0000 0.30282  0.78150  0.31256  Biso   1.000  N
  N15      1.0000 0.53427  0.85392  0.46802  Biso   1.000  N
  N16      1.0000 0.30320  0.94982  0.44501  Biso   1.000  N
  C21      1.0000 0.24640  0.56710  0.79459  Biso   1.000  C
  H21      1.0000 0.18100  0.54100  0.81790  Biso   1.000  H
  C22      1.0000 0.26880  0.52525  0.73544  Biso   1.000  C
  H22      1.0000 0.22200  0.46950  0.71880  Biso   1.000  H
  C23      1.0000 0.43090  0.63467  0.72490  Biso   1.000  C
  H23      1.0000 0.49800  0.65760  0.70010  Biso   1.000  H
  C24      1.0000 0.41006  0.67521  0.78506  Biso   1.000  C
  C25      1.0000 0.49190  0.75812  0.81234  Biso   1.000  C
  H24      1.0000 0.56300  0.76530  0.78770  Biso   1.000  H
  H25      1.0000 0.44500  0.81900  0.81310  Biso   1.000  H
  C26      1.0000 0.62640  0.61833  0.88355  Biso   1.000  C
  H26      1.0000 0.68500  0.62880  0.84870  Biso   1.000  H
  H27      1.0000 0.57000  0.56810  0.87070  Biso   1.000  H
  C27      1.0000 0.69792  0.58596  0.94366  Biso   1.000  C
  C28      1.0000 0.67570  0.49230  0.97098  Biso   1.000  C
  H28      1.0000 0.61300  0.45050  0.95610  Biso   1.000  H
  C29      1.0000 0.83770  0.51725  0.04338  Biso   1.000  C
  H29      1.0000 0.88900  0.49400  0.07820  Biso   1.000  H
  C30      1.0000 0.85660  0.61294  0.01863  Biso   1.000  C
  H30      1.0000 0.91400  0.65540  0.03560  Biso   1.000  H
  C31      1.0000 0.48750  0.68303  0.30603  Biso   1.000  C
  H31      1.0000 0.55200  0.66270  0.28360  Biso   1.000  H
  C32      1.0000 0.40420  0.75471  0.28143  Biso   1.000  C
  H32      1.0000 0.41800  0.78510  0.24290  Biso   1.000  H
  C33      1.0000 0.28638  0.73434  0.36827  Biso   1.000  C
  H33      1.0000 0.21400  0.75080  0.39140  Biso   1.000  H
  C34      1.0000 0.36979  0.66419  0.39439  Biso   1.000  C
  C35      1.0000 0.34657  0.61271  0.45713  Biso   1.000  C
  H34      1.0000 0.34000  0.54050  0.44940  Biso   1.000  H
  H35      1.0000 0.26800  0.63590  0.47570  Biso   1.000  H
  C36      1.0000 0.44680  0.74749  0.55110  Biso   1.000  C
  H36      1.0000 0.51600  0.76070  0.57970  Biso   1.000  H
  H37      1.0000 0.37200  0.74350  0.57580  Biso   1.000  H
  C37      1.0000 0.43383  0.82930  0.50155  Biso   1.000  C
  C38      1.0000 0.31981  0.87782  0.48994  Biso   1.000  C
  H38      1.0000 0.24700  0.85840  0.51550  Biso   1.000  H
  C39      1.0000 0.40380  0.97513  0.41260  Biso   1.000  C
  H39      1.0000 0.39500  0.02740  0.37990  Biso   1.000  H
  C40      1.0000 0.51810  0.92715  0.42447  Biso   1.000  C
  H40      1.0000 0.58600  0.94300  0.40070  Biso   1.000  H
  Ag5      1.0000 0.80529  0.80993  0.93093  Biso   1.000  Ag
  Ag6      1.0000 0.90103  0.00586  0.59890  Biso   1.000  Ag
  S5       1.0000 0.04315  0.76360  0.89583  Biso   1.000  S
  S6       1.0000 0.97612  0.87618  0.51634  Biso   1.000  S
  N17      1.0000 0.81606  0.85830  0.81977  Biso   1.000  N
  N18      1.0000 0.86062  0.94057  0.69979  Biso   1.000  N
  N19      1.0000 0.28678  0.85276  0.96839  Biso   1.000  N
  N20      1.0000 0.24609  0.04306  0.02072  Biso   1.000  N
  N21      1.0000 0.97171  0.86195  0.36288  Biso   1.000  N
  N22      1.0000 0.80282  0.71850  0.31256  Biso   1.000  N
  N23      1.0000 0.03427  0.64608  0.46802  Biso   1.000  N
  N24      1.0000 0.80320  0.55018  0.44501  Biso   1.000  N
  C41      1.0000 0.74640  0.93290  0.79459  Biso   1.000  C
  H41      1.0000 0.68100  0.95900  0.81790  Biso   1.000  H
  C42      1.0000 0.76880  0.97475  0.73544  Biso   1.000  C
  H42      1.0000 0.72200  0.03050  0.71880  Biso   1.000  H
  C43      1.0000 0.93090  0.86533  0.72490  Biso   1.000  C
  H43      1.0000 0.99800  0.84240  0.70010  Biso   1.000  H
  C44      1.0000 0.91006  0.82479  0.78506  Biso   1.000  C
  C45      1.0000 0.99190  0.74188  0.81234  Biso   1.000  C
  H44      1.0000 0.06300  0.73470  0.78770  Biso   1.000  H
  H45      1.0000 0.94500  0.68100  0.81310  Biso   1.000  H
  C46      1.0000 0.12640  0.88167  0.88355  Biso   1.000  C
  H46      1.0000 0.18500  0.87120  0.84870  Biso   1.000  H
  H47      1.0000 0.07000  0.93190  0.87070  Biso   1.000  H
  C47      1.0000 0.19792  0.91404  0.94366  Biso   1.000  C
  C48      1.0000 0.17570  0.00770  0.97098  Biso   1.000  C
  H48      1.0000 0.11300  0.04950  0.95610  Biso   1.000  H
  C49      1.0000 0.33770  0.98275  0.04338  Biso   1.000  C
  H49      1.0000 0.38900  0.00600  0.07820  Biso   1.000  H
  C50      1.0000 0.35660  0.88706  0.01863  Biso   1.000  C
  H50      1.0000 0.41400  0.84460  0.03560  Biso   1.000  H
  C51      1.0000 0.98750  0.81697  0.30603  Biso   1.000  C
  H51      1.0000 0.05200  0.83730  0.28360  Biso   1.000  H
  C52      1.0000 0.90420  0.74529  0.28143  Biso   1.000  C
  H52      1.0000 0.91800  0.71490  0.24290  Biso   1.000  H
  C53      1.0000 0.78638  0.76566  0.36827  Biso   1.000  C
  H53      1.0000 0.71400  0.74920  0.39140  Biso   1.000  H
  C54      1.0000 0.86979  0.83581  0.39439  Biso   1.000  C
  C55      1.0000 0.84657  0.88729  0.45713  Biso   1.000  C
  H54      1.0000 0.84000  0.95950  0.44940  Biso   1.000  H
  H55      1.0000 0.76800  0.86410  0.47570  Biso   1.000  H
  C56      1.0000 0.94680  0.75251  0.55110  Biso   1.000  C
  H56      1.0000 0.01600  0.73930  0.57970  Biso   1.000  H
  H57      1.0000 0.87200  0.75650  0.57580  Biso   1.000  H
  C57      1.0000 0.93383  0.67070  0.50155  Biso   1.000  C
  C58      1.0000 0.81981  0.62218  0.48994  Biso   1.000  C
  H58      1.0000 0.74700  0.64160  0.51550  Biso   1.000  H
  C59      1.0000 0.90380  0.52487  0.41260  Biso   1.000  C
  H59      1.0000 0.89500  0.47260  0.37990  Biso   1.000  H
  C60      1.0000 0.01810  0.57285  0.42447  Biso   1.000  C
  H60      1.0000 0.08600  0.55700  0.40070  Biso   1.000  H
  Ag7      1.0000 0.69470  0.30993  0.06907  Biso   1.000  Ag
  Ag8      1.0000 0.59897  0.50586  0.40110  Biso   1.000  Ag
  S7       1.0000 0.45685  0.26360  0.10417  Biso   1.000  S
  S8       1.0000 0.52388  0.37618  0.48366  Biso   1.000  S
  N25      1.0000 0.68394  0.35830  0.18023  Biso   1.000  N
  N26      1.0000 0.63938  0.44057  0.30021  Biso   1.000  N
  N27      1.0000 0.21322  0.35276  0.03161  Biso   1.000  N
  N28      1.0000 0.25391  0.54306  0.97928  Biso   1.000  N
  N29      1.0000 0.52829  0.36195  0.63712  Biso   1.000  N
  N30      1.0000 0.69718  0.21850  0.68744  Biso   1.000  N
  N31      1.0000 0.46573  0.14608  0.53198  Biso   1.000  N
  N32      1.0000 0.69680  0.05018  0.55499  Biso   1.000  N
  C61      1.0000 0.75360  0.43290  0.20541  Biso   1.000  C
  H61      1.0000 0.81900  0.45900  0.18210  Biso   1.000  H
  C62      1.0000 0.73120  0.47475  0.26456  Biso   1.000  C
  H62      1.0000 0.77800  0.53050  0.28120  Biso   1.000  H
  C63      1.0000 0.56910  0.36533  0.27510  Biso   1.000  C
  H63      1.0000 0.50200  0.34240  0.29990  Biso   1.000  H
  C64      1.0000 0.58994  0.32479  0.21494  Biso   1.000  C
  C65      1.0000 0.50810  0.24188  0.18766  Biso   1.000  C
  H64      1.0000 0.43700  0.23470  0.21230  Biso   1.000  H
  H65      1.0000 0.55500  0.18100  0.18690  Biso   1.000  H
  C66      1.0000 0.37360  0.38167  0.11645  Biso   1.000  C
  H66      1.0000 0.31500  0.37120  0.15130  Biso   1.000  H
  H67      1.0000 0.43000  0.43190  0.12930  Biso   1.000  H
  C67      1.0000 0.30208  0.41404  0.05634  Biso   1.000  C
  C68      1.0000 0.32430  0.50770  0.02902  Biso   1.000  C
  H68      1.0000 0.38700  0.54950  0.04390  Biso   1.000  H
  C69      1.0000 0.16230  0.48275  0.95662  Biso   1.000  C
  H69      1.0000 0.11100  0.50600  0.92180  Biso   1.000  H
  C70      1.0000 0.14340  0.38706  0.98137  Biso   1.000  C
  H70      1.0000 0.08600  0.34460  0.96440  Biso   1.000  H
  C71      1.0000 0.51250  0.31697  0.69397  Biso   1.000  C
  H71      1.0000 0.44800  0.33730  0.71640  Biso   1.000  H
  C72      1.0000 0.59580  0.24529  0.71857  Biso   1.000  C
  H72      1.0000 0.58200  0.21490  0.75710  Biso   1.000  H
  C73      1.0000 0.71362  0.26566  0.63173  Biso   1.000  C
  H73      1.0000 0.78600  0.24920  0.60860  Biso   1.000  H
  C74      1.0000 0.63021  0.33581  0.60561  Biso   1.000  C
  C75      1.0000 0.65343  0.38729  0.54287  Biso   1.000  C
  H74      1.0000 0.66000  0.45950  0.55060  Biso   1.000  H
  H75      1.0000 0.73200  0.36410  0.52430  Biso   1.000  H
  C76      1.0000 0.55320  0.25251  0.44890  Biso   1.000  C
  H76      1.0000 0.48400  0.23930  0.42030  Biso   1.000  H
  H77      1.0000 0.62800  0.25650  0.42420  Biso   1.000  H
  C77      1.0000 0.56617  0.17070  0.49845  Biso   1.000  C
  C78      1.0000 0.68019  0.12218  0.51006  Biso   1.000  C
  H78      1.0000 0.75300  0.14160  0.48450  Biso   1.000  H
  C79      1.0000 0.59620  0.02487  0.58740  Biso   1.000  C
  H79      1.0000 0.60500  0.97260  0.62010  Biso   1.000  H
  C80      1.0000 0.48190  0.07285  0.57553  Biso   1.000  C
  H80      1.0000 0.41400  0.05700  0.59930  Biso   1.000  H
