data_GAMTUK_clean
_audit_creation_date              2014-07-02
_audit_creation_method            'Materials Studio'
_symmetry_space_group_name_H-M    'P1'
_symmetry_Int_Tables_number       1
_symmetry_cell_setting            triclinic
loop_
_symmetry_equiv_pos_as_xyz
  x,y,z
_cell_length_a                    11.8120
_cell_length_b                    12.4440
_cell_length_c                    12.5220
_cell_angle_alpha                 118.9490
_cell_angle_beta                  108.3000
_cell_angle_gamma                 98.3870
loop_
_atom_site_label
_atom_site_type_symbol
_atom_site_fract_x
_atom_site_fract_y
_atom_site_fract_z
_atom_site_U_iso_or_equiv
_atom_site_adp_type
_atom_site_occupancy
Ce1    Ce    0.52169   0.82224   0.99015   0.01267  Uiso   1.00
Ce2    Ce    0.80270   0.75667   0.23604   0.01267  Uiso   1.00
Ce3    Ce    0.47831   0.17776   0.00985   0.01267  Uiso   1.00
Ce4    Ce    0.19730   0.24333   0.76396   0.01267  Uiso   1.00
H1     H     0.40720   0.55520   0.20500   0.01267  Uiso   1.00
H2     H     0.15130   0.51020   0.34430   0.01267  Uiso   1.00
H3     H     0.34210   0.87300   0.44760   0.01267  Uiso   1.00
H4     H     0.50820   0.90840   0.39510   0.01267  Uiso   1.00
H5     H     0.58140   0.80830   0.38320   0.01267  Uiso   1.00
H6     H     0.31000   0.34500   0.22290   0.01267  Uiso   1.00
H7     H     0.16110   0.32190   0.17710   0.01267  Uiso   1.00
H8     H     0.15300   0.71810   0.53850   0.01267  Uiso   1.00
H9     H     0.22080   0.85840   0.56970   0.01267  Uiso   1.00
H10    H     0.43460   0.30350   0.48240   0.01267  Uiso   1.00
H11    H     0.12340   0.99180   0.16250   0.01267  Uiso   1.00
H12    H     0.08790   0.32740   0.41930   0.01267  Uiso   1.00
H13    H     0.27360   0.52180   0.59180   0.01267  Uiso   1.00
H14    H     0.41200   0.51810   0.60600   0.01267  Uiso   1.00
H15    H     0.44520   0.07980   0.34540   0.01267  Uiso   1.00
H16    H     0.32310   0.96750   0.20560   0.01267  Uiso   1.00
H17    H     0.92540   0.03250   0.08350   0.01267  Uiso   1.00
H18    H     0.91210   0.16640   0.18270   0.01267  Uiso   1.00
H19    H     0.59280   0.44480   0.79500   0.01267  Uiso   1.00
H20    H     0.84870   0.48980   0.65570   0.01267  Uiso   1.00
H21    H     0.65790   0.12700   0.55240   0.01267  Uiso   1.00
H22    H     0.49180   0.09160   0.60490   0.01267  Uiso   1.00
H23    H     0.41860   0.19170   0.61680   0.01267  Uiso   1.00
H24    H     0.69000   0.65500   0.77710   0.01267  Uiso   1.00
H25    H     0.83890   0.67810   0.82290   0.01267  Uiso   1.00
H26    H     0.84700   0.28190   0.46150   0.01267  Uiso   1.00
H27    H     0.77920   0.14160   0.43030   0.01267  Uiso   1.00
H28    H     0.56540   0.69650   0.51760   0.01267  Uiso   1.00
H29    H     0.87660   0.00820   0.83750   0.01267  Uiso   1.00
H30    H     0.91210   0.67260   0.58070   0.01267  Uiso   1.00
H31    H     0.72640   0.47820   0.40820   0.01267  Uiso   1.00
H32    H     0.58800   0.48190   0.39400   0.01267  Uiso   1.00
H33    H     0.55480   0.92020   0.65460   0.01267  Uiso   1.00
H34    H     0.67690   0.03250   0.79440   0.01267  Uiso   1.00
H35    H     0.07460   0.96750   0.91650   0.01267  Uiso   1.00
H36    H     0.08790   0.83360   0.81730   0.01267  Uiso   1.00
C1     C     0.39180   0.72760   0.32880   0.01267  Uiso   1.00
C2     C     0.36290   0.59300   0.25660   0.01267  Uiso   1.00
C3     C     0.27060   0.51260   0.25840   0.01267  Uiso   1.00
C4     C     0.21010   0.56500   0.33810   0.01267  Uiso   1.00
C5     C     0.23730   0.70390   0.41150   0.01267  Uiso   1.00
C6     C     0.32630   0.78130   0.40230   0.01267  Uiso   1.00
C7     C     0.50160   0.81640   0.33650   0.01267  Uiso   1.00
C8     C     0.49650   0.79400   0.20580   0.01267  Uiso   1.00
C9     C     0.23900   0.36480   0.17770   0.01267  Uiso   1.00
C10    C     0.21780   0.30890   0.03350   0.01267  Uiso   1.00
C11    C     0.16830   0.76490   0.49620   0.01267  Uiso   1.00
C12    C     0.04230   0.75410   0.40310   0.01267  Uiso   1.00
C13    C     0.26980   0.33450   0.46870   0.01267  Uiso   1.00
C14    C     0.34460   0.26430   0.42890   0.01267  Uiso   1.00
C15    C     0.29160   0.13600   0.31110   0.01267  Uiso   1.00
C16    C     0.16110   0.08090   0.23850   0.01267  Uiso   1.00
C17    C     0.08220   0.14990   0.27170   0.01267  Uiso   1.00
C18    C     0.13990   0.27880   0.39170   0.01267  Uiso   1.00
C19    C     0.33110   0.47250   0.59860   0.01267  Uiso   1.00
C20    C     0.35880   0.47600   0.72660   0.01267  Uiso   1.00
C21    C     0.37380   0.06290   0.26490   0.01267  Uiso   1.00
C22    C     0.42840   0.10000   0.18770   0.01267  Uiso   1.00
C23    C     0.93860   0.09290   0.17810   0.01267  Uiso   1.00
C24    C     0.84810   0.01870   0.20450   0.01267  Uiso   1.00
C25    C     0.60820   0.27240   0.67120   0.01267  Uiso   1.00
C26    C     0.63710   0.40700   0.74340   0.01267  Uiso   1.00
C27    C     0.72940   0.48740   0.74160   0.01267  Uiso   1.00
C28    C     0.78990   0.43500   0.66190   0.01267  Uiso   1.00
C29    C     0.76270   0.29610   0.58850   0.01267  Uiso   1.00
C30    C     0.67370   0.21870   0.59770   0.01267  Uiso   1.00
C31    C     0.49840   0.18360   0.66350   0.01267  Uiso   1.00
C32    C     0.50350   0.20600   0.79420   0.01267  Uiso   1.00
C33    C     0.76100   0.63520   0.82230   0.01267  Uiso   1.00
C34    C     0.78220   0.69110   0.96650   0.01267  Uiso   1.00
C35    C     0.83170   0.23510   0.50380   0.01267  Uiso   1.00
C36    C     0.95770   0.24590   0.59690   0.01267  Uiso   1.00
C37    C     0.73020   0.66550   0.53130   0.01267  Uiso   1.00
C38    C     0.65540   0.73570   0.57110   0.01267  Uiso   1.00
C39    C     0.70840   0.86400   0.68890   0.01267  Uiso   1.00
C40    C     0.83890   0.91910   0.76150   0.01267  Uiso   1.00
C41    C     0.91780   0.85010   0.72830   0.01267  Uiso   1.00
C42    C     0.86010   0.72120   0.60830   0.01267  Uiso   1.00
C43    C     0.66890   0.52750   0.40140   0.01267  Uiso   1.00
C44    C     0.64120   0.52400   0.27340   0.01267  Uiso   1.00
C45    C     0.62620   0.93710   0.73510   0.01267  Uiso   1.00
C46    C     0.57160   0.90000   0.81230   0.01267  Uiso   1.00
C47    C     0.06140   0.90710   0.82190   0.01267  Uiso   1.00
C48    C     0.15190   0.98130   0.79550   0.01267  Uiso   1.00
O1     O     0.39700   0.76760   0.11230   0.01267  Uiso   1.00
O2     O     0.60310   0.81370   0.19890   0.01267  Uiso   1.00
O3     O     0.11510   0.29350   0.94620   0.01267  Uiso   1.00
O4     O     0.30440   0.27690   0.99890   0.01267  Uiso   1.00
O5     O     0.04190   0.83560   0.36910   0.01267  Uiso   1.00
O6     O     0.93780   0.66480   0.35670   0.01267  Uiso   1.00
O7     O     0.40920   0.58500   0.84160   0.01267  Uiso   1.00
O8     O     0.33140   0.36870   0.71920   0.01267  Uiso   1.00
O9     O     0.42640   0.20300   0.19270   0.01267  Uiso   1.00
O10    O     0.47210   0.02280   0.11360   0.01267  Uiso   1.00
O11    O     0.73310   0.00220   0.14350   0.01267  Uiso   1.00
O12    O     0.88980   0.97520   0.27420   0.01267  Uiso   1.00
O13    O     0.60300   0.23240   0.88770   0.01267  Uiso   1.00
O14    O     0.39690   0.18630   0.80110   0.01267  Uiso   1.00
O15    O     0.88490   0.70650   0.05380   0.01267  Uiso   1.00
O16    O     0.69560   0.72310   0.00110   0.01267  Uiso   1.00
O17    O     0.95810   0.16440   0.63090   0.01267  Uiso   1.00
O18    O     0.06220   0.33520   0.64330   0.01267  Uiso   1.00
O19    O     0.59080   0.41500   0.15840   0.01267  Uiso   1.00
O20    O     0.66860   0.63130   0.28080   0.01267  Uiso   1.00
O21    O     0.57360   0.79700   0.80730   0.01267  Uiso   1.00
O22    O     0.52790   0.97720   0.88640   0.01267  Uiso   1.00
O23    O     0.26690   0.99780   0.85650   0.01267  Uiso   1.00
O24    O     0.11020   0.02480   0.72580   0.01267  Uiso   1.00
