data_image0
_cell_length_a       11.857
_cell_length_b       12.554
_cell_length_c       12.515
_cell_angle_alpha    119.12
_cell_angle_beta     98.44
_cell_angle_gamma    108.27

_symmetry_space_group_name_H-M    "P 1"
_symmetry_int_tables_number       1

loop_
  _symmetry_equiv_pos_as_xyz
  'x, y, z'

loop_
  _atom_site_label
  _atom_site_occupancy
  _atom_site_fract_x
  _atom_site_fract_y
  _atom_site_fract_z
  _atom_site_thermal_displace_type
  _atom_site_B_iso_or_equiv
  _atom_site_type_symbol
  La1      1.0000 0.47975  0.01103  0.17795  Biso   1.000  La
  La2      1.0000 0.80285  0.23593  0.75610  Biso   1.000  La
  O1       1.0000 0.59260  0.16150  0.41580  Biso   1.000  O
  O2       1.0000 0.66850  0.28300  0.63228  Biso   1.000  O
  O3       1.0000 0.57240  0.80200  0.79650  Biso   1.000  O
  O4       1.0000 0.52900  0.88670  0.97680  Biso   1.000  O
  O5       1.0000 0.26660  0.85350  0.99710  Biso   1.000  O
  O6       1.0000 0.10980  0.72670  0.02430  Biso   1.000  O
  O7       1.0000 0.30500  0.99980  0.27820  Biso   1.000  O
  O8       1.0000 0.11590  0.95020  0.29400  Biso   1.000  O
  O9       1.0000 0.39490  0.11090  0.76490  Biso   1.000  O
  O10      1.0000 0.60170  0.19830  0.81240  Biso   1.000  O
  O11      1.0000 0.94030  0.36090  0.66710  Biso   1.000  O
  O12      1.0000 0.04330  0.36820  0.83360  Biso   1.000  O
  O13      1.0000 0.42560  0.97500  0.46680  Biso   1.000  O
  C1       1.0000 0.73350  0.53320  0.66680  Biso   1.000  C
  C2       1.0000 0.65620  0.57230  0.73640  Biso   1.000  C
  H1       1.0000 0.56640  0.51900  0.69620  Biso   1.000  H
  C3       1.0000 0.70900  0.68900  0.86460  Biso   1.000  C
  C4       1.0000 0.84070  0.76670  0.92180  Biso   1.000  C
  H2       1.0000 0.87750  0.84470  0.00970  Biso   1.000  H
  C5       1.0000 0.91890  0.73190  0.85240  Biso   1.000  C
  C6       1.0000 0.86460  0.61380  0.72530  Biso   1.000  C
  H3       1.0000 0.91780  0.58800  0.67820  Biso   1.000  H
  C7       1.0000 0.67320  0.40260  0.52980  Biso   1.000  C
  H4       1.0000 0.59340  0.39540  0.48280  Biso   1.000  H
  H5       1.0000 0.73160  0.40820  0.48170  Biso   1.000  H
  C8       1.0000 0.64300  0.27450  0.52690  Biso   1.000  C
  C9       1.0000 0.62380  0.73360  0.93720  Biso   1.000  C
  H6       1.0000 0.67270  0.79170  0.03270  Biso   1.000  H
  H7       1.0000 0.55180  0.65220  0.91750  Biso   1.000  H
  C10      1.0000 0.57200  0.81190  0.90010  Biso   1.000  C
  C11      1.0000 0.06020  0.82510  0.91120  Biso   1.000  C
  H8       1.0000 0.07270  0.91880  0.97400  Biso   1.000  H
  H9       1.0000 0.08720  0.82420  0.83970  Biso   1.000  H
  C12      1.0000 0.14990  0.79680  0.98150  Biso   1.000  C
  C13      1.0000 0.27220  0.25940  0.51270  Biso   1.000  C
  C14      1.0000 0.36330  0.25590  0.59360  Biso   1.000  C
  H10      1.0000 0.40640  0.20310  0.55610  Biso   1.000  H
  C15      1.0000 0.39210  0.32900  0.72910  Biso   1.000  C
  C16      1.0000 0.32700  0.40450  0.78250  Biso   1.000  C
  H11      1.0000 0.34310  0.45110  0.87390  Biso   1.000  H
  C17      1.0000 0.23870  0.41300  0.70430  Biso   1.000  C
  C18      1.0000 0.21190  0.34070  0.56990  Biso   1.000  C
  H12      1.0000 0.15200  0.34650  0.51610  Biso   1.000  H
  C19      1.0000 0.24130  0.18060  0.36520  Biso   1.000  C
  H13      1.0000 0.16450  0.18150  0.32280  Biso   1.000  H
  H14      1.0000 0.31290  0.22580  0.34660  Biso   1.000  H
  C20      1.0000 0.21810  0.03450  0.30780  Biso   1.000  C
  C21      1.0000 0.50110  0.33830  0.81820  Biso   1.000  C
  H15      1.0000 0.50630  0.39560  0.90950  Biso   1.000  H
  H16      1.0000 0.58100  0.38650  0.81170  Biso   1.000  H
  C22      1.0000 0.49640  0.20590  0.79350  Biso   1.000  C
  C23      1.0000 0.16810  0.49610  0.76340  Biso   1.000  C
  H17      1.0000 0.22040  0.57090  0.85640  Biso   1.000  H
  H18      1.0000 0.15200  0.53670  0.71550  Biso   1.000  H
  C24      1.0000 0.04320  0.40410  0.75400  Biso   1.000  C
  La3      1.0000 0.52025  0.98897  0.82205  Biso   1.000  La
  La4      1.0000 0.19715  0.76407  0.24390  Biso   1.000  La
  O14      1.0000 0.40740  0.83850  0.58420  Biso   1.000  O
  O15      1.0000 0.33150  0.71700  0.36772  Biso   1.000  O
  O16      1.0000 0.42760  0.19800  0.20350  Biso   1.000  O
  O17      1.0000 0.47100  0.11330  0.02320  Biso   1.000  O
  O18      1.0000 0.73340  0.14650  0.00290  Biso   1.000  O
  O19      1.0000 0.89020  0.27330  0.97570  Biso   1.000  O
  O20      1.0000 0.69500  0.00020  0.72180  Biso   1.000  O
  O21      1.0000 0.88410  0.04980  0.70600  Biso   1.000  O
  O22      1.0000 0.60510  0.88910  0.23510  Biso   1.000  O
  O23      1.0000 0.39830  0.80170  0.18760  Biso   1.000  O
  O24      1.0000 0.05970  0.63910  0.33290  Biso   1.000  O
  O25      1.0000 0.95670  0.63180  0.16640  Biso   1.000  O
  O26      1.0000 0.57440  0.02500  0.53320  Biso   1.000  O
  C25      1.0000 0.26650  0.46680  0.33320  Biso   1.000  C
  C26      1.0000 0.34380  0.42770  0.26360  Biso   1.000  C
  H19      1.0000 0.43360  0.48100  0.30380  Biso   1.000  H
  C27      1.0000 0.29100  0.31100  0.13540  Biso   1.000  C
  C28      1.0000 0.15930  0.23330  0.07820  Biso   1.000  C
  H20      1.0000 0.12250  0.15530  0.99030  Biso   1.000  H
  C29      1.0000 0.08110  0.26810  0.14760  Biso   1.000  C
  C30      1.0000 0.13540  0.38620  0.27470  Biso   1.000  C
  H21      1.0000 0.08220  0.41200  0.32180  Biso   1.000  H
  C31      1.0000 0.32680  0.59740  0.47020  Biso   1.000  C
  H22      1.0000 0.40660  0.60460  0.51720  Biso   1.000  H
  H23      1.0000 0.26840  0.59180  0.51830  Biso   1.000  H
  C32      1.0000 0.35700  0.72550  0.47310  Biso   1.000  C
  C33      1.0000 0.37620  0.26640  0.06280  Biso   1.000  C
  H24      1.0000 0.32730  0.20830  0.96730  Biso   1.000  H
  H25      1.0000 0.44820  0.34780  0.08250  Biso   1.000  H
  C34      1.0000 0.42800  0.18810  0.09990  Biso   1.000  C
  C35      1.0000 0.93980  0.17490  0.08880  Biso   1.000  C
  H26      1.0000 0.92730  0.08120  0.02600  Biso   1.000  H
  H27      1.0000 0.91280  0.17580  0.16030  Biso   1.000  H
  C36      1.0000 0.85010  0.20320  0.01850  Biso   1.000  C
  C37      1.0000 0.72780  0.74060  0.48730  Biso   1.000  C
  C38      1.0000 0.63670  0.74410  0.40640  Biso   1.000  C
  H28      1.0000 0.59360  0.79690  0.44390  Biso   1.000  H
  C39      1.0000 0.60790  0.67100  0.27090  Biso   1.000  C
  C40      1.0000 0.67300  0.59550  0.21750  Biso   1.000  C
  H29      1.0000 0.65690  0.54890  0.12610  Biso   1.000  H
  C41      1.0000 0.76130  0.58700  0.29570  Biso   1.000  C
  C42      1.0000 0.78810  0.65930  0.43010  Biso   1.000  C
  H30      1.0000 0.84800  0.65350  0.48390  Biso   1.000  H
  C43      1.0000 0.75870  0.81940  0.63480  Biso   1.000  C
  H31      1.0000 0.83550  0.81850  0.67720  Biso   1.000  H
  H32      1.0000 0.68710  0.77420  0.65340  Biso   1.000  H
  C44      1.0000 0.78190  0.96550  0.69220  Biso   1.000  C
  C45      1.0000 0.49890  0.66170  0.18180  Biso   1.000  C
  H33      1.0000 0.49370  0.60440  0.09050  Biso   1.000  H
  H34      1.0000 0.41900  0.61350  0.18830  Biso   1.000  H
  C46      1.0000 0.50360  0.79410  0.20650  Biso   1.000  C
  C47      1.0000 0.83190  0.50390  0.23660  Biso   1.000  C
  H35      1.0000 0.77960  0.42910  0.14360  Biso   1.000  H
  H36      1.0000 0.84800  0.46330  0.28450  Biso   1.000  H
  C48      1.0000 0.95680  0.59590  0.24600  Biso   1.000  C
