data_GAMTEU_clean
_audit_creation_date              2014-07-02
_audit_creation_method            'Materials Studio'
_symmetry_space_group_name_H-M    'P1'
_symmetry_Int_Tables_number       1
_symmetry_cell_setting            triclinic
loop_
_symmetry_equiv_pos_as_xyz
  x,y,z
_cell_length_a                    8.5820
_cell_length_b                    10.9560
_cell_length_c                    11.2170
_cell_angle_alpha                 64.1700
_cell_angle_beta                  79.9800
_cell_angle_gamma                 73.4310
loop_
_atom_site_label
_atom_site_type_symbol
_atom_site_fract_x
_atom_site_fract_y
_atom_site_fract_z
_atom_site_U_iso_or_equiv
_atom_site_adp_type
_atom_site_occupancy
Ce1    Ce    0.74800   0.50266   0.00324   0.01267  Uiso   1.00
Ce2    Ce    0.25200   0.49734   0.99676   0.01267  Uiso   1.00
H1     H     0.09300   0.10910   0.51590   0.01267  Uiso   1.00
H2     H     0.76330   0.06850   0.82740   0.01267  Uiso   1.00
H3     H     0.75170   0.44810   0.52100   0.01267  Uiso   1.00
H4     H     0.11790   0.32820   0.35560   0.01267  Uiso   1.00
H5     H     0.01590   0.46600   0.37390   0.01267  Uiso   1.00
H6     H     0.05820   0.87490   0.67450   0.01267  Uiso   1.00
H7     H     0.93310   0.85670   0.80120   0.01267  Uiso   1.00
H8     H     0.51780   0.41120   0.68190   0.01267  Uiso   1.00
H9     H     0.52770   0.26620   0.80910   0.01267  Uiso   1.00
H10    H     0.90700   0.89090   0.48410   0.01267  Uiso   1.00
H11    H     0.23670   0.93150   0.17260   0.01267  Uiso   1.00
H12    H     0.24830   0.55190   0.47900   0.01267  Uiso   1.00
H13    H     0.88210   0.67180   0.64440   0.01267  Uiso   1.00
H14    H     0.98410   0.53400   0.62610   0.01267  Uiso   1.00
H15    H     0.94180   0.12510   0.32550   0.01267  Uiso   1.00
H16    H     0.06690   0.14330   0.19880   0.01267  Uiso   1.00
H17    H     0.48220   0.58880   0.31810   0.01267  Uiso   1.00
H18    H     0.47230   0.73380   0.19090   0.01267  Uiso   1.00
C1     C     0.93370   0.29150   0.50180   0.01267  Uiso   1.00
C2     C     0.00140   0.15000   0.55860   0.01267  Uiso   1.00
C3     C     0.93300   0.06600   0.68160   0.01267  Uiso   1.00
C4     C     0.80470   0.12500   0.74300   0.01267  Uiso   1.00
C5     C     0.73110   0.26840   0.68450   0.01267  Uiso   1.00
C6     C     0.79900   0.35080   0.56220   0.01267  Uiso   1.00
C7     C     0.00620   0.38070   0.36840   0.01267  Uiso   1.00
C8     C     0.91640   0.42540   0.24600   0.01267  Uiso   1.00
C9     C     0.01590   0.90820   0.74570   0.01267  Uiso   1.00
C10    C     0.15800   0.87430   0.83230   0.01267  Uiso   1.00
C11    C     0.59040   0.33610   0.75050   0.01267  Uiso   1.00
C12    C     0.64020   0.39790   0.83260   0.01267  Uiso   1.00
C13    C     0.06630   0.70850   0.49820   0.01267  Uiso   1.00
C14    C     0.99860   0.85000   0.44140   0.01267  Uiso   1.00
C15    C     0.06700   0.93400   0.31840   0.01267  Uiso   1.00
C16    C     0.19530   0.87500   0.25700   0.01267  Uiso   1.00
C17    C     0.26890   0.73160   0.31550   0.01267  Uiso   1.00
C18    C     0.20100   0.64920   0.43780   0.01267  Uiso   1.00
C19    C     0.99380   0.61930   0.63160   0.01267  Uiso   1.00
C20    C     0.08360   0.57460   0.75400   0.01267  Uiso   1.00
C21    C     0.98410   0.09180   0.25430   0.01267  Uiso   1.00
C22    C     0.84200   0.12570   0.16770   0.01267  Uiso   1.00
C23    C     0.40960   0.66390   0.24950   0.01267  Uiso   1.00
C24    C     0.35980   0.60210   0.16740   0.01267  Uiso   1.00
O1     O     0.75410   0.44750   0.24940   0.01267  Uiso   1.00
O2     O     0.99190   0.45690   0.13060   0.01267  Uiso   1.00
O3     O     0.22160   0.74350   0.88410   0.01267  Uiso   1.00
O4     O     0.19340   0.96060   0.85390   0.01267  Uiso   1.00
O5     O     0.78260   0.41560   0.82250   0.01267  Uiso   1.00
O6     O     0.52880   0.44320   0.90770   0.01267  Uiso   1.00
O7     O     0.24590   0.55250   0.75060   0.01267  Uiso   1.00
O8     O     0.00810   0.54310   0.86940   0.01267  Uiso   1.00
O9     O     0.77840   0.25650   0.11590   0.01267  Uiso   1.00
O10    O     0.80660   0.03940   0.14610   0.01267  Uiso   1.00
O11    O     0.21740   0.58440   0.17750   0.01267  Uiso   1.00
O12    O     0.47120   0.55680   0.09230   0.01267  Uiso   1.00
