data_GAMTIY_clean
_audit_creation_date              2014-07-02
_audit_creation_method            'Materials Studio'
_symmetry_space_group_name_H-M    'P1'
_symmetry_Int_Tables_number       1
_symmetry_cell_setting            triclinic
loop_
_symmetry_equiv_pos_as_xyz
  x,y,z
_cell_length_a                    8.5410
_cell_length_b                    10.9090
_cell_length_c                    11.1980
_cell_angle_alpha                 64.1530
_cell_angle_beta                  79.9020
_cell_angle_gamma                 73.7110
loop_
_atom_site_label
_atom_site_type_symbol
_atom_site_fract_x
_atom_site_fract_y
_atom_site_fract_z
_atom_site_U_iso_or_equiv
_atom_site_adp_type
_atom_site_occupancy
Pr1    Pr    0.75192   0.49704   0.49658   0.01267  Uiso   1.00
Pr2    Pr    0.24808   0.50296   0.50342   0.01267  Uiso   1.00
H1     H     0.74960   0.55270   0.97710   0.01267  Uiso   1.00
H2     H     0.40680   0.88950   0.98760   0.01267  Uiso   1.00
H3     H     0.73560   0.93360   0.67520   0.01267  Uiso   1.00
H4     H     0.96570   0.74410   0.68440   0.01267  Uiso   1.00
H5     H     0.98440   0.59760   0.81110   0.01267  Uiso   1.00
H6     H     0.37850   0.67000   0.14470   0.01267  Uiso   1.00
H7     H     0.48050   0.53140   0.12670   0.01267  Uiso   1.00
H8     H     0.56530   0.14140   0.70520   0.01267  Uiso   1.00
H9     H     0.43410   0.12240   0.82860   0.01267  Uiso   1.00
H10    H     0.25040   0.44730   0.02290   0.01267  Uiso   1.00
H11    H     0.59320   0.11050   0.01240   0.01267  Uiso   1.00
H12    H     0.26440   0.06640   0.32480   0.01267  Uiso   1.00
H13    H     0.03430   0.25590   0.31560   0.01267  Uiso   1.00
H14    H     0.01560   0.40240   0.18890   0.01267  Uiso   1.00
H15    H     0.62150   0.33000   0.85530   0.01267  Uiso   1.00
H16    H     0.51950   0.46860   0.87330   0.01267  Uiso   1.00
H17    H     0.43470   0.85860   0.29480   0.01267  Uiso   1.00
H18    H     0.56590   0.87760   0.17140   0.01267  Uiso   1.00
C1     C     0.76760   0.73320   0.81500   0.01267  Uiso   1.00
C2     C     0.70090   0.65000   0.93710   0.01267  Uiso   1.00
C3     C     0.56630   0.70560   0.00080   0.01267  Uiso   1.00
C4     C     0.49760   0.84960   0.94320   0.01267  Uiso   1.00
C5     C     0.56130   0.93490   0.82110   0.01267  Uiso   1.00
C6     C     0.69330   0.87570   0.75900   0.01267  Uiso   1.00
C7     C     0.90750   0.67050   0.74470   0.01267  Uiso   1.00
C8     C     0.86210   0.60490   0.66320   0.01267  Uiso   1.00
C9     C     0.49040   0.61730   0.13180   0.01267  Uiso   1.00
C10    C     0.58480   0.57430   0.25380   0.01267  Uiso   1.00
C11    C     0.47980   0.09010   0.75690   0.01267  Uiso   1.00
C12    C     0.34580   0.13090   0.66650   0.01267  Uiso   1.00
C13    C     0.23240   0.26680   0.18500   0.01267  Uiso   1.00
C14    C     0.29910   0.35000   0.06290   0.01267  Uiso   1.00
C15    C     0.43370   0.29440   0.99920   0.01267  Uiso   1.00
C16    C     0.50240   0.15040   0.05680   0.01267  Uiso   1.00
C17    C     0.43870   0.06510   0.17890   0.01267  Uiso   1.00
C18    C     0.30670   0.12430   0.24100   0.01267  Uiso   1.00
C19    C     0.09250   0.32950   0.25530   0.01267  Uiso   1.00
C20    C     0.13790   0.39510   0.33680   0.01267  Uiso   1.00
C21    C     0.50960   0.38270   0.86820   0.01267  Uiso   1.00
C22    C     0.41520   0.42570   0.74620   0.01267  Uiso   1.00
C23    C     0.52020   0.90990   0.24310   0.01267  Uiso   1.00
C24    C     0.65420   0.86910   0.33350   0.01267  Uiso   1.00
O1     O     0.96950   0.56290   0.58840   0.01267  Uiso   1.00
O2     O     0.71800   0.59240   0.67350   0.01267  Uiso   1.00
O3     O     0.73450   0.56350   0.24400   0.01267  Uiso   1.00
O4     O     0.50330   0.54790   0.36620   0.01267  Uiso   1.00
O5     O     0.27600   0.25940   0.61510   0.01267  Uiso   1.00
O6     O     0.30540   0.03850   0.65010   0.01267  Uiso   1.00
O7     O     0.03050   0.43710   0.41160   0.01267  Uiso   1.00
O8     O     0.28200   0.40760   0.32650   0.01267  Uiso   1.00
O9     O     0.26550   0.43650   0.75600   0.01267  Uiso   1.00
O10    O     0.49670   0.45210   0.63380   0.01267  Uiso   1.00
O11    O     0.72400   0.74060   0.38490   0.01267  Uiso   1.00
O12    O     0.69460   0.96150   0.34990   0.01267  Uiso   1.00
