data_image0
_cell_length_a       10.186
_cell_length_b       10.186
_cell_length_c       24.367
_cell_angle_alpha    90
_cell_angle_beta     90
_cell_angle_gamma    90

_symmetry_space_group_name_H-M    "P 1"
_symmetry_int_tables_number       1

loop_
  _symmetry_equiv_pos_as_xyz
  'x, y, z'

loop_
  _atom_site_label
  _atom_site_occupancy
  _atom_site_fract_x
  _atom_site_fract_y
  _atom_site_fract_z
  _atom_site_thermal_displace_type
  _atom_site_B_iso_or_equiv
  _atom_site_type_symbol
  Cd1      1.0000 0.09765  0.76130  0.00090  Biso   1.000  Cd
  C1       1.0000 0.09070  0.50880  0.95610  Biso   1.000  C
  C2       1.0000 0.08560  0.38050  0.92370  Biso   1.000  C
  C3       1.0000 0.07580  0.38090  0.86710  Biso   1.000  C
  H1       1.0000 0.07330  0.46220  0.84720  Biso   1.000  H
  C4       1.0000 0.07350  0.26350  0.84080  Biso   1.000  C
  C5       1.0000 0.08110  0.14200  0.86820  Biso   1.000  C
  H2       1.0000 0.07760  0.06170  0.84760  Biso   1.000  H
  C6       1.0000 0.08960  0.14200  0.92350  Biso   1.000  C
  C7       1.0000 0.09160  0.26310  0.95250  Biso   1.000  C
  H3       1.0000 0.09350  0.26450  0.99190  Biso   1.000  H
  C8       1.0000 0.09960  0.01320  0.95390  Biso   1.000  C
  C9       1.0000 0.85120  0.75430  0.04960  Biso   1.000  C
  C10      1.0000 0.72090  0.74850  0.07890  Biso   1.000  C
  C11      1.0000 0.71660  0.74570  0.13630  Biso   1.000  C
  H4       1.0000 0.79670  0.74960  0.15700  Biso   1.000  H
  C12      1.0000 0.59640  0.74210  0.16300  Biso   1.000  C
  C13      1.0000 0.47810  0.74450  0.13310  Biso   1.000  C
  H5       1.0000 0.39520  0.74460  0.15190  Biso   1.000  H
  C14      1.0000 0.48100  0.74580  0.07550  Biso   1.000  C
  C15      1.0000 0.60210  0.74900  0.04900  Biso   1.000  C
  C16      1.0000 0.35500  0.75310  0.04310  Biso   1.000  C
  H6       1.0000 0.60430  0.75430  0.01170  Biso   1.000  H
  O1       1.0000 0.09850  0.50990  0.00570  Biso   1.000  O
  O2       1.0000 0.08740  0.61580  0.92840  Biso   1.000  O
  O3       1.0000 0.13770  0.01240  0.00180  Biso   1.000  O
  O4       1.0000 0.06600  0.91210  0.92970  Biso   1.000  O
  O5       1.0000 0.04580  0.36400  0.75560  Biso   1.000  O
  O6       1.0000 0.05880  0.15700  0.75780  Biso   1.000  O
  O7       1.0000 0.85280  0.75830  0.00050  Biso   1.000  O
  O8       1.0000 0.95420  0.75520  0.07830  Biso   1.000  O
  O9       1.0000 0.35770  0.74310  0.99330  Biso   1.000  O
  O10      1.0000 0.25060  0.76180  0.06980  Biso   1.000  O
  O11      1.0000 0.49350  0.68930  0.24430  Biso   1.000  O
  O12      1.0000 0.68310  0.75300  0.24650  Biso   1.000  O
  N1       1.0000 0.05980  0.25890  0.78090  Biso   1.000  N
  N2       1.0000 0.59020  0.73620  0.22070  Biso   1.000  N
  K1       1.0000 0.53460  0.82070  0.91110  Biso   1.000  K
  K2       1.0000 0.79640  0.88834  0.91041  Biso   1.000  K
  Cd2      1.0000 0.90235  0.23870  0.50090  Biso   1.000  Cd
  C17      1.0000 0.90930  0.49120  0.45610  Biso   1.000  C
  C18      1.0000 0.91440  0.61950  0.42370  Biso   1.000  C
  C19      1.0000 0.92420  0.61910  0.36710  Biso   1.000  C
  H7       1.0000 0.92670  0.53780  0.34720  Biso   1.000  H
  C20      1.0000 0.92650  0.73650  0.34080  Biso   1.000  C
  C21      1.0000 0.91890  0.85800  0.36820  Biso   1.000  C
  H8       1.0000 0.92240  0.93830  0.34760  Biso   1.000  H
  C22      1.0000 0.91040  0.85800  0.42350  Biso   1.000  C
  C23      1.0000 0.90840  0.73690  0.45250  Biso   1.000  C
  H9       1.0000 0.90650  0.73550  0.49190  Biso   1.000  H
  C24      1.0000 0.90040  0.98680  0.45390  Biso   1.000  C
  C25      1.0000 0.14880  0.24570  0.54960  Biso   1.000  C
  C26      1.0000 0.27910  0.25150  0.57890  Biso   1.000  C
  C27      1.0000 0.28340  0.25430  0.63630  Biso   1.000  C
  H10      1.0000 0.20330  0.25040  0.65700  Biso   1.000  H
  C28      1.0000 0.40360  0.25790  0.66300  Biso   1.000  C
  C29      1.0000 0.52190  0.25550  0.63310  Biso   1.000  C
  H11      1.0000 0.60480  0.25540  0.65190  Biso   1.000  H
  C30      1.0000 0.51900  0.25420  0.57550  Biso   1.000  C
  C31      1.0000 0.39790  0.25100  0.54900  Biso   1.000  C
  C32      1.0000 0.64500  0.24690  0.54310  Biso   1.000  C
  H12      1.0000 0.39570  0.24570  0.51170  Biso   1.000  H
  O13      1.0000 0.90150  0.49010  0.50570  Biso   1.000  O
  O14      1.0000 0.91260  0.38420  0.42840  Biso   1.000  O
  O15      1.0000 0.86230  0.98760  0.50180  Biso   1.000  O
  O16      1.0000 0.93400  0.08790  0.42970  Biso   1.000  O
  O17      1.0000 0.95420  0.63600  0.25560  Biso   1.000  O
  O18      1.0000 0.94120  0.84300  0.25780  Biso   1.000  O
  O19      1.0000 0.14720  0.24170  0.50050  Biso   1.000  O
  O20      1.0000 0.04580  0.24480  0.57830  Biso   1.000  O
  O21      1.0000 0.64230  0.25690  0.49330  Biso   1.000  O
  O22      1.0000 0.74940  0.23820  0.56980  Biso   1.000  O
  O23      1.0000 0.50650  0.31070  0.74430  Biso   1.000  O
  O24      1.0000 0.31690  0.24700  0.74650  Biso   1.000  O
  N3       1.0000 0.94020  0.74110  0.28090  Biso   1.000  N
  N4       1.0000 0.40980  0.26380  0.72070  Biso   1.000  N
  K3       1.0000 0.46540  0.17930  0.41110  Biso   1.000  K
  K4       1.0000 0.20360  0.11166  0.41041  Biso   1.000  K
  Cd3      1.0000 0.23870  0.09765  0.25090  Biso   1.000  Cd
  C33      1.0000 0.49120  0.09070  0.20610  Biso   1.000  C
  C34      1.0000 0.61950  0.08560  0.17370  Biso   1.000  C
  C35      1.0000 0.61910  0.07580  0.11710  Biso   1.000  C
  H13      1.0000 0.53780  0.07330  0.09720  Biso   1.000  H
  C36      1.0000 0.73650  0.07350  0.09080  Biso   1.000  C
  C37      1.0000 0.85800  0.08110  0.11820  Biso   1.000  C
  H14      1.0000 0.93830  0.07760  0.09760  Biso   1.000  H
  C38      1.0000 0.85800  0.08960  0.17350  Biso   1.000  C
  C39      1.0000 0.73690  0.09160  0.20250  Biso   1.000  C
  H15      1.0000 0.73550  0.09350  0.24190  Biso   1.000  H
  C40      1.0000 0.98680  0.09960  0.20390  Biso   1.000  C
  C41      1.0000 0.24570  0.85120  0.29960  Biso   1.000  C
  C42      1.0000 0.25150  0.72090  0.32890  Biso   1.000  C
  C43      1.0000 0.25430  0.71660  0.38630  Biso   1.000  C
  H16      1.0000 0.25040  0.79670  0.40700  Biso   1.000  H
  C44      1.0000 0.25790  0.59640  0.41300  Biso   1.000  C
  C45      1.0000 0.25550  0.47810  0.38310  Biso   1.000  C
  H17      1.0000 0.25540  0.39520  0.40190  Biso   1.000  H
  C46      1.0000 0.25420  0.48100  0.32550  Biso   1.000  C
  C47      1.0000 0.25100  0.60210  0.29900  Biso   1.000  C
  C48      1.0000 0.24690  0.35500  0.29310  Biso   1.000  C
  H18      1.0000 0.24570  0.60430  0.26170  Biso   1.000  H
  O25      1.0000 0.49010  0.09850  0.25570  Biso   1.000  O
  O26      1.0000 0.38420  0.08740  0.17840  Biso   1.000  O
  O27      1.0000 0.98760  0.13770  0.25180  Biso   1.000  O
  O28      1.0000 0.08790  0.06600  0.17970  Biso   1.000  O
  O29      1.0000 0.63600  0.04580  0.00560  Biso   1.000  O
  O30      1.0000 0.84300  0.05880  0.00780  Biso   1.000  O
  O31      1.0000 0.24170  0.85280  0.25050  Biso   1.000  O
  O32      1.0000 0.24480  0.95420  0.32830  Biso   1.000  O
  O33      1.0000 0.25690  0.35770  0.24330  Biso   1.000  O
  O34      1.0000 0.23820  0.25060  0.31980  Biso   1.000  O
  O35      1.0000 0.31070  0.49350  0.49430  Biso   1.000  O
  O36      1.0000 0.24700  0.68310  0.49650  Biso   1.000  O
  N5       1.0000 0.74110  0.05980  0.03090  Biso   1.000  N
  N6       1.0000 0.26380  0.59020  0.47070  Biso   1.000  N
  K5       1.0000 0.17930  0.53460  0.16110  Biso   1.000  K
  K6       1.0000 0.11166  0.79640  0.16041  Biso   1.000  K
  Cd4      1.0000 0.76130  0.90235  0.75090  Biso   1.000  Cd
  C49      1.0000 0.50880  0.90930  0.70610  Biso   1.000  C
  C50      1.0000 0.38050  0.91440  0.67370  Biso   1.000  C
  C51      1.0000 0.38090  0.92420  0.61710  Biso   1.000  C
  H19      1.0000 0.46220  0.92670  0.59720  Biso   1.000  H
  C52      1.0000 0.26350  0.92650  0.59080  Biso   1.000  C
  C53      1.0000 0.14200  0.91890  0.61820  Biso   1.000  C
  H20      1.0000 0.06170  0.92240  0.59760  Biso   1.000  H
  C54      1.0000 0.14200  0.91040  0.67350  Biso   1.000  C
  C55      1.0000 0.26310  0.90840  0.70250  Biso   1.000  C
  H21      1.0000 0.26450  0.90650  0.74190  Biso   1.000  H
  C56      1.0000 0.01320  0.90040  0.70390  Biso   1.000  C
  C57      1.0000 0.75430  0.14880  0.79960  Biso   1.000  C
  C58      1.0000 0.74850  0.27910  0.82890  Biso   1.000  C
  C59      1.0000 0.74570  0.28340  0.88630  Biso   1.000  C
  H22      1.0000 0.74960  0.20330  0.90700  Biso   1.000  H
  C60      1.0000 0.74210  0.40360  0.91300  Biso   1.000  C
  C61      1.0000 0.74450  0.52190  0.88310  Biso   1.000  C
  H23      1.0000 0.74460  0.60480  0.90190  Biso   1.000  H
  C62      1.0000 0.74580  0.51900  0.82550  Biso   1.000  C
  C63      1.0000 0.74900  0.39790  0.79900  Biso   1.000  C
  C64      1.0000 0.75310  0.64500  0.79310  Biso   1.000  C
  H24      1.0000 0.75430  0.39570  0.76170  Biso   1.000  H
  O37      1.0000 0.50990  0.90150  0.75570  Biso   1.000  O
  O38      1.0000 0.61580  0.91260  0.67840  Biso   1.000  O
  O39      1.0000 0.01240  0.86230  0.75180  Biso   1.000  O
  O40      1.0000 0.91210  0.93400  0.67970  Biso   1.000  O
  O41      1.0000 0.36400  0.95420  0.50560  Biso   1.000  O
  O42      1.0000 0.15700  0.94120  0.50780  Biso   1.000  O
  O43      1.0000 0.75830  0.14720  0.75050  Biso   1.000  O
  O44      1.0000 0.75520  0.04580  0.82830  Biso   1.000  O
  O45      1.0000 0.74310  0.64230  0.74330  Biso   1.000  O
  O46      1.0000 0.76180  0.74940  0.81980  Biso   1.000  O
  O47      1.0000 0.68930  0.50650  0.99430  Biso   1.000  O
  O48      1.0000 0.75300  0.31690  0.99650  Biso   1.000  O
  N7       1.0000 0.25890  0.94020  0.53090  Biso   1.000  N
  N8       1.0000 0.73620  0.40980  0.97070  Biso   1.000  N
  K7       1.0000 0.82070  0.46540  0.66110  Biso   1.000  K
  K8       1.0000 0.88834  0.20360  0.66041  Biso   1.000  K
