data_image0
_cell_length_a       12.565
_cell_length_b       10.5943
_cell_length_c       10.7556
_cell_angle_alpha    90
_cell_angle_beta     90
_cell_angle_gamma    90

_symmetry_space_group_name_H-M    "P 1"
_symmetry_int_tables_number       1

loop_
  _symmetry_equiv_pos_as_xyz
  'x, y, z'

loop_
  _atom_site_label
  _atom_site_occupancy
  _atom_site_fract_x
  _atom_site_fract_y
  _atom_site_fract_z
  _atom_site_thermal_displace_type
  _atom_site_B_iso_or_equiv
  _atom_site_type_symbol
  C1       1.0000 0.80940  0.01100  0.64780  Biso   1.000  C
  C2       1.0000 0.71190  0.94730  0.69430  Biso   1.000  C
  H1       1.0000 0.66390  0.93690  0.62440  Biso   1.000  H
  H2       1.0000 0.73210  0.86340  0.72170  Biso   1.000  H
  C3       1.0000 0.64860  0.00920  0.80020  Biso   1.000  C
  O1       1.0000 0.82270  0.12520  0.65010  Biso   1.000  O
  O2       1.0000 0.87660  0.93660  0.59960  Biso   1.000  O
  O3       1.0000 0.65260  0.12610  0.81710  Biso   1.000  O
  O4       1.0000 0.58950  0.56030  0.86190  Biso   1.000  O
  C4       1.0000 0.69060  0.98900  0.14780  Biso   1.000  C
  C5       1.0000 0.78810  0.05270  0.19430  Biso   1.000  C
  H3       1.0000 0.83610  0.06310  0.12440  Biso   1.000  H
  H4       1.0000 0.76790  0.13660  0.22170  Biso   1.000  H
  C6       1.0000 0.85140  0.99080  0.30020  Biso   1.000  C
  O5       1.0000 0.67730  0.87480  0.15010  Biso   1.000  O
  O6       1.0000 0.62340  0.06340  0.09960  Biso   1.000  O
  O7       1.0000 0.84740  0.87390  0.31710  Biso   1.000  O
  O8       1.0000 0.91050  0.43970  0.36190  Biso   1.000  O
  C7       1.0000 0.19060  0.51100  0.35220  Biso   1.000  C
  C8       1.0000 0.28810  0.44730  0.30570  Biso   1.000  C
  H5       1.0000 0.33610  0.43690  0.37560  Biso   1.000  H
  H6       1.0000 0.26790  0.36340  0.27830  Biso   1.000  H
  C9       1.0000 0.35140  0.50920  0.19980  Biso   1.000  C
  O9       1.0000 0.17730  0.62520  0.34990  Biso   1.000  O
  O10      1.0000 0.12340  0.43660  0.40040  Biso   1.000  O
  O11      1.0000 0.34740  0.62610  0.18290  Biso   1.000  O
  O12      1.0000 0.41050  0.06030  0.13810  Biso   1.000  O
  C10      1.0000 0.30940  0.48900  0.85220  Biso   1.000  C
  C11      1.0000 0.21190  0.55270  0.80570  Biso   1.000  C
  H7       1.0000 0.16390  0.56310  0.87560  Biso   1.000  H
  H8       1.0000 0.23210  0.63660  0.77830  Biso   1.000  H
  C12      1.0000 0.14860  0.49080  0.69980  Biso   1.000  C
  O13      1.0000 0.32270  0.37480  0.84990  Biso   1.000  O
  O14      1.0000 0.37660  0.56340  0.90040  Biso   1.000  O
  O15      1.0000 0.15260  0.37390  0.68290  Biso   1.000  O
  O16      1.0000 0.08950  0.93970  0.63810  Biso   1.000  O
  C13      1.0000 0.19060  0.98900  0.35220  Biso   1.000  C
  C14      1.0000 0.28810  0.05270  0.30570  Biso   1.000  C
  H9       1.0000 0.33610  0.06310  0.37560  Biso   1.000  H
  H10      1.0000 0.26790  0.13660  0.27830  Biso   1.000  H
  C15      1.0000 0.35140  0.99080  0.19980  Biso   1.000  C
  O17      1.0000 0.17730  0.87480  0.34990  Biso   1.000  O
  O18      1.0000 0.12340  0.06340  0.40040  Biso   1.000  O
  O19      1.0000 0.34740  0.87390  0.18290  Biso   1.000  O
  O20      1.0000 0.41050  0.43970  0.13810  Biso   1.000  O
  C16      1.0000 0.30940  0.01100  0.85220  Biso   1.000  C
  C17      1.0000 0.21190  0.94730  0.80570  Biso   1.000  C
  H11      1.0000 0.16390  0.93690  0.87560  Biso   1.000  H
  H12      1.0000 0.23210  0.86340  0.77830  Biso   1.000  H
  C18      1.0000 0.14860  0.00920  0.69980  Biso   1.000  C
  O21      1.0000 0.32270  0.12520  0.84990  Biso   1.000  O
  O22      1.0000 0.37660  0.93660  0.90040  Biso   1.000  O
  O23      1.0000 0.15260  0.12610  0.68290  Biso   1.000  O
  O24      1.0000 0.08950  0.56030  0.63810  Biso   1.000  O
  C19      1.0000 0.80940  0.48900  0.64780  Biso   1.000  C
  C20      1.0000 0.71190  0.55270  0.69430  Biso   1.000  C
  H13      1.0000 0.66390  0.56310  0.62440  Biso   1.000  H
  H14      1.0000 0.73210  0.63660  0.72170  Biso   1.000  H
  C21      1.0000 0.64860  0.49080  0.80020  Biso   1.000  C
  O25      1.0000 0.82270  0.37480  0.65010  Biso   1.000  O
  O26      1.0000 0.87660  0.56340  0.59960  Biso   1.000  O
  O27      1.0000 0.65260  0.37390  0.81710  Biso   1.000  O
  O28      1.0000 0.58950  0.93970  0.86190  Biso   1.000  O
  C22      1.0000 0.69060  0.51100  0.14780  Biso   1.000  C
  C23      1.0000 0.78810  0.44730  0.19430  Biso   1.000  C
  H15      1.0000 0.83610  0.43690  0.12440  Biso   1.000  H
  H16      1.0000 0.76790  0.36340  0.22170  Biso   1.000  H
  C24      1.0000 0.85140  0.50920  0.30020  Biso   1.000  C
  O29      1.0000 0.67730  0.62520  0.15010  Biso   1.000  O
  O30      1.0000 0.62340  0.43660  0.09960  Biso   1.000  O
  O31      1.0000 0.84740  0.62610  0.31710  Biso   1.000  O
  O32      1.0000 0.91050  0.06030  0.36190  Biso   1.000  O
  Cu1      1.0000 0.73606  0.25000  0.73097  Biso   1.000  Cu
  Cu2      1.0000 0.76394  0.75000  0.23097  Biso   1.000  Cu
  Cu3      1.0000 0.26394  0.75000  0.26903  Biso   1.000  Cu
  Cu4      1.0000 0.23606  0.25000  0.76903  Biso   1.000  Cu
  Cu5      1.0000 0.50000  0.00000  0.00000  Biso   1.000  Cu
  Cu6      1.0000 0.00000  0.00000  0.50000  Biso   1.000  Cu
  Cu7      1.0000 0.50000  0.50000  0.00000  Biso   1.000  Cu
  Cu8      1.0000 0.00000  0.50000  0.50000  Biso   1.000  Cu
  Na1      1.0000 0.98030  0.75000  0.67090  Biso   1.000  Na
  Na2      1.0000 0.51970  0.25000  0.17090  Biso   1.000  Na
  Na3      1.0000 0.01970  0.25000  0.32910  Biso   1.000  Na
  Na4      1.0000 0.48030  0.75000  0.82910  Biso   1.000  Na
