data_image0
_cell_length_a       15.8274
_cell_length_b       9.6221
_cell_length_c       20.2022
_cell_angle_alpha    90
_cell_angle_beta     96.855
_cell_angle_gamma    90

_symmetry_space_group_name_H-M    "P 1"
_symmetry_int_tables_number       1

loop_
  _symmetry_equiv_pos_as_xyz
  'x, y, z'

loop_
  _atom_site_label
  _atom_site_occupancy
  _atom_site_fract_x
  _atom_site_fract_y
  _atom_site_fract_z
  _atom_site_thermal_displace_type
  _atom_site_B_iso_or_equiv
  _atom_site_type_symbol
  U1       1.0000 0.28412  0.53175  0.49231  Biso   1.000  U
  U2       1.0000 0.11439  0.78330  0.72436  Biso   1.000  U
  O1       1.0000 0.34840  0.72410  0.56120  Biso   1.000  O
  O2       1.0000 0.38410  0.51500  0.59540  Biso   1.000  O
  O3       1.0000 0.24740  0.70320  0.67460  Biso   1.000  O
  O4       1.0000 0.26420  0.84570  0.76000  Biso   1.000  O
  O5       1.0000 0.80920  0.55980  0.59310  Biso   1.000  O
  O6       1.0000 0.86600  0.44020  0.68070  Biso   1.000  O
  O7       1.0000 0.98370  0.82260  0.78080  Biso   1.000  O
  O8       1.0000 0.96710  0.70540  0.68720  Biso   1.000  O
  C1       1.0000 0.56940  0.75790  0.72860  Biso   1.000  C
  C2       1.0000 0.51910  0.69960  0.67450  Biso   1.000  C
  H1       1.0000 0.54620  0.65560  0.64050  Biso   1.000  H
  C3       1.0000 0.43010  0.70340  0.66820  Biso   1.000  C
  C4       1.0000 0.39010  0.76720  0.71880  Biso   1.000  C
  C5       1.0000 0.43940  0.82550  0.77350  Biso   1.000  C
  H2       1.0000 0.41250  0.86730  0.80810  Biso   1.000  H
  C6       1.0000 0.52670  0.82290  0.77770  Biso   1.000  C
  H3       1.0000 0.55920  0.86590  0.81470  Biso   1.000  H
  C7       1.0000 0.38390  0.64570  0.60560  Biso   1.000  C
  C8       1.0000 0.29490  0.77200  0.71740  Biso   1.000  C
  C9       1.0000 0.66360  0.75300  0.73410  Biso   1.000  C
  C10      1.0000 0.70360  0.65690  0.69690  Biso   1.000  C
  H4       1.0000 0.66970  0.59320  0.66930  Biso   1.000  H
  C11      1.0000 0.79210  0.65120  0.69900  Biso   1.000  C
  C12      1.0000 0.84210  0.74550  0.74040  Biso   1.000  C
  C13      1.0000 0.80300  0.83970  0.77890  Biso   1.000  C
  H5       1.0000 0.83690  0.90110  0.80780  Biso   1.000  H
  C14      1.0000 0.71630  0.84530  0.77590  Biso   1.000  C
  H6       1.0000 0.69090  0.91170  0.80210  Biso   1.000  H
  C15      1.0000 0.82640  0.54230  0.65680  Biso   1.000  C
  C16      1.0000 0.93650  0.75660  0.73650  Biso   1.000  C
  U3       1.0000 0.71588  0.03175  0.00769  Biso   1.000  U
  U4       1.0000 0.88561  0.28330  0.77564  Biso   1.000  U
  O9       1.0000 0.65160  0.22410  0.93880  Biso   1.000  O
  O10      1.0000 0.61590  0.01500  0.90460  Biso   1.000  O
  O11      1.0000 0.75260  0.20320  0.82540  Biso   1.000  O
  O12      1.0000 0.73580  0.34570  0.74000  Biso   1.000  O
  O13      1.0000 0.19080  0.05980  0.90690  Biso   1.000  O
  O14      1.0000 0.13400  0.94020  0.81930  Biso   1.000  O
  O15      1.0000 0.01630  0.32260  0.71920  Biso   1.000  O
  O16      1.0000 0.03290  0.20540  0.81280  Biso   1.000  O
  C17      1.0000 0.43060  0.25790  0.77140  Biso   1.000  C
  C18      1.0000 0.48090  0.19960  0.82550  Biso   1.000  C
  H7       1.0000 0.45380  0.15560  0.85950  Biso   1.000  H
  C19      1.0000 0.56990  0.20340  0.83180  Biso   1.000  C
  C20      1.0000 0.60990  0.26720  0.78120  Biso   1.000  C
  C21      1.0000 0.56060  0.32550  0.72650  Biso   1.000  C
  H8       1.0000 0.58750  0.36730  0.69190  Biso   1.000  H
  C22      1.0000 0.47330  0.32290  0.72230  Biso   1.000  C
  H9       1.0000 0.44080  0.36590  0.68530  Biso   1.000  H
  C23      1.0000 0.61610  0.14570  0.89440  Biso   1.000  C
  C24      1.0000 0.70510  0.27200  0.78260  Biso   1.000  C
  C25      1.0000 0.33640  0.25300  0.76590  Biso   1.000  C
  C26      1.0000 0.29640  0.15690  0.80310  Biso   1.000  C
  H10      1.0000 0.33030  0.09320  0.83070  Biso   1.000  H
  C27      1.0000 0.20790  0.15120  0.80100  Biso   1.000  C
  C28      1.0000 0.15790  0.24550  0.75960  Biso   1.000  C
  C29      1.0000 0.19700  0.33970  0.72110  Biso   1.000  C
  H11      1.0000 0.16310  0.40110  0.69220  Biso   1.000  H
  C30      1.0000 0.28370  0.34530  0.72410  Biso   1.000  C
  H12      1.0000 0.30910  0.41170  0.69790  Biso   1.000  H
  C31      1.0000 0.17360  0.04230  0.84320  Biso   1.000  C
  C32      1.0000 0.06350  0.25660  0.76350  Biso   1.000  C
  U5       1.0000 0.71588  0.46825  0.50769  Biso   1.000  U
  U6       1.0000 0.88561  0.21670  0.27564  Biso   1.000  U
  O17      1.0000 0.65160  0.27590  0.43880  Biso   1.000  O
  O18      1.0000 0.61590  0.48500  0.40460  Biso   1.000  O
  O19      1.0000 0.75260  0.29680  0.32540  Biso   1.000  O
  O20      1.0000 0.73580  0.15430  0.24000  Biso   1.000  O
  O21      1.0000 0.19080  0.44020  0.40690  Biso   1.000  O
  O22      1.0000 0.13400  0.55980  0.31930  Biso   1.000  O
  O23      1.0000 0.01630  0.17740  0.21920  Biso   1.000  O
  O24      1.0000 0.03290  0.29460  0.31280  Biso   1.000  O
  C33      1.0000 0.43060  0.24210  0.27140  Biso   1.000  C
  C34      1.0000 0.48090  0.30040  0.32550  Biso   1.000  C
  H13      1.0000 0.45380  0.34440  0.35950  Biso   1.000  H
  C35      1.0000 0.56990  0.29660  0.33180  Biso   1.000  C
  C36      1.0000 0.60990  0.23280  0.28120  Biso   1.000  C
  C37      1.0000 0.56060  0.17450  0.22650  Biso   1.000  C
  H14      1.0000 0.58750  0.13270  0.19190  Biso   1.000  H
  C38      1.0000 0.47330  0.17710  0.22230  Biso   1.000  C
  H15      1.0000 0.44080  0.13410  0.18530  Biso   1.000  H
  C39      1.0000 0.61610  0.35430  0.39440  Biso   1.000  C
  C40      1.0000 0.70510  0.22800  0.28260  Biso   1.000  C
  C41      1.0000 0.33640  0.24700  0.26590  Biso   1.000  C
  C42      1.0000 0.29640  0.34310  0.30310  Biso   1.000  C
  H16      1.0000 0.33030  0.40680  0.33070  Biso   1.000  H
  C43      1.0000 0.20790  0.34880  0.30100  Biso   1.000  C
  C44      1.0000 0.15790  0.25450  0.25960  Biso   1.000  C
  C45      1.0000 0.19700  0.16030  0.22110  Biso   1.000  C
  H17      1.0000 0.16310  0.09890  0.19220  Biso   1.000  H
  C46      1.0000 0.28370  0.15470  0.22410  Biso   1.000  C
  H18      1.0000 0.30910  0.08830  0.19790  Biso   1.000  H
  C47      1.0000 0.17360  0.45770  0.34320  Biso   1.000  C
  C48      1.0000 0.06350  0.24340  0.26350  Biso   1.000  C
  U7       1.0000 0.28412  0.96825  0.99231  Biso   1.000  U
  U8       1.0000 0.11439  0.71670  0.22436  Biso   1.000  U
  O25      1.0000 0.34840  0.77590  0.06120  Biso   1.000  O
  O26      1.0000 0.38410  0.98500  0.09540  Biso   1.000  O
  O27      1.0000 0.24740  0.79680  0.17460  Biso   1.000  O
  O28      1.0000 0.26420  0.65430  0.26000  Biso   1.000  O
  O29      1.0000 0.80920  0.94020  0.09310  Biso   1.000  O
  O30      1.0000 0.86600  0.05980  0.18070  Biso   1.000  O
  O31      1.0000 0.98370  0.67740  0.28080  Biso   1.000  O
  O32      1.0000 0.96710  0.79460  0.18720  Biso   1.000  O
  C49      1.0000 0.56940  0.74210  0.22860  Biso   1.000  C
  C50      1.0000 0.51910  0.80040  0.17450  Biso   1.000  C
  H19      1.0000 0.54620  0.84440  0.14050  Biso   1.000  H
  C51      1.0000 0.43010  0.79660  0.16820  Biso   1.000  C
  C52      1.0000 0.39010  0.73280  0.21880  Biso   1.000  C
  C53      1.0000 0.43940  0.67450  0.27350  Biso   1.000  C
  H20      1.0000 0.41250  0.63270  0.30810  Biso   1.000  H
  C54      1.0000 0.52670  0.67710  0.27770  Biso   1.000  C
  H21      1.0000 0.55920  0.63410  0.31470  Biso   1.000  H
  C55      1.0000 0.38390  0.85430  0.10560  Biso   1.000  C
  C56      1.0000 0.29490  0.72800  0.21740  Biso   1.000  C
  C57      1.0000 0.66360  0.74700  0.23410  Biso   1.000  C
  C58      1.0000 0.70360  0.84310  0.19690  Biso   1.000  C
  H22      1.0000 0.66970  0.90680  0.16930  Biso   1.000  H
  C59      1.0000 0.79210  0.84880  0.19900  Biso   1.000  C
  C60      1.0000 0.84210  0.75450  0.24040  Biso   1.000  C
  C61      1.0000 0.80300  0.66030  0.27890  Biso   1.000  C
  H23      1.0000 0.83690  0.59890  0.30780  Biso   1.000  H
  C62      1.0000 0.71630  0.65470  0.27590  Biso   1.000  C
  H24      1.0000 0.69090  0.58830  0.30210  Biso   1.000  H
  C63      1.0000 0.82640  0.95770  0.15680  Biso   1.000  C
  C64      1.0000 0.93650  0.74340  0.23650  Biso   1.000  C
