data_image0
_cell_length_a       15.7072
_cell_length_b       10.713
_cell_length_c       24.4618
_cell_angle_alpha    90
_cell_angle_beta     94.28
_cell_angle_gamma    90

_symmetry_space_group_name_H-M    "P 1"
_symmetry_int_tables_number       1

loop_
  _symmetry_equiv_pos_as_xyz
  'x, y, z'

loop_
  _atom_site_label
  _atom_site_occupancy
  _atom_site_fract_x
  _atom_site_fract_y
  _atom_site_fract_z
  _atom_site_thermal_displace_type
  _atom_site_B_iso_or_equiv
  _atom_site_type_symbol
  Zn1      1.0000 0.14165  0.40920  0.06848  Biso   1.000  Zn
  O1       1.0000 0.54870  0.00080  0.09660  Biso   1.000  O
  O2       1.0000 0.22020  0.32840  0.12190  Biso   1.000  O
  N1       1.0000 0.17570  0.46520  0.51080  Biso   1.000  N
  N2       1.0000 0.24890  0.04930  0.29640  Biso   1.000  N
  C1       1.0000 0.31220  0.01450  0.20690  Biso   1.000  C
  O3       1.0000 0.30780  0.29870  0.05800  Biso   1.000  O
  C2       1.0000 0.26020  0.39500  0.43980  Biso   1.000  C
  H1       1.0000 0.30963  0.40479  0.42011  Biso   1.000  H
  C3       1.0000 0.39690  0.11350  0.12200  Biso   1.000  C
  H2       1.0000 0.42626  0.14789  0.09292  Biso   1.000  H
  C4       1.0000 0.32010  0.16630  0.13540  Biso   1.000  C
  C5       1.0000 0.21920  0.21270  0.38140  Biso   1.000  C
  C6       1.0000 0.38800  0.96300  0.19310  Biso   1.000  C
  H3       1.0000 0.41110  0.89330  0.21318  Biso   1.000  H
  C7       1.0000 0.27690  0.11680  0.17770  Biso   1.000  C
  H4       1.0000 0.22409  0.15160  0.18676  Biso   1.000  H
  C8       1.0000 0.15620  0.12690  0.36100  Biso   1.000  C
  H5       1.0000 0.10239  0.12400  0.37627  Biso   1.000  H
  C9       1.0000 0.12020  0.36900  0.49790  Biso   1.000  C
  H6       1.0000 0.07182  0.35913  0.51860  Biso   1.000  H
  C10      1.0000 0.20270  0.29930  0.42540  Biso   1.000  C
  C11      1.0000 0.26330  0.95580  0.25280  Biso   1.000  C
  H7       1.0000 0.20758  0.92378  0.23715  Biso   1.000  H
  H8       1.0000 0.29629  0.88449  0.26912  Biso   1.000  H
  C12      1.0000 0.31000  0.13050  0.31420  Biso   1.000  C
  H9       1.0000 0.36285  0.13245  0.29776  Biso   1.000  H
  C13      1.0000 0.51240  0.95130  0.13500  Biso   1.000  C
  C14      1.0000 0.28060  0.27170  0.10210  Biso   1.000  C
  C15      1.0000 0.43080  0.01100  0.15070  Biso   1.000  C
  C16      1.0000 0.17320  0.04750  0.31900  Biso   1.000  C
  H10      1.0000 0.13057  0.99011  0.30550  Biso   1.000  H
  C17      1.0000 0.13210  0.28590  0.45600  Biso   1.000  C
  H11      1.0000 0.09240  0.22027  0.44809  Biso   1.000  H
  C18      1.0000 0.29600  0.20930  0.35560  Biso   1.000  C
  H12      1.0000 0.34034  0.26522  0.36792  Biso   1.000  H
  O4       1.0000 0.53660  0.85800  0.15770  Biso   1.000  O
  C19      1.0000 0.24650  0.47480  0.48180  Biso   1.000  C
  H13      1.0000 0.28713  0.53852  0.49104  Biso   1.000  H
  O5       1.0000 0.09140  0.27580  0.01820  Biso   1.000  O
  H14      1.0000 0.07200  0.18700  0.03400  Biso   1.000  H
  Zn2      1.0000 0.64165  0.90920  0.06848  Biso   1.000  Zn
  O6       1.0000 0.04870  0.50080  0.09660  Biso   1.000  O
  O7       1.0000 0.72020  0.82840  0.12190  Biso   1.000  O
  N3       1.0000 0.67570  0.96520  0.51080  Biso   1.000  N
  N4       1.0000 0.74890  0.54930  0.29640  Biso   1.000  N
  C20      1.0000 0.81220  0.51450  0.20690  Biso   1.000  C
  O8       1.0000 0.80780  0.79870  0.05800  Biso   1.000  O
  C21      1.0000 0.76020  0.89500  0.43980  Biso   1.000  C
  H15      1.0000 0.80963  0.90479  0.42011  Biso   1.000  H
  C22      1.0000 0.89690  0.61350  0.12200  Biso   1.000  C
  H16      1.0000 0.92626  0.64789  0.09292  Biso   1.000  H
  C23      1.0000 0.82010  0.66630  0.13540  Biso   1.000  C
  C24      1.0000 0.71920  0.71270  0.38140  Biso   1.000  C
  C25      1.0000 0.88800  0.46300  0.19310  Biso   1.000  C
  H17      1.0000 0.91110  0.39330  0.21318  Biso   1.000  H
  C26      1.0000 0.77690  0.61680  0.17770  Biso   1.000  C
  H18      1.0000 0.72409  0.65160  0.18676  Biso   1.000  H
  C27      1.0000 0.65620  0.62690  0.36100  Biso   1.000  C
  H19      1.0000 0.60239  0.62400  0.37627  Biso   1.000  H
  C28      1.0000 0.62020  0.86900  0.49790  Biso   1.000  C
  H20      1.0000 0.57182  0.85913  0.51860  Biso   1.000  H
  C29      1.0000 0.70270  0.79930  0.42540  Biso   1.000  C
  C30      1.0000 0.76330  0.45580  0.25280  Biso   1.000  C
  H21      1.0000 0.70758  0.42378  0.23715  Biso   1.000  H
  H22      1.0000 0.79629  0.38449  0.26912  Biso   1.000  H
  C31      1.0000 0.81000  0.63050  0.31420  Biso   1.000  C
  H23      1.0000 0.86285  0.63245  0.29776  Biso   1.000  H
  C32      1.0000 0.01240  0.45130  0.13500  Biso   1.000  C
  C33      1.0000 0.78060  0.77170  0.10210  Biso   1.000  C
  C34      1.0000 0.93080  0.51100  0.15070  Biso   1.000  C
  C35      1.0000 0.67320  0.54750  0.31900  Biso   1.000  C
  H24      1.0000 0.63057  0.49011  0.30550  Biso   1.000  H
  C36      1.0000 0.63210  0.78590  0.45600  Biso   1.000  C
  H25      1.0000 0.59240  0.72027  0.44809  Biso   1.000  H
  C37      1.0000 0.79600  0.70930  0.35560  Biso   1.000  C
  H26      1.0000 0.84034  0.76522  0.36792  Biso   1.000  H
  O9       1.0000 0.03660  0.35800  0.15770  Biso   1.000  O
  C38      1.0000 0.74650  0.97480  0.48180  Biso   1.000  C
  H27      1.0000 0.78713  0.03852  0.49104  Biso   1.000  H
  O10      1.0000 0.59140  0.77580  0.01820  Biso   1.000  O
  H28      1.0000 0.57200  0.68700  0.03400  Biso   1.000  H
  Zn3      1.0000 0.14165  0.59080  0.56848  Biso   1.000  Zn
  O11      1.0000 0.54870  0.99920  0.59660  Biso   1.000  O
  O12      1.0000 0.22020  0.67160  0.62190  Biso   1.000  O
  N5       1.0000 0.17570  0.53480  0.01080  Biso   1.000  N
  N6       1.0000 0.24890  0.95070  0.79640  Biso   1.000  N
  C39      1.0000 0.31220  0.98550  0.70690  Biso   1.000  C
  O13      1.0000 0.30780  0.70130  0.55800  Biso   1.000  O
  C40      1.0000 0.26020  0.60500  0.93980  Biso   1.000  C
  H29      1.0000 0.30963  0.59521  0.92011  Biso   1.000  H
  C41      1.0000 0.39690  0.88650  0.62200  Biso   1.000  C
  H30      1.0000 0.42626  0.85211  0.59292  Biso   1.000  H
  C42      1.0000 0.32010  0.83370  0.63540  Biso   1.000  C
  C43      1.0000 0.21920  0.78730  0.88140  Biso   1.000  C
  C44      1.0000 0.38800  0.03700  0.69310  Biso   1.000  C
  H31      1.0000 0.41110  0.10670  0.71318  Biso   1.000  H
  C45      1.0000 0.27690  0.88320  0.67770  Biso   1.000  C
  H32      1.0000 0.22409  0.84840  0.68676  Biso   1.000  H
  C46      1.0000 0.15620  0.87310  0.86100  Biso   1.000  C
  H33      1.0000 0.10239  0.87600  0.87627  Biso   1.000  H
  C47      1.0000 0.12020  0.63100  0.99790  Biso   1.000  C
  H34      1.0000 0.07182  0.64087  0.01860  Biso   1.000  H
  C48      1.0000 0.20270  0.70070  0.92540  Biso   1.000  C
  C49      1.0000 0.26330  0.04420  0.75280  Biso   1.000  C
  H35      1.0000 0.20758  0.07622  0.73715  Biso   1.000  H
  H36      1.0000 0.29629  0.11551  0.76912  Biso   1.000  H
  C50      1.0000 0.31000  0.86950  0.81420  Biso   1.000  C
  H37      1.0000 0.36285  0.86755  0.79776  Biso   1.000  H
  C51      1.0000 0.51240  0.04870  0.63500  Biso   1.000  C
  C52      1.0000 0.28060  0.72830  0.60210  Biso   1.000  C
  C53      1.0000 0.43080  0.98900  0.65070  Biso   1.000  C
  C54      1.0000 0.17320  0.95250  0.81900  Biso   1.000  C
  H38      1.0000 0.13057  0.00989  0.80550  Biso   1.000  H
  C55      1.0000 0.13210  0.71410  0.95600  Biso   1.000  C
  H39      1.0000 0.09240  0.77973  0.94809  Biso   1.000  H
  C56      1.0000 0.29600  0.79070  0.85560  Biso   1.000  C
  H40      1.0000 0.34034  0.73478  0.86792  Biso   1.000  H
  O14      1.0000 0.53660  0.14200  0.65770  Biso   1.000  O
  C57      1.0000 0.24650  0.52520  0.98180  Biso   1.000  C
  H41      1.0000 0.28713  0.46148  0.99104  Biso   1.000  H
  O15      1.0000 0.09140  0.72420  0.51820  Biso   1.000  O
  H42      1.0000 0.07200  0.81300  0.53400  Biso   1.000  H
  Zn4      1.0000 0.64165  0.09080  0.56848  Biso   1.000  Zn
  O16      1.0000 0.04870  0.49920  0.59660  Biso   1.000  O
  O17      1.0000 0.72020  0.17160  0.62190  Biso   1.000  O
  N7       1.0000 0.67570  0.03480  0.01080  Biso   1.000  N
  N8       1.0000 0.74890  0.45070  0.79640  Biso   1.000  N
  C58      1.0000 0.81220  0.48550  0.70690  Biso   1.000  C
  O18      1.0000 0.80780  0.20130  0.55800  Biso   1.000  O
  C59      1.0000 0.76020  0.10500  0.93980  Biso   1.000  C
  H43      1.0000 0.80963  0.09521  0.92011  Biso   1.000  H
  C60      1.0000 0.89690  0.38650  0.62200  Biso   1.000  C
  H44      1.0000 0.92626  0.35211  0.59292  Biso   1.000  H
  C61      1.0000 0.82010  0.33370  0.63540  Biso   1.000  C
  C62      1.0000 0.71920  0.28730  0.88140  Biso   1.000  C
  C63      1.0000 0.88800  0.53700  0.69310  Biso   1.000  C
  H45      1.0000 0.91110  0.60670  0.71318  Biso   1.000  H
  C64      1.0000 0.77690  0.38320  0.67770  Biso   1.000  C
  H46      1.0000 0.72409  0.34840  0.68676  Biso   1.000  H
  C65      1.0000 0.65620  0.37310  0.86100  Biso   1.000  C
  H47      1.0000 0.60239  0.37600  0.87627  Biso   1.000  H
  C66      1.0000 0.62020  0.13100  0.99790  Biso   1.000  C
  H48      1.0000 0.57182  0.14087  0.01860  Biso   1.000  H
  C67      1.0000 0.70270  0.20070  0.92540  Biso   1.000  C
  C68      1.0000 0.76330  0.54420  0.75280  Biso   1.000  C
  H49      1.0000 0.70758  0.57622  0.73715  Biso   1.000  H
  H50      1.0000 0.79629  0.61551  0.76912  Biso   1.000  H
  C69      1.0000 0.81000  0.36950  0.81420  Biso   1.000  C
  H51      1.0000 0.86285  0.36755  0.79776  Biso   1.000  H
  C70      1.0000 0.01240  0.54870  0.63500  Biso   1.000  C
  C71      1.0000 0.78060  0.22830  0.60210  Biso   1.000  C
  C72      1.0000 0.93080  0.48900  0.65070  Biso   1.000  C
  C73      1.0000 0.67320  0.45250  0.81900  Biso   1.000  C
  H52      1.0000 0.63057  0.50989  0.80550  Biso   1.000  H
  C74      1.0000 0.63210  0.21410  0.95600  Biso   1.000  C
  H53      1.0000 0.59240  0.27973  0.94809  Biso   1.000  H
  C75      1.0000 0.79600  0.29070  0.85560  Biso   1.000  C
  H54      1.0000 0.84034  0.23478  0.86792  Biso   1.000  H
  O19      1.0000 0.03660  0.64200  0.65770  Biso   1.000  O
  C76      1.0000 0.74650  0.02520  0.98180  Biso   1.000  C
  H55      1.0000 0.78713  0.96148  0.99104  Biso   1.000  H
  O20      1.0000 0.59140  0.22420  0.51820  Biso   1.000  O
  H56      1.0000 0.57200  0.31300  0.53400  Biso   1.000  H
  Zn5      1.0000 0.85835  0.40920  0.43152  Biso   1.000  Zn
  O21      1.0000 0.45130  0.00080  0.40340  Biso   1.000  O
  O22      1.0000 0.77980  0.32840  0.37810  Biso   1.000  O
  N9       1.0000 0.82430  0.46520  0.98920  Biso   1.000  N
  N10      1.0000 0.75110  0.04930  0.20360  Biso   1.000  N
  C77      1.0000 0.68780  0.01450  0.29310  Biso   1.000  C
  O23      1.0000 0.69220  0.29870  0.44200  Biso   1.000  O
  C78      1.0000 0.73980  0.39500  0.06020  Biso   1.000  C
  H57      1.0000 0.69037  0.40479  0.07989  Biso   1.000  H
  C79      1.0000 0.60310  0.11350  0.37800  Biso   1.000  C
  H58      1.0000 0.57374  0.14789  0.40708  Biso   1.000  H
  C80      1.0000 0.67990  0.16630  0.36460  Biso   1.000  C
  C81      1.0000 0.78080  0.21270  0.11860  Biso   1.000  C
  C82      1.0000 0.61200  0.96300  0.30690  Biso   1.000  C
  H59      1.0000 0.58890  0.89330  0.28682  Biso   1.000  H
  C83      1.0000 0.72310  0.11680  0.32230  Biso   1.000  C
  H60      1.0000 0.77591  0.15160  0.31324  Biso   1.000  H
  C84      1.0000 0.84380  0.12690  0.13900  Biso   1.000  C
  H61      1.0000 0.89761  0.12400  0.12373  Biso   1.000  H
  C85      1.0000 0.87980  0.36900  0.00210  Biso   1.000  C
  H62      1.0000 0.92818  0.35913  0.98140  Biso   1.000  H
  C86      1.0000 0.79730  0.29930  0.07460  Biso   1.000  C
  C87      1.0000 0.73670  0.95580  0.24720  Biso   1.000  C
  H63      1.0000 0.79242  0.92378  0.26285  Biso   1.000  H
  H64      1.0000 0.70371  0.88449  0.23088  Biso   1.000  H
  C88      1.0000 0.69000  0.13050  0.18580  Biso   1.000  C
  H65      1.0000 0.63715  0.13245  0.20224  Biso   1.000  H
  C89      1.0000 0.48760  0.95130  0.36500  Biso   1.000  C
  C90      1.0000 0.71940  0.27170  0.39790  Biso   1.000  C
  C91      1.0000 0.56920  0.01100  0.34930  Biso   1.000  C
  C92      1.0000 0.82680  0.04750  0.18100  Biso   1.000  C
  H66      1.0000 0.86943  0.99011  0.19450  Biso   1.000  H
  C93      1.0000 0.86790  0.28590  0.04400  Biso   1.000  C
  H67      1.0000 0.90760  0.22027  0.05191  Biso   1.000  H
  C94      1.0000 0.70400  0.20930  0.14440  Biso   1.000  C
  H68      1.0000 0.65966  0.26522  0.13208  Biso   1.000  H
  O24      1.0000 0.46340  0.85800  0.34230  Biso   1.000  O
  C95      1.0000 0.75350  0.47480  0.01820  Biso   1.000  C
  H69      1.0000 0.71287  0.53852  0.00896  Biso   1.000  H
  O25      1.0000 0.90860  0.27580  0.48180  Biso   1.000  O
  H70      1.0000 0.92800  0.18700  0.46600  Biso   1.000  H
  Zn6      1.0000 0.35835  0.90920  0.43152  Biso   1.000  Zn
  O26      1.0000 0.95130  0.50080  0.40340  Biso   1.000  O
  O27      1.0000 0.27980  0.82840  0.37810  Biso   1.000  O
  N11      1.0000 0.32430  0.96520  0.98920  Biso   1.000  N
  N12      1.0000 0.25110  0.54930  0.20360  Biso   1.000  N
  C96      1.0000 0.18780  0.51450  0.29310  Biso   1.000  C
  O28      1.0000 0.19220  0.79870  0.44200  Biso   1.000  O
  C97      1.0000 0.23980  0.89500  0.06020  Biso   1.000  C
  H71      1.0000 0.19037  0.90479  0.07989  Biso   1.000  H
  C98      1.0000 0.10310  0.61350  0.37800  Biso   1.000  C
  H72      1.0000 0.07374  0.64789  0.40708  Biso   1.000  H
  C99      1.0000 0.17990  0.66630  0.36460  Biso   1.000  C
  C100     1.0000 0.28080  0.71270  0.11860  Biso   1.000  C
  C101     1.0000 0.11200  0.46300  0.30690  Biso   1.000  C
  H73      1.0000 0.08890  0.39330  0.28682  Biso   1.000  H
  C102     1.0000 0.22310  0.61680  0.32230  Biso   1.000  C
  H74      1.0000 0.27591  0.65160  0.31324  Biso   1.000  H
  C103     1.0000 0.34380  0.62690  0.13900  Biso   1.000  C
  H75      1.0000 0.39761  0.62400  0.12373  Biso   1.000  H
  C104     1.0000 0.37980  0.86900  0.00210  Biso   1.000  C
  H76      1.0000 0.42818  0.85913  0.98140  Biso   1.000  H
  C105     1.0000 0.29730  0.79930  0.07460  Biso   1.000  C
  C106     1.0000 0.23670  0.45580  0.24720  Biso   1.000  C
  H77      1.0000 0.29242  0.42378  0.26285  Biso   1.000  H
  H78      1.0000 0.20371  0.38449  0.23088  Biso   1.000  H
  C107     1.0000 0.19000  0.63050  0.18580  Biso   1.000  C
  H79      1.0000 0.13715  0.63245  0.20224  Biso   1.000  H
  C108     1.0000 0.98760  0.45130  0.36500  Biso   1.000  C
  C109     1.0000 0.21940  0.77170  0.39790  Biso   1.000  C
  C110     1.0000 0.06920  0.51100  0.34930  Biso   1.000  C
  C111     1.0000 0.32680  0.54750  0.18100  Biso   1.000  C
  H80      1.0000 0.36943  0.49011  0.19450  Biso   1.000  H
  C112     1.0000 0.36790  0.78590  0.04400  Biso   1.000  C
  H81      1.0000 0.40760  0.72027  0.05191  Biso   1.000  H
  C113     1.0000 0.20400  0.70930  0.14440  Biso   1.000  C
  H82      1.0000 0.15966  0.76522  0.13208  Biso   1.000  H
  O29      1.0000 0.96340  0.35800  0.34230  Biso   1.000  O
  C114     1.0000 0.25350  0.97480  0.01820  Biso   1.000  C
  H83      1.0000 0.21287  0.03852  0.00896  Biso   1.000  H
  O30      1.0000 0.40860  0.77580  0.48180  Biso   1.000  O
  H84      1.0000 0.42800  0.68700  0.46600  Biso   1.000  H
  Zn7      1.0000 0.85835  0.59080  0.93152  Biso   1.000  Zn
  O31      1.0000 0.45130  0.99920  0.90340  Biso   1.000  O
  O32      1.0000 0.77980  0.67160  0.87810  Biso   1.000  O
  N13      1.0000 0.82430  0.53480  0.48920  Biso   1.000  N
  N14      1.0000 0.75110  0.95070  0.70360  Biso   1.000  N
  C115     1.0000 0.68780  0.98550  0.79310  Biso   1.000  C
  O33      1.0000 0.69220  0.70130  0.94200  Biso   1.000  O
  C116     1.0000 0.73980  0.60500  0.56020  Biso   1.000  C
  H85      1.0000 0.69037  0.59521  0.57989  Biso   1.000  H
  C117     1.0000 0.60310  0.88650  0.87800  Biso   1.000  C
  H86      1.0000 0.57374  0.85211  0.90708  Biso   1.000  H
  C118     1.0000 0.67990  0.83370  0.86460  Biso   1.000  C
  C119     1.0000 0.78080  0.78730  0.61860  Biso   1.000  C
  C120     1.0000 0.61200  0.03700  0.80690  Biso   1.000  C
  H87      1.0000 0.58890  0.10670  0.78682  Biso   1.000  H
  C121     1.0000 0.72310  0.88320  0.82230  Biso   1.000  C
  H88      1.0000 0.77591  0.84840  0.81324  Biso   1.000  H
  C122     1.0000 0.84380  0.87310  0.63900  Biso   1.000  C
  H89      1.0000 0.89761  0.87600  0.62373  Biso   1.000  H
  C123     1.0000 0.87980  0.63100  0.50210  Biso   1.000  C
  H90      1.0000 0.92818  0.64087  0.48140  Biso   1.000  H
  C124     1.0000 0.79730  0.70070  0.57460  Biso   1.000  C
  C125     1.0000 0.73670  0.04420  0.74720  Biso   1.000  C
  H91      1.0000 0.79242  0.07622  0.76285  Biso   1.000  H
  H92      1.0000 0.70371  0.11551  0.73088  Biso   1.000  H
  C126     1.0000 0.69000  0.86950  0.68580  Biso   1.000  C
  H93      1.0000 0.63715  0.86755  0.70224  Biso   1.000  H
  C127     1.0000 0.48760  0.04870  0.86500  Biso   1.000  C
  C128     1.0000 0.71940  0.72830  0.89790  Biso   1.000  C
  C129     1.0000 0.56920  0.98900  0.84930  Biso   1.000  C
  C130     1.0000 0.82680  0.95250  0.68100  Biso   1.000  C
  H94      1.0000 0.86943  0.00989  0.69450  Biso   1.000  H
  C131     1.0000 0.86790  0.71410  0.54400  Biso   1.000  C
  H95      1.0000 0.90760  0.77973  0.55191  Biso   1.000  H
  C132     1.0000 0.70400  0.79070  0.64440  Biso   1.000  C
  H96      1.0000 0.65966  0.73478  0.63208  Biso   1.000  H
  O34      1.0000 0.46340  0.14200  0.84230  Biso   1.000  O
  C133     1.0000 0.75350  0.52520  0.51820  Biso   1.000  C
  H97      1.0000 0.71287  0.46148  0.50896  Biso   1.000  H
  O35      1.0000 0.90860  0.72420  0.98180  Biso   1.000  O
  H98      1.0000 0.92800  0.81300  0.96600  Biso   1.000  H
  Zn8      1.0000 0.35835  0.09080  0.93152  Biso   1.000  Zn
  O36      1.0000 0.95130  0.49920  0.90340  Biso   1.000  O
  O37      1.0000 0.27980  0.17160  0.87810  Biso   1.000  O
  N15      1.0000 0.32430  0.03480  0.48920  Biso   1.000  N
  N16      1.0000 0.25110  0.45070  0.70360  Biso   1.000  N
  C134     1.0000 0.18780  0.48550  0.79310  Biso   1.000  C
  O38      1.0000 0.19220  0.20130  0.94200  Biso   1.000  O
  C135     1.0000 0.23980  0.10500  0.56020  Biso   1.000  C
  H99      1.0000 0.19037  0.09521  0.57989  Biso   1.000  H
  C136     1.0000 0.10310  0.38650  0.87800  Biso   1.000  C
  H100     1.0000 0.07374  0.35211  0.90708  Biso   1.000  H
  C137     1.0000 0.17990  0.33370  0.86460  Biso   1.000  C
  C138     1.0000 0.28080  0.28730  0.61860  Biso   1.000  C
  C139     1.0000 0.11200  0.53700  0.80690  Biso   1.000  C
  H101     1.0000 0.08890  0.60670  0.78682  Biso   1.000  H
  C140     1.0000 0.22310  0.38320  0.82230  Biso   1.000  C
  H102     1.0000 0.27591  0.34840  0.81324  Biso   1.000  H
  C141     1.0000 0.34380  0.37310  0.63900  Biso   1.000  C
  H103     1.0000 0.39761  0.37600  0.62373  Biso   1.000  H
  C142     1.0000 0.37980  0.13100  0.50210  Biso   1.000  C
  H104     1.0000 0.42818  0.14087  0.48140  Biso   1.000  H
  C143     1.0000 0.29730  0.20070  0.57460  Biso   1.000  C
  C144     1.0000 0.23670  0.54420  0.74720  Biso   1.000  C
  H105     1.0000 0.29242  0.57622  0.76285  Biso   1.000  H
  H106     1.0000 0.20371  0.61551  0.73088  Biso   1.000  H
  C145     1.0000 0.19000  0.36950  0.68580  Biso   1.000  C
  H107     1.0000 0.13715  0.36755  0.70224  Biso   1.000  H
  C146     1.0000 0.98760  0.54870  0.86500  Biso   1.000  C
  C147     1.0000 0.21940  0.22830  0.89790  Biso   1.000  C
  C148     1.0000 0.06920  0.48900  0.84930  Biso   1.000  C
  C149     1.0000 0.32680  0.45250  0.68100  Biso   1.000  C
  H108     1.0000 0.36943  0.50989  0.69450  Biso   1.000  H
  C150     1.0000 0.36790  0.21410  0.54400  Biso   1.000  C
  H109     1.0000 0.40760  0.27973  0.55191  Biso   1.000  H
  C151     1.0000 0.20400  0.29070  0.64440  Biso   1.000  C
  H110     1.0000 0.15966  0.23478  0.63208  Biso   1.000  H
  O39      1.0000 0.96340  0.64200  0.84230  Biso   1.000  O
  C152     1.0000 0.25350  0.02520  0.51820  Biso   1.000  C
  H111     1.0000 0.21287  0.96148  0.50896  Biso   1.000  H
  O40      1.0000 0.40860  0.22420  0.98180  Biso   1.000  O
  H112     1.0000 0.42800  0.31300  0.96600  Biso   1.000  H
