data_image0
_cell_length_a       15.837
_cell_length_b       10.568
_cell_length_c       21.099
_cell_angle_alpha    90
_cell_angle_beta     107.098
_cell_angle_gamma    90

_symmetry_space_group_name_H-M    "P 1"
_symmetry_int_tables_number       1

loop_
  _symmetry_equiv_pos_as_xyz
  'x, y, z'

loop_
  _atom_site_label
  _atom_site_occupancy
  _atom_site_fract_x
  _atom_site_fract_y
  _atom_site_fract_z
  _atom_site_thermal_displace_type
  _atom_site_B_iso_or_equiv
  _atom_site_type_symbol
  Pr1      1.0000 0.39919  0.08118  0.54697  Biso   1.000  Pr
  O1       1.0000 0.54280  0.17220  0.56460  Biso   1.000  O
  O2       1.0000 0.50530  0.92180  0.59280  Biso   1.000  O
  O3       1.0000 0.39010  0.17270  0.43960  Biso   1.000  O
  O4       1.0000 0.23800  0.13620  0.48930  Biso   1.000  O
  O5       1.0000 0.34440  0.91270  0.46130  Biso   1.000  O
  O6       1.0000 0.39310  0.06440  0.66380  Biso   1.000  O
  O7       1.0000 0.30980  0.92900  0.59400  Biso   1.000  O
  C1       1.0000 0.57850  0.86500  0.60420  Biso   1.000  C
  C2       1.0000 0.63110  0.84280  0.67590  Biso   1.000  C
  C3       1.0000 0.69730  0.75010  0.69060  Biso   1.000  C
  C4       1.0000 0.61470  0.91170  0.72660  Biso   1.000  C
  C5       1.0000 0.74840  0.72620  0.75410  Biso   1.000  C
  H1       1.0000 0.70690  0.70320  0.65610  Biso   1.000  H
  C6       1.0000 0.66720  0.88960  0.79130  Biso   1.000  C
  H2       1.0000 0.56960  0.97140  0.71780  Biso   1.000  H
  C7       1.0000 0.73260  0.79800  0.80440  Biso   1.000  C
  N1       1.0000 0.81180  0.63100  0.76680  Biso   1.000  N
  C8       1.0000 0.65350  0.96590  0.84750  Biso   1.000  C
  H3       1.0000 0.76670  0.78440  0.84790  Biso   1.000  H
  C9       1.0000 0.86500  0.59940  0.83390  Biso   1.000  C
  C10      1.0000 0.84120  0.57520  0.71400  Biso   1.000  C
  C11      1.0000 0.94790  0.67680  0.85890  Biso   1.000  C
  H4       1.0000 0.88110  0.51070  0.83520  Biso   1.000  H
  H5       1.0000 0.82920  0.61090  0.86380  Biso   1.000  H
  H6       1.0000 0.84090  0.64000  0.68130  Biso   1.000  H
  C12      1.0000 0.78430  0.46430  0.67920  Biso   1.000  C
  H7       1.0000 0.90160  0.54620  0.73230  Biso   1.000  H
  C13      1.0000 0.96360  0.78300  0.82710  Biso   1.000  C
  C14      1.0000 0.01250  0.63920  0.91660  Biso   1.000  C
  C15      1.0000 0.70690  0.43190  0.69080  Biso   1.000  C
  C16      1.0000 0.81210  0.39640  0.63350  Biso   1.000  C
  H8       1.0000 0.92200  0.80800  0.78800  Biso   1.000  H
  C17      1.0000 0.03990  0.85450  0.85140  Biso   1.000  C
  C18      1.0000 0.08870  0.70810  0.94130  Biso   1.000  C
  H9       1.0000 0.00380  0.56630  0.93870  Biso   1.000  H
  C19      1.0000 0.65470  0.33320  0.65580  Biso   1.000  C
  H10      1.0000 0.68840  0.47600  0.72260  Biso   1.000  H
  C20      1.0000 0.76080  0.29900  0.59760  Biso   1.000  C
  H11      1.0000 0.86590  0.41590  0.62640  Biso   1.000  H
  C21      1.0000 0.10270  0.81730  0.90940  Biso   1.000  C
  H12      1.0000 0.04890  0.92660  0.82890  Biso   1.000  H
  H13      1.0000 0.13110  0.68140  0.97960  Biso   1.000  H
  C22      1.0000 0.68090  0.26790  0.60830  Biso   1.000  C
  H14      1.0000 0.60230  0.31180  0.66460  Biso   1.000  H
  H15      1.0000 0.78000  0.25460  0.56640  Biso   1.000  H
  C23      1.0000 0.18420  0.89100  0.93710  Biso   1.000  C
  C24      1.0000 0.62220  0.16890  0.56780  Biso   1.000  C
  O8       1.0000 0.19320  0.98850  0.90080  Biso   1.000  O
  Pr2      1.0000 0.60081  0.08118  0.95303  Biso   1.000  Pr
  O9       1.0000 0.45720  0.17220  0.93540  Biso   1.000  O
  O10      1.0000 0.49470  0.92180  0.90720  Biso   1.000  O
  O11      1.0000 0.60990  0.17270  0.06040  Biso   1.000  O
  O12      1.0000 0.76200  0.13620  0.01070  Biso   1.000  O
  O13      1.0000 0.65560  0.91270  0.03870  Biso   1.000  O
  O14      1.0000 0.60690  0.06440  0.83620  Biso   1.000  O
  O15      1.0000 0.69020  0.92900  0.90600  Biso   1.000  O
  C25      1.0000 0.42150  0.86500  0.89580  Biso   1.000  C
  C26      1.0000 0.36890  0.84280  0.82410  Biso   1.000  C
  C27      1.0000 0.30270  0.75010  0.80940  Biso   1.000  C
  C28      1.0000 0.38530  0.91170  0.77340  Biso   1.000  C
  C29      1.0000 0.25160  0.72620  0.74590  Biso   1.000  C
  H16      1.0000 0.29310  0.70320  0.84390  Biso   1.000  H
  C30      1.0000 0.33280  0.88960  0.70870  Biso   1.000  C
  H17      1.0000 0.43040  0.97140  0.78220  Biso   1.000  H
  C31      1.0000 0.26740  0.79800  0.69560  Biso   1.000  C
  N2       1.0000 0.18820  0.63100  0.73320  Biso   1.000  N
  C32      1.0000 0.34650  0.96590  0.65250  Biso   1.000  C
  H18      1.0000 0.23330  0.78440  0.65210  Biso   1.000  H
  C33      1.0000 0.13500  0.59940  0.66610  Biso   1.000  C
  C34      1.0000 0.15880  0.57520  0.78600  Biso   1.000  C
  C35      1.0000 0.05210  0.67680  0.64110  Biso   1.000  C
  H19      1.0000 0.11890  0.51070  0.66480  Biso   1.000  H
  H20      1.0000 0.17080  0.61090  0.63620  Biso   1.000  H
  H21      1.0000 0.15910  0.64000  0.81870  Biso   1.000  H
  C36      1.0000 0.21570  0.46430  0.82080  Biso   1.000  C
  H22      1.0000 0.09840  0.54620  0.76770  Biso   1.000  H
  C37      1.0000 0.03640  0.78300  0.67290  Biso   1.000  C
  C38      1.0000 0.98750  0.63920  0.58340  Biso   1.000  C
  C39      1.0000 0.29310  0.43190  0.80920  Biso   1.000  C
  C40      1.0000 0.18790  0.39640  0.86650  Biso   1.000  C
  H23      1.0000 0.07800  0.80800  0.71200  Biso   1.000  H
  C41      1.0000 0.96010  0.85450  0.64860  Biso   1.000  C
  C42      1.0000 0.91130  0.70810  0.55870  Biso   1.000  C
  H24      1.0000 0.99620  0.56630  0.56130  Biso   1.000  H
  C43      1.0000 0.34530  0.33320  0.84420  Biso   1.000  C
  H25      1.0000 0.31160  0.47600  0.77740  Biso   1.000  H
  C44      1.0000 0.23920  0.29900  0.90240  Biso   1.000  C
  H26      1.0000 0.13410  0.41590  0.87360  Biso   1.000  H
  C45      1.0000 0.89730  0.81730  0.59060  Biso   1.000  C
  H27      1.0000 0.95110  0.92660  0.67110  Biso   1.000  H
  H28      1.0000 0.86890  0.68140  0.52040  Biso   1.000  H
  C46      1.0000 0.31910  0.26790  0.89170  Biso   1.000  C
  H29      1.0000 0.39770  0.31180  0.83540  Biso   1.000  H
  H30      1.0000 0.22000  0.25460  0.93360  Biso   1.000  H
  C47      1.0000 0.81580  0.89100  0.56290  Biso   1.000  C
  C48      1.0000 0.37780  0.16890  0.93220  Biso   1.000  C
  O16      1.0000 0.80680  0.98850  0.59920  Biso   1.000  O
  Pr3      1.0000 0.60081  0.91882  0.45303  Biso   1.000  Pr
  O17      1.0000 0.45720  0.82780  0.43540  Biso   1.000  O
  O18      1.0000 0.49470  0.07820  0.40720  Biso   1.000  O
  O19      1.0000 0.60990  0.82730  0.56040  Biso   1.000  O
  O20      1.0000 0.76200  0.86380  0.51070  Biso   1.000  O
  O21      1.0000 0.65560  0.08730  0.53870  Biso   1.000  O
  O22      1.0000 0.60690  0.93560  0.33620  Biso   1.000  O
  O23      1.0000 0.69020  0.07100  0.40600  Biso   1.000  O
  C49      1.0000 0.42150  0.13500  0.39580  Biso   1.000  C
  C50      1.0000 0.36890  0.15720  0.32410  Biso   1.000  C
  C51      1.0000 0.30270  0.24990  0.30940  Biso   1.000  C
  C52      1.0000 0.38530  0.08830  0.27340  Biso   1.000  C
  C53      1.0000 0.25160  0.27380  0.24590  Biso   1.000  C
  H31      1.0000 0.29310  0.29680  0.34390  Biso   1.000  H
  C54      1.0000 0.33280  0.11040  0.20870  Biso   1.000  C
  H32      1.0000 0.43040  0.02860  0.28220  Biso   1.000  H
  C55      1.0000 0.26740  0.20200  0.19560  Biso   1.000  C
  N3       1.0000 0.18820  0.36900  0.23320  Biso   1.000  N
  C56      1.0000 0.34650  0.03410  0.15250  Biso   1.000  C
  H33      1.0000 0.23330  0.21560  0.15210  Biso   1.000  H
  C57      1.0000 0.13500  0.40060  0.16610  Biso   1.000  C
  C58      1.0000 0.15880  0.42480  0.28600  Biso   1.000  C
  C59      1.0000 0.05210  0.32320  0.14110  Biso   1.000  C
  H34      1.0000 0.11890  0.48930  0.16480  Biso   1.000  H
  H35      1.0000 0.17080  0.38910  0.13620  Biso   1.000  H
  H36      1.0000 0.15910  0.36000  0.31870  Biso   1.000  H
  C60      1.0000 0.21570  0.53570  0.32080  Biso   1.000  C
  H37      1.0000 0.09840  0.45380  0.26770  Biso   1.000  H
  C61      1.0000 0.03640  0.21700  0.17290  Biso   1.000  C
  C62      1.0000 0.98750  0.36080  0.08340  Biso   1.000  C
  C63      1.0000 0.29310  0.56810  0.30920  Biso   1.000  C
  C64      1.0000 0.18790  0.60360  0.36650  Biso   1.000  C
  H38      1.0000 0.07800  0.19200  0.21200  Biso   1.000  H
  C65      1.0000 0.96010  0.14550  0.14860  Biso   1.000  C
  C66      1.0000 0.91130  0.29190  0.05870  Biso   1.000  C
  H39      1.0000 0.99620  0.43370  0.06130  Biso   1.000  H
  C67      1.0000 0.34530  0.66680  0.34420  Biso   1.000  C
  H40      1.0000 0.31160  0.52400  0.27740  Biso   1.000  H
  C68      1.0000 0.23920  0.70100  0.40240  Biso   1.000  C
  H41      1.0000 0.13410  0.58410  0.37360  Biso   1.000  H
  C69      1.0000 0.89730  0.18270  0.09060  Biso   1.000  C
  H42      1.0000 0.95110  0.07340  0.17110  Biso   1.000  H
  H43      1.0000 0.86890  0.31860  0.02040  Biso   1.000  H
  C70      1.0000 0.31910  0.73210  0.39170  Biso   1.000  C
  H44      1.0000 0.39770  0.68820  0.33540  Biso   1.000  H
  H45      1.0000 0.22000  0.74540  0.43360  Biso   1.000  H
  C71      1.0000 0.81580  0.10900  0.06290  Biso   1.000  C
  C72      1.0000 0.37780  0.83110  0.43220  Biso   1.000  C
  O24      1.0000 0.80680  0.01150  0.09920  Biso   1.000  O
  Pr4      1.0000 0.39919  0.91882  0.04697  Biso   1.000  Pr
  O25      1.0000 0.54280  0.82780  0.06460  Biso   1.000  O
  O26      1.0000 0.50530  0.07820  0.09280  Biso   1.000  O
  O27      1.0000 0.39010  0.82730  0.93960  Biso   1.000  O
  O28      1.0000 0.23800  0.86380  0.98930  Biso   1.000  O
  O29      1.0000 0.34440  0.08730  0.96130  Biso   1.000  O
  O30      1.0000 0.39310  0.93560  0.16380  Biso   1.000  O
  O31      1.0000 0.30980  0.07100  0.09400  Biso   1.000  O
  C73      1.0000 0.57850  0.13500  0.10420  Biso   1.000  C
  C74      1.0000 0.63110  0.15720  0.17590  Biso   1.000  C
  C75      1.0000 0.69730  0.24990  0.19060  Biso   1.000  C
  C76      1.0000 0.61470  0.08830  0.22660  Biso   1.000  C
  C77      1.0000 0.74840  0.27380  0.25410  Biso   1.000  C
  H46      1.0000 0.70690  0.29680  0.15610  Biso   1.000  H
  C78      1.0000 0.66720  0.11040  0.29130  Biso   1.000  C
  H47      1.0000 0.56960  0.02860  0.21780  Biso   1.000  H
  C79      1.0000 0.73260  0.20200  0.30440  Biso   1.000  C
  N4       1.0000 0.81180  0.36900  0.26680  Biso   1.000  N
  C80      1.0000 0.65350  0.03410  0.34750  Biso   1.000  C
  H48      1.0000 0.76670  0.21560  0.34790  Biso   1.000  H
  C81      1.0000 0.86500  0.40060  0.33390  Biso   1.000  C
  C82      1.0000 0.84120  0.42480  0.21400  Biso   1.000  C
  C83      1.0000 0.94790  0.32320  0.35890  Biso   1.000  C
  H49      1.0000 0.88110  0.48930  0.33520  Biso   1.000  H
  H50      1.0000 0.82920  0.38910  0.36380  Biso   1.000  H
  H51      1.0000 0.84090  0.36000  0.18130  Biso   1.000  H
  C84      1.0000 0.78430  0.53570  0.17920  Biso   1.000  C
  H52      1.0000 0.90160  0.45380  0.23230  Biso   1.000  H
  C85      1.0000 0.96360  0.21700  0.32710  Biso   1.000  C
  C86      1.0000 0.01250  0.36080  0.41660  Biso   1.000  C
  C87      1.0000 0.70690  0.56810  0.19080  Biso   1.000  C
  C88      1.0000 0.81210  0.60360  0.13350  Biso   1.000  C
  H53      1.0000 0.92200  0.19200  0.28800  Biso   1.000  H
  C89      1.0000 0.03990  0.14550  0.35140  Biso   1.000  C
  C90      1.0000 0.08870  0.29190  0.44130  Biso   1.000  C
  H54      1.0000 0.00380  0.43370  0.43870  Biso   1.000  H
  C91      1.0000 0.65470  0.66680  0.15580  Biso   1.000  C
  H55      1.0000 0.68840  0.52400  0.22260  Biso   1.000  H
  C92      1.0000 0.76080  0.70100  0.09760  Biso   1.000  C
  H56      1.0000 0.86590  0.58410  0.12640  Biso   1.000  H
  C93      1.0000 0.10270  0.18270  0.40940  Biso   1.000  C
  H57      1.0000 0.04890  0.07340  0.32890  Biso   1.000  H
  H58      1.0000 0.13110  0.31860  0.47960  Biso   1.000  H
  C94      1.0000 0.68090  0.73210  0.10830  Biso   1.000  C
  H59      1.0000 0.60230  0.68820  0.16460  Biso   1.000  H
  H60      1.0000 0.78000  0.74540  0.06640  Biso   1.000  H
  C95      1.0000 0.18420  0.10900  0.43710  Biso   1.000  C
  C96      1.0000 0.62220  0.83110  0.06780  Biso   1.000  C
  O32      1.0000 0.19320  0.01150  0.40080  Biso   1.000  O
