data_image0
_cell_length_a       15.861
_cell_length_b       10.599
_cell_length_c       21.235
_cell_angle_alpha    90
_cell_angle_beta     106.914
_cell_angle_gamma    90

_symmetry_space_group_name_H-M    "P 1"
_symmetry_int_tables_number       1

loop_
  _symmetry_equiv_pos_as_xyz
  'x, y, z'

loop_
  _atom_site_label
  _atom_site_occupancy
  _atom_site_fract_x
  _atom_site_fract_y
  _atom_site_fract_z
  _atom_site_thermal_displace_type
  _atom_site_B_iso_or_equiv
  _atom_site_type_symbol
  C1       1.0000 0.31680  0.39160  0.56370  Biso   1.000  C
  C2       1.0000 0.39890  0.31630  0.59180  Biso   1.000  C
  C3       1.0000 0.41280  0.20910  0.55980  Biso   1.000  C
  H1       1.0000 0.37110  0.18410  0.52120  Biso   1.000  H
  C4       1.0000 0.48870  0.13780  0.58470  Biso   1.000  C
  H2       1.0000 0.49740  0.06440  0.56340  Biso   1.000  H
  C5       1.0000 0.55170  0.17710  0.64200  Biso   1.000  C
  C6       1.0000 0.53600  0.28090  0.67390  Biso   1.000  C
  H3       1.0000 0.57690  0.30520  0.71310  Biso   1.000  H
  C7       1.0000 0.45950  0.35200  0.64910  Biso   1.000  C
  H4       1.0000 0.44980  0.42330  0.67150  Biso   1.000  H
  C8       1.0000 0.63560  0.10080  0.66750  Biso   1.000  C
  H5       1.0000 0.62010  0.01210  0.66510  Biso   1.000  H
  H6       1.0000 0.67200  0.11450  0.63850  Biso   1.000  H
  C9       1.0000 0.65900  0.07300  0.78600  Biso   1.000  C
  H7       1.0000 0.59870  0.04410  0.76800  Biso   1.000  H
  H8       1.0000 0.65900  0.13800  0.81810  Biso   1.000  H
  C10      1.0000 0.71410  0.96390  0.82090  Biso   1.000  C
  C11      1.0000 0.68640  0.89490  0.86640  Biso   1.000  C
  H9       1.0000 0.63280  0.91420  0.87370  Biso   1.000  H
  C12      1.0000 0.73690  0.79800  0.90120  Biso   1.000  C
  H10      1.0000 0.71660  0.75160  0.93110  Biso   1.000  H
  C13      1.0000 0.81790  0.76930  0.89200  Biso   1.000  C
  C14      1.0000 0.87570  0.66970  0.93190  Biso   1.000  C
  C15      1.0000 0.84410  0.83620  0.84510  Biso   1.000  C
  H11      1.0000 0.89700  0.81600  0.83690  Biso   1.000  H
  C16      1.0000 0.79290  0.93220  0.81040  Biso   1.000  C
  H12      1.0000 0.81200  0.97650  0.77920  Biso   1.000  H
  C17      1.0000 0.91960  0.36370  0.89520  Biso   1.000  C
  C18      1.0000 0.86820  0.34070  0.82450  Biso   1.000  C
  C19      1.0000 0.80160  0.25020  0.81110  Biso   1.000  C
  H13      1.0000 0.79050  0.20590  0.84570  Biso   1.000  H
  C20      1.0000 0.75140  0.22510  0.74690  Biso   1.000  C
  C21      1.0000 0.76670  0.29630  0.69640  Biso   1.000  C
  H14      1.0000 0.73270  0.28270  0.65320  Biso   1.000  H
  C22      1.0000 0.83260  0.38780  0.70990  Biso   1.000  C
  C23      1.0000 0.88410  0.40970  0.77400  Biso   1.000  C
  H15      1.0000 0.92860  0.46990  0.78270  Biso   1.000  H
  C24      1.0000 0.84520  0.46430  0.65400  Biso   1.000  C
  N1       1.0000 0.68710  0.12870  0.73340  Biso   1.000  N
  O1       1.0000 0.30800  0.48880  0.59910  Biso   1.000  O
  O2       1.0000 0.26410  0.36620  0.51070  Biso   1.000  O
  O3       1.0000 0.99210  0.42230  0.90670  Biso   1.000  O
  O4       1.0000 0.88890  0.32380  0.93910  Biso   1.000  O
  O5       1.0000 0.95520  0.67420  0.93620  Biso   1.000  O
  O6       1.0000 0.84220  0.58740  0.96070  Biso   1.000  O
  O7       1.0000 0.89170  0.56290  0.66590  Biso   1.000  O
  La1      1.0000 0.89925  0.41834  0.04756  Biso   1.000  La
  O8       1.0000 0.80880  0.42860  0.59600  Biso   1.000  O
  C25      1.0000 0.68320  0.39160  0.93630  Biso   1.000  C
  C26      1.0000 0.60110  0.31630  0.90820  Biso   1.000  C
  C27      1.0000 0.58720  0.20910  0.94020  Biso   1.000  C
  H16      1.0000 0.62890  0.18410  0.97880  Biso   1.000  H
  C28      1.0000 0.51130  0.13780  0.91530  Biso   1.000  C
  H17      1.0000 0.50260  0.06440  0.93660  Biso   1.000  H
  C29      1.0000 0.44830  0.17710  0.85800  Biso   1.000  C
  C30      1.0000 0.46400  0.28090  0.82610  Biso   1.000  C
  H18      1.0000 0.42310  0.30520  0.78690  Biso   1.000  H
  C31      1.0000 0.54050  0.35200  0.85090  Biso   1.000  C
  H19      1.0000 0.55020  0.42330  0.82850  Biso   1.000  H
  C32      1.0000 0.36440  0.10080  0.83250  Biso   1.000  C
  H20      1.0000 0.37990  0.01210  0.83490  Biso   1.000  H
  H21      1.0000 0.32800  0.11450  0.86150  Biso   1.000  H
  C33      1.0000 0.34100  0.07300  0.71400  Biso   1.000  C
  H22      1.0000 0.40130  0.04410  0.73200  Biso   1.000  H
  H23      1.0000 0.34100  0.13800  0.68190  Biso   1.000  H
  C34      1.0000 0.28590  0.96390  0.67910  Biso   1.000  C
  C35      1.0000 0.31360  0.89490  0.63360  Biso   1.000  C
  H24      1.0000 0.36720  0.91420  0.62630  Biso   1.000  H
  C36      1.0000 0.26310  0.79800  0.59880  Biso   1.000  C
  H25      1.0000 0.28340  0.75160  0.56890  Biso   1.000  H
  C37      1.0000 0.18210  0.76930  0.60800  Biso   1.000  C
  C38      1.0000 0.12430  0.66970  0.56810  Biso   1.000  C
  C39      1.0000 0.15590  0.83620  0.65490  Biso   1.000  C
  H26      1.0000 0.10300  0.81600  0.66310  Biso   1.000  H
  C40      1.0000 0.20710  0.93220  0.68960  Biso   1.000  C
  H27      1.0000 0.18800  0.97650  0.72080  Biso   1.000  H
  C41      1.0000 0.08040  0.36370  0.60480  Biso   1.000  C
  C42      1.0000 0.13180  0.34070  0.67550  Biso   1.000  C
  C43      1.0000 0.19840  0.25020  0.68890  Biso   1.000  C
  H28      1.0000 0.20950  0.20590  0.65430  Biso   1.000  H
  C44      1.0000 0.24860  0.22510  0.75310  Biso   1.000  C
  C45      1.0000 0.23330  0.29630  0.80360  Biso   1.000  C
  H29      1.0000 0.26730  0.28270  0.84680  Biso   1.000  H
  C46      1.0000 0.16740  0.38780  0.79010  Biso   1.000  C
  C47      1.0000 0.11590  0.40970  0.72600  Biso   1.000  C
  H30      1.0000 0.07140  0.46990  0.71730  Biso   1.000  H
  C48      1.0000 0.15480  0.46430  0.84600  Biso   1.000  C
  N2       1.0000 0.31290  0.12870  0.76660  Biso   1.000  N
  O9       1.0000 0.69200  0.48880  0.90090  Biso   1.000  O
  O10      1.0000 0.73590  0.36620  0.98930  Biso   1.000  O
  O11      1.0000 0.00790  0.42230  0.59330  Biso   1.000  O
  O12      1.0000 0.11110  0.32380  0.56090  Biso   1.000  O
  O13      1.0000 0.04480  0.67420  0.56380  Biso   1.000  O
  O14      1.0000 0.15780  0.58740  0.53930  Biso   1.000  O
  O15      1.0000 0.10830  0.56290  0.83410  Biso   1.000  O
  La2      1.0000 0.10075  0.41834  0.45244  Biso   1.000  La
  O16      1.0000 0.19120  0.42860  0.90400  Biso   1.000  O
  C49      1.0000 0.68320  0.60840  0.43630  Biso   1.000  C
  C50      1.0000 0.60110  0.68370  0.40820  Biso   1.000  C
  C51      1.0000 0.58720  0.79090  0.44020  Biso   1.000  C
  H31      1.0000 0.62890  0.81590  0.47880  Biso   1.000  H
  C52      1.0000 0.51130  0.86220  0.41530  Biso   1.000  C
  H32      1.0000 0.50260  0.93560  0.43660  Biso   1.000  H
  C53      1.0000 0.44830  0.82290  0.35800  Biso   1.000  C
  C54      1.0000 0.46400  0.71910  0.32610  Biso   1.000  C
  H33      1.0000 0.42310  0.69480  0.28690  Biso   1.000  H
  C55      1.0000 0.54050  0.64800  0.35090  Biso   1.000  C
  H34      1.0000 0.55020  0.57670  0.32850  Biso   1.000  H
  C56      1.0000 0.36440  0.89920  0.33250  Biso   1.000  C
  H35      1.0000 0.37990  0.98790  0.33490  Biso   1.000  H
  H36      1.0000 0.32800  0.88550  0.36150  Biso   1.000  H
  C57      1.0000 0.34100  0.92700  0.21400  Biso   1.000  C
  H37      1.0000 0.40130  0.95590  0.23200  Biso   1.000  H
  H38      1.0000 0.34100  0.86200  0.18190  Biso   1.000  H
  C58      1.0000 0.28590  0.03610  0.17910  Biso   1.000  C
  C59      1.0000 0.31360  0.10510  0.13360  Biso   1.000  C
  H39      1.0000 0.36720  0.08580  0.12630  Biso   1.000  H
  C60      1.0000 0.26310  0.20200  0.09880  Biso   1.000  C
  H40      1.0000 0.28340  0.24840  0.06890  Biso   1.000  H
  C61      1.0000 0.18210  0.23070  0.10800  Biso   1.000  C
  C62      1.0000 0.12430  0.33030  0.06810  Biso   1.000  C
  C63      1.0000 0.15590  0.16380  0.15490  Biso   1.000  C
  H41      1.0000 0.10300  0.18400  0.16310  Biso   1.000  H
  C64      1.0000 0.20710  0.06780  0.18960  Biso   1.000  C
  H42      1.0000 0.18800  0.02350  0.22080  Biso   1.000  H
  C65      1.0000 0.08040  0.63630  0.10480  Biso   1.000  C
  C66      1.0000 0.13180  0.65930  0.17550  Biso   1.000  C
  C67      1.0000 0.19840  0.74980  0.18890  Biso   1.000  C
  H43      1.0000 0.20950  0.79410  0.15430  Biso   1.000  H
  C68      1.0000 0.24860  0.77490  0.25310  Biso   1.000  C
  C69      1.0000 0.23330  0.70370  0.30360  Biso   1.000  C
  H44      1.0000 0.26730  0.71730  0.34680  Biso   1.000  H
  C70      1.0000 0.16740  0.61220  0.29010  Biso   1.000  C
  C71      1.0000 0.11590  0.59030  0.22600  Biso   1.000  C
  H45      1.0000 0.07140  0.53010  0.21730  Biso   1.000  H
  C72      1.0000 0.15480  0.53570  0.34600  Biso   1.000  C
  N3       1.0000 0.31290  0.87130  0.26660  Biso   1.000  N
  O17      1.0000 0.69200  0.51120  0.40090  Biso   1.000  O
  O18      1.0000 0.73590  0.63380  0.48930  Biso   1.000  O
  O19      1.0000 0.00790  0.57770  0.09330  Biso   1.000  O
  O20      1.0000 0.11110  0.67620  0.06090  Biso   1.000  O
  O21      1.0000 0.04480  0.32580  0.06380  Biso   1.000  O
  O22      1.0000 0.15780  0.41260  0.03930  Biso   1.000  O
  O23      1.0000 0.10830  0.43710  0.33410  Biso   1.000  O
  La3      1.0000 0.10075  0.58166  0.95244  Biso   1.000  La
  O24      1.0000 0.19120  0.57140  0.40400  Biso   1.000  O
  C73      1.0000 0.31680  0.60840  0.06370  Biso   1.000  C
  C74      1.0000 0.39890  0.68370  0.09180  Biso   1.000  C
  C75      1.0000 0.41280  0.79090  0.05980  Biso   1.000  C
  H46      1.0000 0.37110  0.81590  0.02120  Biso   1.000  H
  C76      1.0000 0.48870  0.86220  0.08470  Biso   1.000  C
  H47      1.0000 0.49740  0.93560  0.06340  Biso   1.000  H
  C77      1.0000 0.55170  0.82290  0.14200  Biso   1.000  C
  C78      1.0000 0.53600  0.71910  0.17390  Biso   1.000  C
  H48      1.0000 0.57690  0.69480  0.21310  Biso   1.000  H
  C79      1.0000 0.45950  0.64800  0.14910  Biso   1.000  C
  H49      1.0000 0.44980  0.57670  0.17150  Biso   1.000  H
  C80      1.0000 0.63560  0.89920  0.16750  Biso   1.000  C
  H50      1.0000 0.62010  0.98790  0.16510  Biso   1.000  H
  H51      1.0000 0.67200  0.88550  0.13850  Biso   1.000  H
  C81      1.0000 0.65900  0.92700  0.28600  Biso   1.000  C
  H52      1.0000 0.59870  0.95590  0.26800  Biso   1.000  H
  H53      1.0000 0.65900  0.86200  0.31810  Biso   1.000  H
  C82      1.0000 0.71410  0.03610  0.32090  Biso   1.000  C
  C83      1.0000 0.68640  0.10510  0.36640  Biso   1.000  C
  H54      1.0000 0.63280  0.08580  0.37370  Biso   1.000  H
  C84      1.0000 0.73690  0.20200  0.40120  Biso   1.000  C
  H55      1.0000 0.71660  0.24840  0.43110  Biso   1.000  H
  C85      1.0000 0.81790  0.23070  0.39200  Biso   1.000  C
  C86      1.0000 0.87570  0.33030  0.43190  Biso   1.000  C
  C87      1.0000 0.84410  0.16380  0.34510  Biso   1.000  C
  H56      1.0000 0.89700  0.18400  0.33690  Biso   1.000  H
  C88      1.0000 0.79290  0.06780  0.31040  Biso   1.000  C
  H57      1.0000 0.81200  0.02350  0.27920  Biso   1.000  H
  C89      1.0000 0.91960  0.63630  0.39520  Biso   1.000  C
  C90      1.0000 0.86820  0.65930  0.32450  Biso   1.000  C
  C91      1.0000 0.80160  0.74980  0.31110  Biso   1.000  C
  H58      1.0000 0.79050  0.79410  0.34570  Biso   1.000  H
  C92      1.0000 0.75140  0.77490  0.24690  Biso   1.000  C
  C93      1.0000 0.76670  0.70370  0.19640  Biso   1.000  C
  H59      1.0000 0.73270  0.71730  0.15320  Biso   1.000  H
  C94      1.0000 0.83260  0.61220  0.20990  Biso   1.000  C
  C95      1.0000 0.88410  0.59030  0.27400  Biso   1.000  C
  H60      1.0000 0.92860  0.53010  0.28270  Biso   1.000  H
  C96      1.0000 0.84520  0.53570  0.15400  Biso   1.000  C
  N4       1.0000 0.68710  0.87130  0.23340  Biso   1.000  N
  O25      1.0000 0.30800  0.51120  0.09910  Biso   1.000  O
  O26      1.0000 0.26410  0.63380  0.01070  Biso   1.000  O
  O27      1.0000 0.99210  0.57770  0.40670  Biso   1.000  O
  O28      1.0000 0.88890  0.67620  0.43910  Biso   1.000  O
  O29      1.0000 0.95520  0.32580  0.43620  Biso   1.000  O
  O30      1.0000 0.84220  0.41260  0.46070  Biso   1.000  O
  O31      1.0000 0.89170  0.43710  0.16590  Biso   1.000  O
  La4      1.0000 0.89925  0.58166  0.54756  Biso   1.000  La
  O32      1.0000 0.80880  0.57140  0.09600  Biso   1.000  O
