data_image0
_cell_length_a       15.838
_cell_length_b       10.548
_cell_length_c       21.074
_cell_angle_alpha    90
_cell_angle_beta     107.247
_cell_angle_gamma    90

_symmetry_space_group_name_H-M    "P 1"
_symmetry_int_tables_number       1

loop_
  _symmetry_equiv_pos_as_xyz
  'x, y, z'

loop_
  _atom_site_label
  _atom_site_occupancy
  _atom_site_fract_x
  _atom_site_fract_y
  _atom_site_fract_z
  _atom_site_thermal_displace_type
  _atom_site_B_iso_or_equiv
  _atom_site_type_symbol
  Nd1      1.0000 0.39920  0.08038  0.54667  Biso   1.000  Nd
  O1       1.0000 0.50460  0.92200  0.59300  Biso   1.000  O
  O2       1.0000 0.65430  0.08730  0.53860  Biso   1.000  O
  O3       1.0000 0.60950  0.82790  0.56030  Biso   1.000  O
  O4       1.0000 0.54170  0.17170  0.56500  Biso   1.000  O
  O5       1.0000 0.60700  0.06510  0.83690  Biso   1.000  O
  O6       1.0000 0.68950  0.92910  0.90640  Biso   1.000  O
  C1       1.0000 0.57730  0.86610  0.60430  Biso   1.000  C
  C2       1.0000 0.74860  0.72710  0.75420  Biso   1.000  C
  C3       1.0000 0.63050  0.84280  0.67580  Biso   1.000  C
  N1       1.0000 0.81190  0.63190  0.76720  Biso   1.000  N
  O7       1.0000 0.23920  0.86420  0.98960  Biso   1.000  O
  C4       1.0000 0.69680  0.75110  0.69060  Biso   1.000  C
  H1       1.0000 0.70640  0.70440  0.65600  Biso   1.000  H
  C5       1.0000 0.66650  0.89040  0.79150  Biso   1.000  C
  C6       1.0000 0.61410  0.91270  0.72670  Biso   1.000  C
  H2       1.0000 0.56930  0.97300  0.71770  Biso   1.000  H
  O8       1.0000 0.19410  0.98870  0.90070  Biso   1.000  O
  C7       1.0000 0.86480  0.59990  0.83420  Biso   1.000  C
  H3       1.0000 0.88090  0.51110  0.83530  Biso   1.000  H
  H4       1.0000 0.82910  0.61140  0.86400  Biso   1.000  H
  C8       1.0000 0.70640  0.43220  0.69120  Biso   1.000  C
  H5       1.0000 0.68850  0.47560  0.72330  Biso   1.000  H
  C9       1.0000 0.78340  0.46460  0.67900  Biso   1.000  C
  C10      1.0000 0.67990  0.26850  0.60830  Biso   1.000  C
  C11      1.0000 0.62120  0.16840  0.56800  Biso   1.000  C
  C12      1.0000 0.96420  0.78430  0.82730  Biso   1.000  C
  H6       1.0000 0.92250  0.80970  0.78810  Biso   1.000  H
  C13      1.0000 0.73220  0.79830  0.80500  Biso   1.000  C
  H7       1.0000 0.76580  0.78390  0.84880  Biso   1.000  H
  C14      1.0000 0.94830  0.67800  0.85940  Biso   1.000  C
  C15      1.0000 0.10380  0.81820  0.90940  Biso   1.000  C
  C16      1.0000 0.84070  0.57540  0.71420  Biso   1.000  C
  H8       1.0000 0.90100  0.54590  0.73250  Biso   1.000  H
  H9       1.0000 0.84060  0.64030  0.68160  Biso   1.000  H
  C17      1.0000 0.04070  0.85480  0.85160  Biso   1.000  C
  H10      1.0000 0.04970  0.92690  0.82900  Biso   1.000  H
  C18      1.0000 0.81090  0.39560  0.63310  Biso   1.000  C
  H11      1.0000 0.86480  0.41500  0.62610  Biso   1.000  H
  C19      1.0000 0.65390  0.96570  0.84840  Biso   1.000  C
  C20      1.0000 0.18440  0.89280  0.93720  Biso   1.000  C
  C21      1.0000 0.65450  0.33410  0.65570  Biso   1.000  C
  H12      1.0000 0.60200  0.31290  0.66430  Biso   1.000  H
  C22      1.0000 0.76050  0.29910  0.59750  Biso   1.000  C
  H13      1.0000 0.77980  0.25420  0.56650  Biso   1.000  H
  C23      1.0000 0.01360  0.63960  0.91680  Biso   1.000  C
  H14      1.0000 0.00510  0.56630  0.93870  Biso   1.000  H
  C24      1.0000 0.08980  0.70810  0.94130  Biso   1.000  C
  H15      1.0000 0.13250  0.68090  0.97950  Biso   1.000  H
  Nd2      1.0000 0.60081  0.08038  0.95333  Biso   1.000  Nd
  O9       1.0000 0.49540  0.92200  0.90700  Biso   1.000  O
  O10      1.0000 0.34570  0.08730  0.96140  Biso   1.000  O
  O11      1.0000 0.39050  0.82790  0.93970  Biso   1.000  O
  O12      1.0000 0.45830  0.17170  0.93500  Biso   1.000  O
  O13      1.0000 0.39300  0.06510  0.66310  Biso   1.000  O
  O14      1.0000 0.31050  0.92910  0.59360  Biso   1.000  O
  C25      1.0000 0.42270  0.86610  0.89570  Biso   1.000  C
  C26      1.0000 0.25140  0.72710  0.74580  Biso   1.000  C
  C27      1.0000 0.36950  0.84280  0.82420  Biso   1.000  C
  N2       1.0000 0.18810  0.63190  0.73280  Biso   1.000  N
  O15      1.0000 0.76080  0.86420  0.51040  Biso   1.000  O
  C28      1.0000 0.30320  0.75110  0.80940  Biso   1.000  C
  H16      1.0000 0.29360  0.70440  0.84400  Biso   1.000  H
  C29      1.0000 0.33350  0.89040  0.70850  Biso   1.000  C
  C30      1.0000 0.38590  0.91270  0.77330  Biso   1.000  C
  H17      1.0000 0.43070  0.97300  0.78230  Biso   1.000  H
  O16      1.0000 0.80590  0.98870  0.59930  Biso   1.000  O
  C31      1.0000 0.13520  0.59990  0.66580  Biso   1.000  C
  H18      1.0000 0.11910  0.51110  0.66470  Biso   1.000  H
  H19      1.0000 0.17090  0.61140  0.63600  Biso   1.000  H
  C32      1.0000 0.29360  0.43220  0.80880  Biso   1.000  C
  H20      1.0000 0.31150  0.47560  0.77670  Biso   1.000  H
  C33      1.0000 0.21660  0.46460  0.82100  Biso   1.000  C
  C34      1.0000 0.32010  0.26850  0.89170  Biso   1.000  C
  C35      1.0000 0.37880  0.16840  0.93200  Biso   1.000  C
  C36      1.0000 0.03580  0.78430  0.67270  Biso   1.000  C
  H21      1.0000 0.07750  0.80970  0.71190  Biso   1.000  H
  C37      1.0000 0.26780  0.79830  0.69500  Biso   1.000  C
  H22      1.0000 0.23420  0.78390  0.65120  Biso   1.000  H
  C38      1.0000 0.05170  0.67800  0.64060  Biso   1.000  C
  C39      1.0000 0.89620  0.81820  0.59060  Biso   1.000  C
  C40      1.0000 0.15930  0.57540  0.78580  Biso   1.000  C
  H23      1.0000 0.09900  0.54590  0.76750  Biso   1.000  H
  H24      1.0000 0.15940  0.64030  0.81840  Biso   1.000  H
  C41      1.0000 0.95930  0.85480  0.64840  Biso   1.000  C
  H25      1.0000 0.95030  0.92690  0.67100  Biso   1.000  H
  C42      1.0000 0.18910  0.39560  0.86690  Biso   1.000  C
  H26      1.0000 0.13520  0.41500  0.87390  Biso   1.000  H
  C43      1.0000 0.34610  0.96570  0.65160  Biso   1.000  C
  C44      1.0000 0.81560  0.89280  0.56280  Biso   1.000  C
  C45      1.0000 0.34550  0.33410  0.84430  Biso   1.000  C
  H27      1.0000 0.39800  0.31290  0.83570  Biso   1.000  H
  C46      1.0000 0.23950  0.29910  0.90250  Biso   1.000  C
  H28      1.0000 0.22020  0.25420  0.93350  Biso   1.000  H
  C47      1.0000 0.98640  0.63960  0.58320  Biso   1.000  C
  H29      1.0000 0.99490  0.56630  0.56130  Biso   1.000  H
  C48      1.0000 0.91020  0.70810  0.55870  Biso   1.000  C
  H30      1.0000 0.86750  0.68090  0.52050  Biso   1.000  H
  Nd3      1.0000 0.60081  0.91962  0.45333  Biso   1.000  Nd
  O17      1.0000 0.49540  0.07800  0.40700  Biso   1.000  O
  O18      1.0000 0.34570  0.91270  0.46140  Biso   1.000  O
  O19      1.0000 0.39050  0.17210  0.43970  Biso   1.000  O
  O20      1.0000 0.45830  0.82830  0.43500  Biso   1.000  O
  O21      1.0000 0.39300  0.93490  0.16310  Biso   1.000  O
  O22      1.0000 0.31050  0.07090  0.09360  Biso   1.000  O
  C49      1.0000 0.42270  0.13390  0.39570  Biso   1.000  C
  C50      1.0000 0.25140  0.27290  0.24580  Biso   1.000  C
  C51      1.0000 0.36950  0.15720  0.32420  Biso   1.000  C
  N3       1.0000 0.18810  0.36810  0.23280  Biso   1.000  N
  O23      1.0000 0.76080  0.13580  0.01040  Biso   1.000  O
  C52      1.0000 0.30320  0.24890  0.30940  Biso   1.000  C
  H31      1.0000 0.29360  0.29560  0.34400  Biso   1.000  H
  C53      1.0000 0.33350  0.10960  0.20850  Biso   1.000  C
  C54      1.0000 0.38590  0.08730  0.27330  Biso   1.000  C
  H32      1.0000 0.43070  0.02700  0.28230  Biso   1.000  H
  O24      1.0000 0.80590  0.01130  0.09930  Biso   1.000  O
  C55      1.0000 0.13520  0.40010  0.16580  Biso   1.000  C
  H33      1.0000 0.11910  0.48890  0.16470  Biso   1.000  H
  H34      1.0000 0.17090  0.38860  0.13600  Biso   1.000  H
  C56      1.0000 0.29360  0.56780  0.30880  Biso   1.000  C
  H35      1.0000 0.31150  0.52440  0.27670  Biso   1.000  H
  C57      1.0000 0.21660  0.53540  0.32100  Biso   1.000  C
  C58      1.0000 0.32010  0.73150  0.39170  Biso   1.000  C
  C59      1.0000 0.37880  0.83160  0.43200  Biso   1.000  C
  C60      1.0000 0.03580  0.21570  0.17270  Biso   1.000  C
  H36      1.0000 0.07750  0.19030  0.21190  Biso   1.000  H
  C61      1.0000 0.26780  0.20170  0.19500  Biso   1.000  C
  H37      1.0000 0.23420  0.21610  0.15120  Biso   1.000  H
  C62      1.0000 0.05170  0.32200  0.14060  Biso   1.000  C
  C63      1.0000 0.89620  0.18180  0.09060  Biso   1.000  C
  C64      1.0000 0.15930  0.42460  0.28580  Biso   1.000  C
  H38      1.0000 0.09900  0.45410  0.26750  Biso   1.000  H
  H39      1.0000 0.15940  0.35970  0.31840  Biso   1.000  H
  C65      1.0000 0.95930  0.14520  0.14840  Biso   1.000  C
  H40      1.0000 0.95030  0.07310  0.17100  Biso   1.000  H
  C66      1.0000 0.18910  0.60440  0.36690  Biso   1.000  C
  H41      1.0000 0.13520  0.58500  0.37390  Biso   1.000  H
  C67      1.0000 0.34610  0.03430  0.15160  Biso   1.000  C
  C68      1.0000 0.81560  0.10720  0.06280  Biso   1.000  C
  C69      1.0000 0.34550  0.66590  0.34430  Biso   1.000  C
  H42      1.0000 0.39800  0.68710  0.33570  Biso   1.000  H
  C70      1.0000 0.23950  0.70090  0.40250  Biso   1.000  C
  H43      1.0000 0.22020  0.74580  0.43350  Biso   1.000  H
  C71      1.0000 0.98640  0.36040  0.08320  Biso   1.000  C
  H44      1.0000 0.99490  0.43370  0.06130  Biso   1.000  H
  C72      1.0000 0.91020  0.29190  0.05870  Biso   1.000  C
  H45      1.0000 0.86750  0.31910  0.02050  Biso   1.000  H
  Nd4      1.0000 0.39920  0.91962  0.04667  Biso   1.000  Nd
  O25      1.0000 0.50460  0.07800  0.09300  Biso   1.000  O
  O26      1.0000 0.65430  0.91270  0.03860  Biso   1.000  O
  O27      1.0000 0.60950  0.17210  0.06030  Biso   1.000  O
  O28      1.0000 0.54170  0.82830  0.06500  Biso   1.000  O
  O29      1.0000 0.60700  0.93490  0.33690  Biso   1.000  O
  O30      1.0000 0.68950  0.07090  0.40640  Biso   1.000  O
  C73      1.0000 0.57730  0.13390  0.10430  Biso   1.000  C
  C74      1.0000 0.74860  0.27290  0.25420  Biso   1.000  C
  C75      1.0000 0.63050  0.15720  0.17580  Biso   1.000  C
  N4       1.0000 0.81190  0.36810  0.26720  Biso   1.000  N
  O31      1.0000 0.23920  0.13580  0.48960  Biso   1.000  O
  C76      1.0000 0.69680  0.24890  0.19060  Biso   1.000  C
  H46      1.0000 0.70640  0.29560  0.15600  Biso   1.000  H
  C77      1.0000 0.66650  0.10960  0.29150  Biso   1.000  C
  C78      1.0000 0.61410  0.08730  0.22670  Biso   1.000  C
  H47      1.0000 0.56930  0.02700  0.21770  Biso   1.000  H
  O32      1.0000 0.19410  0.01130  0.40070  Biso   1.000  O
  C79      1.0000 0.86480  0.40010  0.33420  Biso   1.000  C
  H48      1.0000 0.88090  0.48890  0.33530  Biso   1.000  H
  H49      1.0000 0.82910  0.38860  0.36400  Biso   1.000  H
  C80      1.0000 0.70640  0.56780  0.19120  Biso   1.000  C
  H50      1.0000 0.68850  0.52440  0.22330  Biso   1.000  H
  C81      1.0000 0.78340  0.53540  0.17900  Biso   1.000  C
  C82      1.0000 0.67990  0.73150  0.10830  Biso   1.000  C
  C83      1.0000 0.62120  0.83160  0.06800  Biso   1.000  C
  C84      1.0000 0.96420  0.21570  0.32730  Biso   1.000  C
  H51      1.0000 0.92250  0.19030  0.28810  Biso   1.000  H
  C85      1.0000 0.73220  0.20170  0.30500  Biso   1.000  C
  H52      1.0000 0.76580  0.21610  0.34880  Biso   1.000  H
  C86      1.0000 0.94830  0.32200  0.35940  Biso   1.000  C
  C87      1.0000 0.10380  0.18180  0.40940  Biso   1.000  C
  C88      1.0000 0.84070  0.42460  0.21420  Biso   1.000  C
  H53      1.0000 0.90100  0.45410  0.23250  Biso   1.000  H
  H54      1.0000 0.84060  0.35970  0.18160  Biso   1.000  H
  C89      1.0000 0.04070  0.14520  0.35160  Biso   1.000  C
  H55      1.0000 0.04970  0.07310  0.32900  Biso   1.000  H
  C90      1.0000 0.81090  0.60440  0.13310  Biso   1.000  C
  H56      1.0000 0.86480  0.58500  0.12610  Biso   1.000  H
  C91      1.0000 0.65390  0.03430  0.34840  Biso   1.000  C
  C92      1.0000 0.18440  0.10720  0.43720  Biso   1.000  C
  C93      1.0000 0.65450  0.66590  0.15570  Biso   1.000  C
  H57      1.0000 0.60200  0.68710  0.16430  Biso   1.000  H
  C94      1.0000 0.76050  0.70090  0.09750  Biso   1.000  C
  H58      1.0000 0.77980  0.74580  0.06650  Biso   1.000  H
  C95      1.0000 0.01360  0.36040  0.41680  Biso   1.000  C
  H59      1.0000 0.00510  0.43370  0.43870  Biso   1.000  H
  C96      1.0000 0.08980  0.29190  0.44130  Biso   1.000  C
  H60      1.0000 0.13250  0.31910  0.47950  Biso   1.000  H
