data_image0
_cell_length_a       15.894
_cell_length_b       10.491
_cell_length_c       20.909
_cell_angle_alpha    90
_cell_angle_beta     107.841
_cell_angle_gamma    90

_symmetry_space_group_name_H-M    "P 1"
_symmetry_int_tables_number       1

loop_
  _symmetry_equiv_pos_as_xyz
  'x, y, z'

loop_
  _atom_site_label
  _atom_site_occupancy
  _atom_site_fract_x
  _atom_site_fract_y
  _atom_site_fract_z
  _atom_site_thermal_displace_type
  _atom_site_B_iso_or_equiv
  _atom_site_type_symbol
  C1       1.0000 0.86610  0.60250  0.83610  Biso   1.000  C
  H1       1.0000 0.88150  0.51280  0.83780  Biso   1.000  H
  H2       1.0000 0.83140  0.61570  0.86650  Biso   1.000  H
  C2       1.0000 0.95040  0.68030  0.86060  Biso   1.000  C
  C3       1.0000 0.01580  0.64100  0.91750  Biso   1.000  C
  H3       1.0000 0.00800  0.56730  0.93970  Biso   1.000  H
  C4       1.0000 0.09320  0.71090  0.94180  Biso   1.000  C
  H4       1.0000 0.13680  0.68360  0.98010  Biso   1.000  H
  C5       1.0000 0.10590  0.82060  0.90950  Biso   1.000  C
  C6       1.0000 0.04230  0.85680  0.85120  Biso   1.000  C
  H5       1.0000 0.05110  0.92820  0.82770  Biso   1.000  H
  C7       1.0000 0.96490  0.78650  0.82760  Biso   1.000  C
  H6       1.0000 0.92200  0.81230  0.78850  Biso   1.000  H
  C8       1.0000 0.18760  0.89480  0.93650  Biso   1.000  C
  C9       1.0000 0.74820  0.72820  0.75580  Biso   1.000  C
  C10      1.0000 0.73150  0.80100  0.80700  Biso   1.000  C
  H7       1.0000 0.76550  0.78750  0.85130  Biso   1.000  H
  C11      1.0000 0.66600  0.89190  0.79280  Biso   1.000  C
  C12      1.0000 0.61300  0.91430  0.72780  Biso   1.000  C
  H8       1.0000 0.56800  0.97460  0.71880  Biso   1.000  H
  C13      1.0000 0.62880  0.84430  0.67600  Biso   1.000  C
  C14      1.0000 0.69560  0.75390  0.68940  Biso   1.000  C
  H9       1.0000 0.70590  0.70950  0.65400  Biso   1.000  H
  C15      1.0000 0.57500  0.86730  0.60370  Biso   1.000  C
  C16      1.0000 0.65310  0.96840  0.85090  Biso   1.000  C
  C17      1.0000 0.83880  0.57700  0.71490  Biso   1.000  C
  H10      1.0000 0.89920  0.54720  0.73320  Biso   1.000  H
  H11      1.0000 0.83820  0.64240  0.68200  Biso   1.000  H
  C18      1.0000 0.70520  0.43280  0.69260  Biso   1.000  C
  H12      1.0000 0.68830  0.47620  0.72540  Biso   1.000  H
  C19      1.0000 0.78200  0.46730  0.67970  Biso   1.000  C
  C20      1.0000 0.65280  0.33480  0.65750  Biso   1.000  C
  H13      1.0000 0.60070  0.31380  0.66650  Biso   1.000  H
  C21      1.0000 0.67730  0.26860  0.60950  Biso   1.000  C
  C22      1.0000 0.61790  0.16710  0.56880  Biso   1.000  C
  C23      1.0000 0.75550  0.29830  0.59780  Biso   1.000  C
  H14      1.0000 0.77390  0.25080  0.56700  Biso   1.000  H
  C24      1.0000 0.80740  0.39890  0.63180  Biso   1.000  C
  H15      1.0000 0.85910  0.42040  0.62230  Biso   1.000  H
  N1       1.0000 0.81190  0.63350  0.76840  Biso   1.000  N
  O1       1.0000 0.60510  0.06650  0.83880  Biso   1.000  O
  O2       1.0000 0.53930  0.16860  0.56790  Biso   1.000  O
  O3       1.0000 0.65100  0.08730  0.53860  Biso   1.000  O
  O4       1.0000 0.60720  0.83130  0.55930  Biso   1.000  O
  O5       1.0000 0.50090  0.92050  0.59250  Biso   1.000  O
  O6       1.0000 0.68840  0.92990  0.90950  Biso   1.000  O
  O7       1.0000 0.19640  0.99070  0.89960  Biso   1.000  O
  O8       1.0000 0.24330  0.86640  0.98920  Biso   1.000  O
  Gd1      1.0000 0.39937  0.07818  0.54554  Biso   1.000  Gd
  C25      1.0000 0.13390  0.60250  0.66390  Biso   1.000  C
  H16      1.0000 0.11850  0.51280  0.66220  Biso   1.000  H
  H17      1.0000 0.16860  0.61570  0.63350  Biso   1.000  H
  C26      1.0000 0.04960  0.68030  0.63940  Biso   1.000  C
  C27      1.0000 0.98420  0.64100  0.58250  Biso   1.000  C
  H18      1.0000 0.99200  0.56730  0.56030  Biso   1.000  H
  C28      1.0000 0.90680  0.71090  0.55820  Biso   1.000  C
  H19      1.0000 0.86320  0.68360  0.51990  Biso   1.000  H
  C29      1.0000 0.89410  0.82060  0.59050  Biso   1.000  C
  C30      1.0000 0.95770  0.85680  0.64880  Biso   1.000  C
  H20      1.0000 0.94890  0.92820  0.67230  Biso   1.000  H
  C31      1.0000 0.03510  0.78650  0.67240  Biso   1.000  C
  H21      1.0000 0.07800  0.81230  0.71150  Biso   1.000  H
  C32      1.0000 0.81240  0.89480  0.56350  Biso   1.000  C
  C33      1.0000 0.25180  0.72820  0.74420  Biso   1.000  C
  C34      1.0000 0.26850  0.80100  0.69300  Biso   1.000  C
  H22      1.0000 0.23450  0.78750  0.64870  Biso   1.000  H
  C35      1.0000 0.33400  0.89190  0.70720  Biso   1.000  C
  C36      1.0000 0.38700  0.91430  0.77220  Biso   1.000  C
  H23      1.0000 0.43200  0.97460  0.78120  Biso   1.000  H
  C37      1.0000 0.37120  0.84430  0.82400  Biso   1.000  C
  C38      1.0000 0.30440  0.75390  0.81060  Biso   1.000  C
  H24      1.0000 0.29410  0.70950  0.84600  Biso   1.000  H
  C39      1.0000 0.42500  0.86730  0.89630  Biso   1.000  C
  C40      1.0000 0.34690  0.96840  0.64910  Biso   1.000  C
  C41      1.0000 0.16120  0.57700  0.78510  Biso   1.000  C
  H25      1.0000 0.10080  0.54720  0.76680  Biso   1.000  H
  H26      1.0000 0.16180  0.64240  0.81800  Biso   1.000  H
  C42      1.0000 0.29480  0.43280  0.80740  Biso   1.000  C
  H27      1.0000 0.31170  0.47620  0.77460  Biso   1.000  H
  C43      1.0000 0.21800  0.46730  0.82030  Biso   1.000  C
  C44      1.0000 0.34720  0.33480  0.84250  Biso   1.000  C
  H28      1.0000 0.39930  0.31380  0.83350  Biso   1.000  H
  C45      1.0000 0.32270  0.26860  0.89050  Biso   1.000  C
  C46      1.0000 0.38210  0.16710  0.93120  Biso   1.000  C
  C47      1.0000 0.24450  0.29830  0.90220  Biso   1.000  C
  H29      1.0000 0.22610  0.25080  0.93300  Biso   1.000  H
  C48      1.0000 0.19260  0.39890  0.86820  Biso   1.000  C
  H30      1.0000 0.14090  0.42040  0.87770  Biso   1.000  H
  N2       1.0000 0.18810  0.63350  0.73160  Biso   1.000  N
  O9       1.0000 0.39490  0.06650  0.66120  Biso   1.000  O
  O10      1.0000 0.46070  0.16860  0.93210  Biso   1.000  O
  O11      1.0000 0.34900  0.08730  0.96140  Biso   1.000  O
  O12      1.0000 0.39280  0.83130  0.94070  Biso   1.000  O
  O13      1.0000 0.49910  0.92050  0.90750  Biso   1.000  O
  O14      1.0000 0.31160  0.92990  0.59050  Biso   1.000  O
  O15      1.0000 0.80360  0.99070  0.60040  Biso   1.000  O
  O16      1.0000 0.75670  0.86640  0.51080  Biso   1.000  O
  Gd2      1.0000 0.60062  0.07818  0.95446  Biso   1.000  Gd
  C49      1.0000 0.13390  0.39750  0.16390  Biso   1.000  C
  H31      1.0000 0.11850  0.48720  0.16220  Biso   1.000  H
  H32      1.0000 0.16860  0.38430  0.13350  Biso   1.000  H
  C50      1.0000 0.04960  0.31970  0.13940  Biso   1.000  C
  C51      1.0000 0.98420  0.35900  0.08250  Biso   1.000  C
  H33      1.0000 0.99200  0.43270  0.06030  Biso   1.000  H
  C52      1.0000 0.90680  0.28910  0.05820  Biso   1.000  C
  H34      1.0000 0.86320  0.31640  0.01990  Biso   1.000  H
  C53      1.0000 0.89410  0.17940  0.09050  Biso   1.000  C
  C54      1.0000 0.95770  0.14320  0.14880  Biso   1.000  C
  H35      1.0000 0.94890  0.07180  0.17230  Biso   1.000  H
  C55      1.0000 0.03510  0.21350  0.17240  Biso   1.000  C
  H36      1.0000 0.07800  0.18770  0.21150  Biso   1.000  H
  C56      1.0000 0.81240  0.10520  0.06350  Biso   1.000  C
  C57      1.0000 0.25180  0.27180  0.24420  Biso   1.000  C
  C58      1.0000 0.26850  0.19900  0.19300  Biso   1.000  C
  H37      1.0000 0.23450  0.21250  0.14870  Biso   1.000  H
  C59      1.0000 0.33400  0.10810  0.20720  Biso   1.000  C
  C60      1.0000 0.38700  0.08570  0.27220  Biso   1.000  C
  H38      1.0000 0.43200  0.02540  0.28120  Biso   1.000  H
  C61      1.0000 0.37120  0.15570  0.32400  Biso   1.000  C
  C62      1.0000 0.30440  0.24610  0.31060  Biso   1.000  C
  H39      1.0000 0.29410  0.29050  0.34600  Biso   1.000  H
  C63      1.0000 0.42500  0.13270  0.39630  Biso   1.000  C
  C64      1.0000 0.34690  0.03160  0.14910  Biso   1.000  C
  C65      1.0000 0.16120  0.42300  0.28510  Biso   1.000  C
  H40      1.0000 0.10080  0.45280  0.26680  Biso   1.000  H
  H41      1.0000 0.16180  0.35760  0.31800  Biso   1.000  H
  C66      1.0000 0.29480  0.56720  0.30740  Biso   1.000  C
  H42      1.0000 0.31170  0.52380  0.27460  Biso   1.000  H
  C67      1.0000 0.21800  0.53270  0.32030  Biso   1.000  C
  C68      1.0000 0.34720  0.66520  0.34250  Biso   1.000  C
  H43      1.0000 0.39930  0.68620  0.33350  Biso   1.000  H
  C69      1.0000 0.32270  0.73140  0.39050  Biso   1.000  C
  C70      1.0000 0.38210  0.83290  0.43120  Biso   1.000  C
  C71      1.0000 0.24450  0.70170  0.40220  Biso   1.000  C
  H44      1.0000 0.22610  0.74920  0.43300  Biso   1.000  H
  C72      1.0000 0.19260  0.60110  0.36820  Biso   1.000  C
  H45      1.0000 0.14090  0.57960  0.37770  Biso   1.000  H
  N3       1.0000 0.18810  0.36650  0.23160  Biso   1.000  N
  O17      1.0000 0.39490  0.93350  0.16120  Biso   1.000  O
  O18      1.0000 0.46070  0.83140  0.43210  Biso   1.000  O
  O19      1.0000 0.34900  0.91270  0.46140  Biso   1.000  O
  O20      1.0000 0.39280  0.16870  0.44070  Biso   1.000  O
  O21      1.0000 0.49910  0.07950  0.40750  Biso   1.000  O
  O22      1.0000 0.31160  0.07010  0.09050  Biso   1.000  O
  O23      1.0000 0.80360  0.00930  0.10040  Biso   1.000  O
  O24      1.0000 0.75670  0.13360  0.01080  Biso   1.000  O
  Gd3      1.0000 0.60062  0.92182  0.45446  Biso   1.000  Gd
  C73      1.0000 0.86610  0.39750  0.33610  Biso   1.000  C
  H46      1.0000 0.88150  0.48720  0.33780  Biso   1.000  H
  H47      1.0000 0.83140  0.38430  0.36650  Biso   1.000  H
  C74      1.0000 0.95040  0.31970  0.36060  Biso   1.000  C
  C75      1.0000 0.01580  0.35900  0.41750  Biso   1.000  C
  H48      1.0000 0.00800  0.43270  0.43970  Biso   1.000  H
  C76      1.0000 0.09320  0.28910  0.44180  Biso   1.000  C
  H49      1.0000 0.13680  0.31640  0.48010  Biso   1.000  H
  C77      1.0000 0.10590  0.17940  0.40950  Biso   1.000  C
  C78      1.0000 0.04230  0.14320  0.35120  Biso   1.000  C
  H50      1.0000 0.05110  0.07180  0.32770  Biso   1.000  H
  C79      1.0000 0.96490  0.21350  0.32760  Biso   1.000  C
  H51      1.0000 0.92200  0.18770  0.28850  Biso   1.000  H
  C80      1.0000 0.18760  0.10520  0.43650  Biso   1.000  C
  C81      1.0000 0.74820  0.27180  0.25580  Biso   1.000  C
  C82      1.0000 0.73150  0.19900  0.30700  Biso   1.000  C
  H52      1.0000 0.76550  0.21250  0.35130  Biso   1.000  H
  C83      1.0000 0.66600  0.10810  0.29280  Biso   1.000  C
  C84      1.0000 0.61300  0.08570  0.22780  Biso   1.000  C
  H53      1.0000 0.56800  0.02540  0.21880  Biso   1.000  H
  C85      1.0000 0.62880  0.15570  0.17600  Biso   1.000  C
  C86      1.0000 0.69560  0.24610  0.18940  Biso   1.000  C
  H54      1.0000 0.70590  0.29050  0.15400  Biso   1.000  H
  C87      1.0000 0.57500  0.13270  0.10370  Biso   1.000  C
  C88      1.0000 0.65310  0.03160  0.35090  Biso   1.000  C
  C89      1.0000 0.83880  0.42300  0.21490  Biso   1.000  C
  H55      1.0000 0.89920  0.45280  0.23320  Biso   1.000  H
  H56      1.0000 0.83820  0.35760  0.18200  Biso   1.000  H
  C90      1.0000 0.70520  0.56720  0.19260  Biso   1.000  C
  H57      1.0000 0.68830  0.52380  0.22540  Biso   1.000  H
  C91      1.0000 0.78200  0.53270  0.17970  Biso   1.000  C
  C92      1.0000 0.65280  0.66520  0.15750  Biso   1.000  C
  H58      1.0000 0.60070  0.68620  0.16650  Biso   1.000  H
  C93      1.0000 0.67730  0.73140  0.10950  Biso   1.000  C
  C94      1.0000 0.61790  0.83290  0.06880  Biso   1.000  C
  C95      1.0000 0.75550  0.70170  0.09780  Biso   1.000  C
  H59      1.0000 0.77390  0.74920  0.06700  Biso   1.000  H
  C96      1.0000 0.80740  0.60110  0.13180  Biso   1.000  C
  H60      1.0000 0.85910  0.57960  0.12230  Biso   1.000  H
  N4       1.0000 0.81190  0.36650  0.26840  Biso   1.000  N
  O25      1.0000 0.60510  0.93350  0.33880  Biso   1.000  O
  O26      1.0000 0.53930  0.83140  0.06790  Biso   1.000  O
  O27      1.0000 0.65100  0.91270  0.03860  Biso   1.000  O
  O28      1.0000 0.60720  0.16870  0.05930  Biso   1.000  O
  O29      1.0000 0.50090  0.07950  0.09250  Biso   1.000  O
  O30      1.0000 0.68840  0.07010  0.40950  Biso   1.000  O
  O31      1.0000 0.19640  0.00930  0.39960  Biso   1.000  O
  O32      1.0000 0.24330  0.13360  0.48920  Biso   1.000  O
  Gd4      1.0000 0.39937  0.92182  0.04554  Biso   1.000  Gd
