data_image0
_cell_length_a       10.3483
_cell_length_b       12.5746
_cell_length_c       45.802
_cell_angle_alpha    90
_cell_angle_beta     90
_cell_angle_gamma    90

_symmetry_space_group_name_H-M    "P 1"
_symmetry_int_tables_number       1

loop_
  _symmetry_equiv_pos_as_xyz
  'x, y, z'

loop_
  _atom_site_label
  _atom_site_occupancy
  _atom_site_fract_x
  _atom_site_fract_y
  _atom_site_fract_z
  _atom_site_thermal_displace_type
  _atom_site_B_iso_or_equiv
  _atom_site_type_symbol
  N1       1.0000 0.36820  0.47020  0.21414  Biso   1.000  N
  C1       1.0000 0.23770  0.47290  0.21790  Biso   1.000  C
  H1       1.0000 0.20370  0.48360  0.23690  Biso   1.000  H
  N2       1.0000 0.47080  0.40030  0.03105  Biso   1.000  N
  C2       1.0000 0.14920  0.46010  0.19360  Biso   1.000  C
  H2       1.0000 0.05830  0.46000  0.19650  Biso   1.000  H
  Ag1      1.0000 0.33144  0.38314  0.99601  Biso   1.000  Ag
  N3       1.0000 0.65630  0.25750  0.21888  Biso   1.000  N
  C3       1.0000 0.20000  0.44820  0.16670  Biso   1.000  C
  H3       1.0000 0.14480  0.43960  0.15030  Biso   1.000  H
  N4       1.0000 0.67950  0.11670  0.03724  Biso   1.000  N
  C4       1.0000 0.33470  0.44860  0.16298  Biso   1.000  C
  C5       1.0000 0.41290  0.45860  0.18710  Biso   1.000  C
  H4       1.0000 0.50390  0.45710  0.18430  Biso   1.000  H
  C6       1.0000 0.39430  0.43970  0.13400  Biso   1.000  C
  C7       1.0000 0.44360  0.43440  0.11120  Biso   1.000  C
  C8       1.0000 0.50290  0.42650  0.08260  Biso   1.000  C
  C9       1.0000 0.42360  0.41380  0.05840  Biso   1.000  C
  H5       1.0000 0.33260  0.41470  0.06110  Biso   1.000  H
  C10      1.0000 0.63640  0.42430  0.07850  Biso   1.000  C
  H6       1.0000 0.69390  0.43240  0.09450  Biso   1.000  H
  C11      1.0000 0.68280  0.40990  0.05020  Biso   1.000  C
  H7       1.0000 0.77310  0.40790  0.04660  Biso   1.000  H
  C12      1.0000 0.60030  0.39890  0.02850  Biso   1.000  C
  H8       1.0000 0.63510  0.38930  0.00950  Biso   1.000  H
  C13      1.0000 0.77970  0.26510  0.22710  Biso   1.000  C
  H9       1.0000 0.79840  0.28060  0.24690  Biso   1.000  H
  C14      1.0000 0.88490  0.25100  0.20720  Biso   1.000  C
  H10      1.0000 0.97170  0.25360  0.21390  Biso   1.000  H
  C15      1.0000 0.85880  0.23400  0.17890  Biso   1.000  C
  H11      1.0000 0.92730  0.22920  0.16520  Biso   1.000  H
  C16      1.0000 0.73080  0.22340  0.16970  Biso   1.000  C
  C17      1.0000 0.63200  0.23620  0.19020  Biso   1.000  C
  H12      1.0000 0.54490  0.22990  0.18390  Biso   1.000  H
  C18      1.0000 0.69600  0.20100  0.14110  Biso   1.000  C
  C19      1.0000 0.66050  0.17710  0.11580  Biso   1.000  C
  C20      1.0000 0.62010  0.15380  0.08720  Biso   1.000  C
  C21      1.0000 0.71420  0.13780  0.06540  Biso   1.000  C
  H13      1.0000 0.80320  0.14190  0.07030  Biso   1.000  H
  C22      1.0000 0.48970  0.14660  0.07890  Biso   1.000  C
  H14      1.0000 0.42360  0.15850  0.09300  Biso   1.000  H
  C23      1.0000 0.45740  0.12250  0.05060  Biso   1.000  C
  H15      1.0000 0.36970  0.11270  0.04510  Biso   1.000  H
  C24      1.0000 0.55520  0.11270  0.03030  Biso   1.000  C
  H16      1.0000 0.53240  0.10280  0.01030  Biso   1.000  H
  N5       1.0000 0.86820  0.97020  0.21414  Biso   1.000  N
  C25      1.0000 0.73770  0.97290  0.21790  Biso   1.000  C
  H17      1.0000 0.70370  0.98360  0.23690  Biso   1.000  H
  N6       1.0000 0.97080  0.90030  0.03105  Biso   1.000  N
  C26      1.0000 0.64920  0.96010  0.19360  Biso   1.000  C
  H18      1.0000 0.55830  0.96000  0.19650  Biso   1.000  H
  Ag2      1.0000 0.83144  0.88314  0.99601  Biso   1.000  Ag
  N7       1.0000 0.15630  0.75750  0.21888  Biso   1.000  N
  C27      1.0000 0.70000  0.94820  0.16670  Biso   1.000  C
  H19      1.0000 0.64480  0.93960  0.15030  Biso   1.000  H
  N8       1.0000 0.17950  0.61670  0.03724  Biso   1.000  N
  C28      1.0000 0.83470  0.94860  0.16298  Biso   1.000  C
  C29      1.0000 0.91290  0.95860  0.18710  Biso   1.000  C
  H20      1.0000 0.00390  0.95710  0.18430  Biso   1.000  H
  C30      1.0000 0.89430  0.93970  0.13400  Biso   1.000  C
  C31      1.0000 0.94360  0.93440  0.11120  Biso   1.000  C
  C32      1.0000 0.00290  0.92650  0.08260  Biso   1.000  C
  C33      1.0000 0.92360  0.91380  0.05840  Biso   1.000  C
  H21      1.0000 0.83260  0.91470  0.06110  Biso   1.000  H
  C34      1.0000 0.13640  0.92430  0.07850  Biso   1.000  C
  H22      1.0000 0.19390  0.93240  0.09450  Biso   1.000  H
  C35      1.0000 0.18280  0.90990  0.05020  Biso   1.000  C
  H23      1.0000 0.27310  0.90790  0.04660  Biso   1.000  H
  C36      1.0000 0.10030  0.89890  0.02850  Biso   1.000  C
  H24      1.0000 0.13510  0.88930  0.00950  Biso   1.000  H
  C37      1.0000 0.27970  0.76510  0.22710  Biso   1.000  C
  H25      1.0000 0.29840  0.78060  0.24690  Biso   1.000  H
  C38      1.0000 0.38490  0.75100  0.20720  Biso   1.000  C
  H26      1.0000 0.47170  0.75360  0.21390  Biso   1.000  H
  C39      1.0000 0.35880  0.73400  0.17890  Biso   1.000  C
  H27      1.0000 0.42730  0.72920  0.16520  Biso   1.000  H
  C40      1.0000 0.23080  0.72340  0.16970  Biso   1.000  C
  C41      1.0000 0.13200  0.73620  0.19020  Biso   1.000  C
  H28      1.0000 0.04490  0.72990  0.18390  Biso   1.000  H
  C42      1.0000 0.19600  0.70100  0.14110  Biso   1.000  C
  C43      1.0000 0.16050  0.67710  0.11580  Biso   1.000  C
  C44      1.0000 0.12010  0.65380  0.08720  Biso   1.000  C
  C45      1.0000 0.21420  0.63780  0.06540  Biso   1.000  C
  H29      1.0000 0.30320  0.64190  0.07030  Biso   1.000  H
  C46      1.0000 0.98970  0.64660  0.07890  Biso   1.000  C
  H30      1.0000 0.92360  0.65850  0.09300  Biso   1.000  H
  C47      1.0000 0.95740  0.62250  0.05060  Biso   1.000  C
  H31      1.0000 0.86970  0.61270  0.04510  Biso   1.000  H
  C48      1.0000 0.05520  0.61270  0.03030  Biso   1.000  C
  H32      1.0000 0.03240  0.60280  0.01030  Biso   1.000  H
  N9       1.0000 0.63180  0.52980  0.71414  Biso   1.000  N
  C49      1.0000 0.76230  0.52710  0.71790  Biso   1.000  C
  H33      1.0000 0.79630  0.51640  0.73690  Biso   1.000  H
  N10      1.0000 0.52920  0.59970  0.53105  Biso   1.000  N
  C50      1.0000 0.85080  0.53990  0.69360  Biso   1.000  C
  H34      1.0000 0.94170  0.54000  0.69650  Biso   1.000  H
  Ag3      1.0000 0.66856  0.61686  0.49601  Biso   1.000  Ag
  N11      1.0000 0.34370  0.74250  0.71888  Biso   1.000  N
  C51      1.0000 0.80000  0.55180  0.66670  Biso   1.000  C
  H35      1.0000 0.85520  0.56040  0.65030  Biso   1.000  H
  N12      1.0000 0.32050  0.88330  0.53724  Biso   1.000  N
  C52      1.0000 0.66530  0.55140  0.66298  Biso   1.000  C
  C53      1.0000 0.58710  0.54140  0.68710  Biso   1.000  C
  H36      1.0000 0.49610  0.54290  0.68430  Biso   1.000  H
  C54      1.0000 0.60570  0.56030  0.63400  Biso   1.000  C
  C55      1.0000 0.55640  0.56560  0.61120  Biso   1.000  C
  C56      1.0000 0.49710  0.57350  0.58260  Biso   1.000  C
  C57      1.0000 0.57640  0.58620  0.55840  Biso   1.000  C
  H37      1.0000 0.66740  0.58530  0.56110  Biso   1.000  H
  C58      1.0000 0.36360  0.57570  0.57850  Biso   1.000  C
  H38      1.0000 0.30610  0.56760  0.59450  Biso   1.000  H
  C59      1.0000 0.31720  0.59010  0.55020  Biso   1.000  C
  H39      1.0000 0.22690  0.59210  0.54660  Biso   1.000  H
  C60      1.0000 0.39970  0.60110  0.52850  Biso   1.000  C
  H40      1.0000 0.36490  0.61070  0.50950  Biso   1.000  H
  C61      1.0000 0.22030  0.73490  0.72710  Biso   1.000  C
  H41      1.0000 0.20160  0.71940  0.74690  Biso   1.000  H
  C62      1.0000 0.11510  0.74900  0.70720  Biso   1.000  C
  H42      1.0000 0.02830  0.74640  0.71390  Biso   1.000  H
  C63      1.0000 0.14120  0.76600  0.67890  Biso   1.000  C
  H43      1.0000 0.07270  0.77080  0.66520  Biso   1.000  H
  C64      1.0000 0.26920  0.77660  0.66970  Biso   1.000  C
  C65      1.0000 0.36800  0.76380  0.69020  Biso   1.000  C
  H44      1.0000 0.45510  0.77010  0.68390  Biso   1.000  H
  C66      1.0000 0.30400  0.79900  0.64110  Biso   1.000  C
  C67      1.0000 0.33950  0.82290  0.61580  Biso   1.000  C
  C68      1.0000 0.37990  0.84620  0.58720  Biso   1.000  C
  C69      1.0000 0.28580  0.86220  0.56540  Biso   1.000  C
  H45      1.0000 0.19680  0.85810  0.57030  Biso   1.000  H
  C70      1.0000 0.51030  0.85340  0.57890  Biso   1.000  C
  H46      1.0000 0.57640  0.84150  0.59300  Biso   1.000  H
  C71      1.0000 0.54260  0.87750  0.55060  Biso   1.000  C
  H47      1.0000 0.63030  0.88730  0.54510  Biso   1.000  H
  C72      1.0000 0.44480  0.88730  0.53030  Biso   1.000  C
  H48      1.0000 0.46760  0.89720  0.51030  Biso   1.000  H
  N13      1.0000 0.13180  0.02980  0.71414  Biso   1.000  N
  C73      1.0000 0.26230  0.02710  0.71790  Biso   1.000  C
  H49      1.0000 0.29630  0.01640  0.73690  Biso   1.000  H
  N14      1.0000 0.02920  0.09970  0.53105  Biso   1.000  N
  C74      1.0000 0.35080  0.03990  0.69360  Biso   1.000  C
  H50      1.0000 0.44170  0.04000  0.69650  Biso   1.000  H
  Ag4      1.0000 0.16856  0.11686  0.49601  Biso   1.000  Ag
  N15      1.0000 0.84370  0.24250  0.71888  Biso   1.000  N
  C75      1.0000 0.30000  0.05180  0.66670  Biso   1.000  C
  H51      1.0000 0.35520  0.06040  0.65030  Biso   1.000  H
  N16      1.0000 0.82050  0.38330  0.53724  Biso   1.000  N
  C76      1.0000 0.16530  0.05140  0.66298  Biso   1.000  C
  C77      1.0000 0.08710  0.04140  0.68710  Biso   1.000  C
  H52      1.0000 0.99610  0.04290  0.68430  Biso   1.000  H
  C78      1.0000 0.10570  0.06030  0.63400  Biso   1.000  C
  C79      1.0000 0.05640  0.06560  0.61120  Biso   1.000  C
  C80      1.0000 0.99710  0.07350  0.58260  Biso   1.000  C
  C81      1.0000 0.07640  0.08620  0.55840  Biso   1.000  C
  H53      1.0000 0.16740  0.08530  0.56110  Biso   1.000  H
  C82      1.0000 0.86360  0.07570  0.57850  Biso   1.000  C
  H54      1.0000 0.80610  0.06760  0.59450  Biso   1.000  H
  C83      1.0000 0.81720  0.09010  0.55020  Biso   1.000  C
  H55      1.0000 0.72690  0.09210  0.54660  Biso   1.000  H
  C84      1.0000 0.89970  0.10110  0.52850  Biso   1.000  C
  H56      1.0000 0.86490  0.11070  0.50950  Biso   1.000  H
  C85      1.0000 0.72030  0.23490  0.72710  Biso   1.000  C
  H57      1.0000 0.70160  0.21940  0.74690  Biso   1.000  H
  C86      1.0000 0.61510  0.24900  0.70720  Biso   1.000  C
  H58      1.0000 0.52830  0.24640  0.71390  Biso   1.000  H
  C87      1.0000 0.64120  0.26600  0.67890  Biso   1.000  C
  H59      1.0000 0.57270  0.27080  0.66520  Biso   1.000  H
  C88      1.0000 0.76920  0.27660  0.66970  Biso   1.000  C
  C89      1.0000 0.86800  0.26380  0.69020  Biso   1.000  C
  H60      1.0000 0.95510  0.27010  0.68390  Biso   1.000  H
  C90      1.0000 0.80400  0.29900  0.64110  Biso   1.000  C
  C91      1.0000 0.83950  0.32290  0.61580  Biso   1.000  C
  C92      1.0000 0.87990  0.34620  0.58720  Biso   1.000  C
  C93      1.0000 0.78580  0.36220  0.56540  Biso   1.000  C
  H61      1.0000 0.69680  0.35810  0.57030  Biso   1.000  H
  C94      1.0000 0.01030  0.35340  0.57890  Biso   1.000  C
  H62      1.0000 0.07640  0.34150  0.59300  Biso   1.000  H
  C95      1.0000 0.04260  0.37750  0.55060  Biso   1.000  C
  H63      1.0000 0.13030  0.38730  0.54510  Biso   1.000  H
  C96      1.0000 0.94480  0.38730  0.53030  Biso   1.000  C
  H64      1.0000 0.96760  0.39720  0.51030  Biso   1.000  H
  N17      1.0000 0.63180  0.47020  0.28586  Biso   1.000  N
  C97      1.0000 0.76230  0.47290  0.28210  Biso   1.000  C
  H65      1.0000 0.79630  0.48360  0.26310  Biso   1.000  H
  N18      1.0000 0.52920  0.40030  0.46895  Biso   1.000  N
  C98      1.0000 0.85080  0.46010  0.30640  Biso   1.000  C
  H66      1.0000 0.94170  0.46000  0.30350  Biso   1.000  H
  Ag5      1.0000 0.66856  0.38314  0.50399  Biso   1.000  Ag
  N19      1.0000 0.34370  0.25750  0.28112  Biso   1.000  N
  C99      1.0000 0.80000  0.44820  0.33330  Biso   1.000  C
  H67      1.0000 0.85520  0.43960  0.34970  Biso   1.000  H
  N20      1.0000 0.32050  0.11670  0.46276  Biso   1.000  N
  C100     1.0000 0.66530  0.44860  0.33702  Biso   1.000  C
  C101     1.0000 0.58710  0.45860  0.31290  Biso   1.000  C
  H68      1.0000 0.49610  0.45710  0.31570  Biso   1.000  H
  C102     1.0000 0.60570  0.43970  0.36600  Biso   1.000  C
  C103     1.0000 0.55640  0.43440  0.38880  Biso   1.000  C
  C104     1.0000 0.49710  0.42650  0.41740  Biso   1.000  C
  C105     1.0000 0.57640  0.41380  0.44160  Biso   1.000  C
  H69      1.0000 0.66740  0.41470  0.43890  Biso   1.000  H
  C106     1.0000 0.36360  0.42430  0.42150  Biso   1.000  C
  H70      1.0000 0.30610  0.43240  0.40550  Biso   1.000  H
  C107     1.0000 0.31720  0.40990  0.44980  Biso   1.000  C
  H71      1.0000 0.22690  0.40790  0.45340  Biso   1.000  H
  C108     1.0000 0.39970  0.39890  0.47150  Biso   1.000  C
  H72      1.0000 0.36490  0.38930  0.49050  Biso   1.000  H
  C109     1.0000 0.22030  0.26510  0.27290  Biso   1.000  C
  H73      1.0000 0.20160  0.28060  0.25310  Biso   1.000  H
  C110     1.0000 0.11510  0.25100  0.29280  Biso   1.000  C
  H74      1.0000 0.02830  0.25360  0.28610  Biso   1.000  H
  C111     1.0000 0.14120  0.23400  0.32110  Biso   1.000  C
  H75      1.0000 0.07270  0.22920  0.33480  Biso   1.000  H
  C112     1.0000 0.26920  0.22340  0.33030  Biso   1.000  C
  C113     1.0000 0.36800  0.23620  0.30980  Biso   1.000  C
  H76      1.0000 0.45510  0.22990  0.31610  Biso   1.000  H
  C114     1.0000 0.30400  0.20100  0.35890  Biso   1.000  C
  C115     1.0000 0.33950  0.17710  0.38420  Biso   1.000  C
  C116     1.0000 0.37990  0.15380  0.41280  Biso   1.000  C
  C117     1.0000 0.28580  0.13780  0.43460  Biso   1.000  C
  H77      1.0000 0.19680  0.14190  0.42970  Biso   1.000  H
  C118     1.0000 0.51030  0.14660  0.42110  Biso   1.000  C
  H78      1.0000 0.57640  0.15850  0.40700  Biso   1.000  H
  C119     1.0000 0.54260  0.12250  0.44940  Biso   1.000  C
  H79      1.0000 0.63030  0.11270  0.45490  Biso   1.000  H
  C120     1.0000 0.44480  0.11270  0.46970  Biso   1.000  C
  H80      1.0000 0.46760  0.10280  0.48970  Biso   1.000  H
  N21      1.0000 0.13180  0.97020  0.28586  Biso   1.000  N
  C121     1.0000 0.26230  0.97290  0.28210  Biso   1.000  C
  H81      1.0000 0.29630  0.98360  0.26310  Biso   1.000  H
  N22      1.0000 0.02920  0.90030  0.46895  Biso   1.000  N
  C122     1.0000 0.35080  0.96010  0.30640  Biso   1.000  C
  H82      1.0000 0.44170  0.96000  0.30350  Biso   1.000  H
  Ag6      1.0000 0.16856  0.88314  0.50399  Biso   1.000  Ag
  N23      1.0000 0.84370  0.75750  0.28112  Biso   1.000  N
  C123     1.0000 0.30000  0.94820  0.33330  Biso   1.000  C
  H83      1.0000 0.35520  0.93960  0.34970  Biso   1.000  H
  N24      1.0000 0.82050  0.61670  0.46276  Biso   1.000  N
  C124     1.0000 0.16530  0.94860  0.33702  Biso   1.000  C
  C125     1.0000 0.08710  0.95860  0.31290  Biso   1.000  C
  H84      1.0000 0.99610  0.95710  0.31570  Biso   1.000  H
  C126     1.0000 0.10570  0.93970  0.36600  Biso   1.000  C
  C127     1.0000 0.05640  0.93440  0.38880  Biso   1.000  C
  C128     1.0000 0.99710  0.92650  0.41740  Biso   1.000  C
  C129     1.0000 0.07640  0.91380  0.44160  Biso   1.000  C
  H85      1.0000 0.16740  0.91470  0.43890  Biso   1.000  H
  C130     1.0000 0.86360  0.92430  0.42150  Biso   1.000  C
  H86      1.0000 0.80610  0.93240  0.40550  Biso   1.000  H
  C131     1.0000 0.81720  0.90990  0.44980  Biso   1.000  C
  H87      1.0000 0.72690  0.90790  0.45340  Biso   1.000  H
  C132     1.0000 0.89970  0.89890  0.47150  Biso   1.000  C
  H88      1.0000 0.86490  0.88930  0.49050  Biso   1.000  H
  C133     1.0000 0.72030  0.76510  0.27290  Biso   1.000  C
  H89      1.0000 0.70160  0.78060  0.25310  Biso   1.000  H
  C134     1.0000 0.61510  0.75100  0.29280  Biso   1.000  C
  H90      1.0000 0.52830  0.75360  0.28610  Biso   1.000  H
  C135     1.0000 0.64120  0.73400  0.32110  Biso   1.000  C
  H91      1.0000 0.57270  0.72920  0.33480  Biso   1.000  H
  C136     1.0000 0.76920  0.72340  0.33030  Biso   1.000  C
  C137     1.0000 0.86800  0.73620  0.30980  Biso   1.000  C
  H92      1.0000 0.95510  0.72990  0.31610  Biso   1.000  H
  C138     1.0000 0.80400  0.70100  0.35890  Biso   1.000  C
  C139     1.0000 0.83950  0.67710  0.38420  Biso   1.000  C
  C140     1.0000 0.87990  0.65380  0.41280  Biso   1.000  C
  C141     1.0000 0.78580  0.63780  0.43460  Biso   1.000  C
  H93      1.0000 0.69680  0.64190  0.42970  Biso   1.000  H
  C142     1.0000 0.01030  0.64660  0.42110  Biso   1.000  C
  H94      1.0000 0.07640  0.65850  0.40700  Biso   1.000  H
  C143     1.0000 0.04260  0.62250  0.44940  Biso   1.000  C
  H95      1.0000 0.13030  0.61270  0.45490  Biso   1.000  H
  C144     1.0000 0.94480  0.61270  0.46970  Biso   1.000  C
  H96      1.0000 0.96760  0.60280  0.48970  Biso   1.000  H
  N25      1.0000 0.36820  0.52980  0.78586  Biso   1.000  N
  C145     1.0000 0.23770  0.52710  0.78210  Biso   1.000  C
  H97      1.0000 0.20370  0.51640  0.76310  Biso   1.000  H
  N26      1.0000 0.47080  0.59970  0.96895  Biso   1.000  N
  C146     1.0000 0.14920  0.53990  0.80640  Biso   1.000  C
  H98      1.0000 0.05830  0.54000  0.80350  Biso   1.000  H
  Ag7      1.0000 0.33144  0.61686  0.00399  Biso   1.000  Ag
  N27      1.0000 0.65630  0.74250  0.78112  Biso   1.000  N
  C147     1.0000 0.20000  0.55180  0.83330  Biso   1.000  C
  H99      1.0000 0.14480  0.56040  0.84970  Biso   1.000  H
  N28      1.0000 0.67950  0.88330  0.96276  Biso   1.000  N
  C148     1.0000 0.33470  0.55140  0.83702  Biso   1.000  C
  C149     1.0000 0.41290  0.54140  0.81290  Biso   1.000  C
  H100     1.0000 0.50390  0.54290  0.81570  Biso   1.000  H
  C150     1.0000 0.39430  0.56030  0.86600  Biso   1.000  C
  C151     1.0000 0.44360  0.56560  0.88880  Biso   1.000  C
  C152     1.0000 0.50290  0.57350  0.91740  Biso   1.000  C
  C153     1.0000 0.42360  0.58620  0.94160  Biso   1.000  C
  H101     1.0000 0.33260  0.58530  0.93890  Biso   1.000  H
  C154     1.0000 0.63640  0.57570  0.92150  Biso   1.000  C
  H102     1.0000 0.69390  0.56760  0.90550  Biso   1.000  H
  C155     1.0000 0.68280  0.59010  0.94980  Biso   1.000  C
  H103     1.0000 0.77310  0.59210  0.95340  Biso   1.000  H
  C156     1.0000 0.60030  0.60110  0.97150  Biso   1.000  C
  H104     1.0000 0.63510  0.61070  0.99050  Biso   1.000  H
  C157     1.0000 0.77970  0.73490  0.77290  Biso   1.000  C
  H105     1.0000 0.79840  0.71940  0.75310  Biso   1.000  H
  C158     1.0000 0.88490  0.74900  0.79280  Biso   1.000  C
  H106     1.0000 0.97170  0.74640  0.78610  Biso   1.000  H
  C159     1.0000 0.85880  0.76600  0.82110  Biso   1.000  C
  H107     1.0000 0.92730  0.77080  0.83480  Biso   1.000  H
  C160     1.0000 0.73080  0.77660  0.83030  Biso   1.000  C
  C161     1.0000 0.63200  0.76380  0.80980  Biso   1.000  C
  H108     1.0000 0.54490  0.77010  0.81610  Biso   1.000  H
  C162     1.0000 0.69600  0.79900  0.85890  Biso   1.000  C
  C163     1.0000 0.66050  0.82290  0.88420  Biso   1.000  C
  C164     1.0000 0.62010  0.84620  0.91280  Biso   1.000  C
  C165     1.0000 0.71420  0.86220  0.93460  Biso   1.000  C
  H109     1.0000 0.80320  0.85810  0.92970  Biso   1.000  H
  C166     1.0000 0.48970  0.85340  0.92110  Biso   1.000  C
  H110     1.0000 0.42360  0.84150  0.90700  Biso   1.000  H
  C167     1.0000 0.45740  0.87750  0.94940  Biso   1.000  C
  H111     1.0000 0.36970  0.88730  0.95490  Biso   1.000  H
  C168     1.0000 0.55520  0.88730  0.96970  Biso   1.000  C
  H112     1.0000 0.53240  0.89720  0.98970  Biso   1.000  H
  N29      1.0000 0.86820  0.02980  0.78586  Biso   1.000  N
  C169     1.0000 0.73770  0.02710  0.78210  Biso   1.000  C
  H113     1.0000 0.70370  0.01640  0.76310  Biso   1.000  H
  N30      1.0000 0.97080  0.09970  0.96895  Biso   1.000  N
  C170     1.0000 0.64920  0.03990  0.80640  Biso   1.000  C
  H114     1.0000 0.55830  0.04000  0.80350  Biso   1.000  H
  Ag8      1.0000 0.83144  0.11686  0.00399  Biso   1.000  Ag
  N31      1.0000 0.15630  0.24250  0.78112  Biso   1.000  N
  C171     1.0000 0.70000  0.05180  0.83330  Biso   1.000  C
  H115     1.0000 0.64480  0.06040  0.84970  Biso   1.000  H
  N32      1.0000 0.17950  0.38330  0.96276  Biso   1.000  N
  C172     1.0000 0.83470  0.05140  0.83702  Biso   1.000  C
  C173     1.0000 0.91290  0.04140  0.81290  Biso   1.000  C
  H116     1.0000 0.00390  0.04290  0.81570  Biso   1.000  H
  C174     1.0000 0.89430  0.06030  0.86600  Biso   1.000  C
  C175     1.0000 0.94360  0.06560  0.88880  Biso   1.000  C
  C176     1.0000 0.00290  0.07350  0.91740  Biso   1.000  C
  C177     1.0000 0.92360  0.08620  0.94160  Biso   1.000  C
  H117     1.0000 0.83260  0.08530  0.93890  Biso   1.000  H
  C178     1.0000 0.13640  0.07570  0.92150  Biso   1.000  C
  H118     1.0000 0.19390  0.06760  0.90550  Biso   1.000  H
  C179     1.0000 0.18280  0.09010  0.94980  Biso   1.000  C
  H119     1.0000 0.27310  0.09210  0.95340  Biso   1.000  H
  C180     1.0000 0.10030  0.10110  0.97150  Biso   1.000  C
  H120     1.0000 0.13510  0.11070  0.99050  Biso   1.000  H
  C181     1.0000 0.27970  0.23490  0.77290  Biso   1.000  C
  H121     1.0000 0.29840  0.21940  0.75310  Biso   1.000  H
  C182     1.0000 0.38490  0.24900  0.79280  Biso   1.000  C
  H122     1.0000 0.47170  0.24640  0.78610  Biso   1.000  H
  C183     1.0000 0.35880  0.26600  0.82110  Biso   1.000  C
  H123     1.0000 0.42730  0.27080  0.83480  Biso   1.000  H
  C184     1.0000 0.23080  0.27660  0.83030  Biso   1.000  C
  C185     1.0000 0.13200  0.26380  0.80980  Biso   1.000  C
  H124     1.0000 0.04490  0.27010  0.81610  Biso   1.000  H
  C186     1.0000 0.19600  0.29900  0.85890  Biso   1.000  C
  C187     1.0000 0.16050  0.32290  0.88420  Biso   1.000  C
  C188     1.0000 0.12010  0.34620  0.91280  Biso   1.000  C
  C189     1.0000 0.21420  0.36220  0.93460  Biso   1.000  C
  H125     1.0000 0.30320  0.35810  0.92970  Biso   1.000  H
  C190     1.0000 0.98970  0.35340  0.92110  Biso   1.000  C
  H126     1.0000 0.92360  0.34150  0.90700  Biso   1.000  H
  C191     1.0000 0.95740  0.37750  0.94940  Biso   1.000  C
  H127     1.0000 0.86970  0.38730  0.95490  Biso   1.000  H
  C192     1.0000 0.05520  0.38730  0.96970  Biso   1.000  C
  H128     1.0000 0.03240  0.39720  0.98970  Biso   1.000  H
  Ag9      1.0000 0.50000  0.48717  0.25000  Biso   1.000  Ag
  Ag10     1.0000 0.50000  0.25179  0.25000  Biso   1.000  Ag
  Ag11     1.0000 0.00000  0.98717  0.25000  Biso   1.000  Ag
  Ag12     1.0000 0.00000  0.75179  0.25000  Biso   1.000  Ag
  Ag13     1.0000 0.50000  0.51283  0.75000  Biso   1.000  Ag
  Ag14     1.0000 0.50000  0.74821  0.75000  Biso   1.000  Ag
  Ag15     1.0000 0.00000  0.01283  0.75000  Biso   1.000  Ag
  Ag16     1.0000 0.00000  0.24821  0.75000  Biso   1.000  Ag
