data_image0
_cell_length_a       9.0968
_cell_length_b       9.6763
_cell_length_c       11.5065
_cell_angle_alpha    106.914
_cell_angle_beta     93.967
_cell_angle_gamma    108.27

_symmetry_space_group_name_H-M    "P 1"
_symmetry_int_tables_number       1

loop_
  _symmetry_equiv_pos_as_xyz
  'x, y, z'

loop_
  _atom_site_label
  _atom_site_occupancy
  _atom_site_fract_x
  _atom_site_fract_y
  _atom_site_fract_z
  _atom_site_thermal_displace_type
  _atom_site_B_iso_or_equiv
  _atom_site_type_symbol
  Eu1      1.0000 0.27846  0.02824  0.99159  Biso   1.000  Eu
  O1       1.0000 0.41900  0.88720  0.04720  Biso   1.000  O
  O2       1.0000 0.91280  0.22790  0.07930  Biso   1.000  O
  O3       1.0000 0.12090  0.98890  0.79140  Biso   1.000  O
  O4       1.0000 0.13440  0.18100  0.04570  Biso   1.000  O
  O5       1.0000 0.57320  0.76030  0.07710  Biso   1.000  O
  O6       1.0000 0.30410  0.88420  0.78600  Biso   1.000  O
  C1       1.0000 0.01240  0.83600  0.53400  Biso   1.000  C
  C2       1.0000 0.18190  0.69230  0.53810  Biso   1.000  C
  C3       1.0000 0.12600  0.60940  0.41360  Biso   1.000  C
  C4       1.0000 0.28670  0.50040  0.06860  Biso   1.000  C
  C5       1.0000 0.12350  0.80670  0.59880  Biso   1.000  C
  N1       1.0000 0.08810  0.55240  0.14490  Biso   1.000  N
  N2       1.0000 0.18970  0.68910  0.14460  Biso   1.000  N
  C6       1.0000 0.05790  0.26970  0.07570  Biso   1.000  C
  C7       1.0000 0.14400  0.43620  0.09870  Biso   1.000  C
  C8       1.0000 0.31040  0.65500  0.09810  Biso   1.000  C
  C9       1.0000 0.01550  0.64320  0.34620  Biso   1.000  C
  C10      1.0000 0.95870  0.55850  0.21100  Biso   1.000  C
  C11      1.0000 0.18790  0.90000  0.73150  Biso   1.000  C
  C12      1.0000 0.95880  0.75660  0.40820  Biso   1.000  C
  C13      1.0000 0.44230  0.77480  0.07370  Biso   1.000  C
  H1       1.0000 0.18700  0.55600  0.38300  Biso   1.000  H
  H2       1.0000 0.25800  0.64800  0.57500  Biso   1.000  H
  H3       1.0000 0.92500  0.86500  0.58300  Biso   1.000  H
  H4       1.0000 0.89800  0.78400  0.35800  Biso   1.000  H
  H5       1.0000 0.87200  0.46200  0.19400  Biso   1.000  H
  H6       1.0000 0.89000  0.62200  0.18000  Biso   1.000  H
  H7       1.0000 0.35200  0.44500  0.03400  Biso   1.000  H
  Eu2      1.0000 0.72154  0.97176  0.00841  Biso   1.000  Eu
  O7       1.0000 0.58100  0.11280  0.95280  Biso   1.000  O
  O8       1.0000 0.08720  0.77210  0.92070  Biso   1.000  O
  O9       1.0000 0.87910  0.01110  0.20860  Biso   1.000  O
  O10      1.0000 0.86560  0.81900  0.95430  Biso   1.000  O
  O11      1.0000 0.42680  0.23970  0.92290  Biso   1.000  O
  O12      1.0000 0.69590  0.11580  0.21400  Biso   1.000  O
  C14      1.0000 0.98760  0.16400  0.46600  Biso   1.000  C
  C15      1.0000 0.81810  0.30770  0.46190  Biso   1.000  C
  C16      1.0000 0.87400  0.39060  0.58640  Biso   1.000  C
  C17      1.0000 0.71330  0.49960  0.93140  Biso   1.000  C
  C18      1.0000 0.87650  0.19330  0.40120  Biso   1.000  C
  N3       1.0000 0.91190  0.44760  0.85510  Biso   1.000  N
  N4       1.0000 0.81030  0.31090  0.85540  Biso   1.000  N
  C19      1.0000 0.94210  0.73030  0.92430  Biso   1.000  C
  C20      1.0000 0.85600  0.56380  0.90130  Biso   1.000  C
  C21      1.0000 0.68960  0.34500  0.90190  Biso   1.000  C
  C22      1.0000 0.98450  0.35680  0.65380  Biso   1.000  C
  C23      1.0000 0.04130  0.44150  0.78900  Biso   1.000  C
  C24      1.0000 0.81210  0.10000  0.26850  Biso   1.000  C
  C25      1.0000 0.04120  0.24340  0.59180  Biso   1.000  C
  C26      1.0000 0.55770  0.22520  0.92630  Biso   1.000  C
  H8       1.0000 0.81300  0.44400  0.61700  Biso   1.000  H
  H9       1.0000 0.74200  0.35200  0.42500  Biso   1.000  H
  H10      1.0000 0.07500  0.13500  0.41700  Biso   1.000  H
  H11      1.0000 0.10200  0.21600  0.64200  Biso   1.000  H
  H12      1.0000 0.12800  0.53800  0.80600  Biso   1.000  H
  H13      1.0000 0.11000  0.37800  0.82000  Biso   1.000  H
  H14      1.0000 0.64800  0.55500  0.96600  Biso   1.000  H
