data_image0
_cell_length_a       9.0912
_cell_length_b       9.6445
_cell_length_c       11.5135
_cell_angle_alpha    106.894
_cell_angle_beta     93.993
_cell_angle_gamma    108.215

_symmetry_space_group_name_H-M    "P 1"
_symmetry_int_tables_number       1

loop_
  _symmetry_equiv_pos_as_xyz
  'x, y, z'

loop_
  _atom_site_label
  _atom_site_occupancy
  _atom_site_fract_x
  _atom_site_fract_y
  _atom_site_fract_z
  _atom_site_thermal_displace_type
  _atom_site_B_iso_or_equiv
  _atom_site_type_symbol
  Dy1      1.0000 0.27898  0.52825  0.99142  Biso   1.000  Dy
  O1       1.0000 0.13630  0.68150  0.04510  Biso   1.000  O
  O2       1.0000 0.11790  0.48630  0.78990  Biso   1.000  O
  O3       1.0000 0.41890  0.38870  0.04740  Biso   1.000  O
  O4       1.0000 0.91460  0.72650  0.07860  Biso   1.000  O
  O5       1.0000 0.57230  0.25850  0.07760  Biso   1.000  O
  O6       1.0000 0.30410  0.38510  0.78810  Biso   1.000  O
  C1       1.0000 0.28580  0.99760  0.06960  Biso   1.000  C
  C2       1.0000 0.14500  0.93780  0.09870  Biso   1.000  C
  N1       1.0000 0.09110  0.05320  0.14510  Biso   1.000  N
  C3       1.0000 0.05390  0.76600  0.07240  Biso   1.000  C
  N2       1.0000 0.18810  0.18760  0.14460  Biso   1.000  N
  C4       1.0000 0.44200  0.27600  0.07350  Biso   1.000  C
  C5       1.0000 0.95600  0.25400  0.40760  Biso   1.000  C
  C6       1.0000 0.31380  0.15580  0.09660  Biso   1.000  C
  C7       1.0000 0.01420  0.14350  0.34920  Biso   1.000  C
  C8       1.0000 0.01000  0.33400  0.53400  Biso   1.000  C
  C9       1.0000 0.12570  0.30810  0.59900  Biso   1.000  C
  C10      1.0000 0.18860  0.39970  0.73290  Biso   1.000  C
  C11      1.0000 0.95860  0.05630  0.21200  Biso   1.000  C
  C12      1.0000 0.12660  0.10850  0.41330  Biso   1.000  C
  C13      1.0000 0.18390  0.19190  0.53880  Biso   1.000  C
  H1       1.0000 0.35900  0.96500  0.00100  Biso   1.000  H
  H2       1.0000 0.88000  0.96000  0.18400  Biso   1.000  H
  H3       1.0000 0.16400  0.02500  0.34500  Biso   1.000  H
  H4       1.0000 0.95400  0.39100  0.60700  Biso   1.000  H
  H5       1.0000 0.27800  0.19400  0.60600  Biso   1.000  H
  H6       1.0000 0.93000  0.29200  0.32900  Biso   1.000  H
  H7       1.0000 0.89000  0.10600  0.16300  Biso   1.000  H
  Dy2      1.0000 0.72102  0.47175  0.00858  Biso   1.000  Dy
  O7       1.0000 0.86370  0.31850  0.95490  Biso   1.000  O
  O8       1.0000 0.88210  0.51370  0.21010  Biso   1.000  O
  O9       1.0000 0.58110  0.61130  0.95260  Biso   1.000  O
  O10      1.0000 0.08540  0.27350  0.92140  Biso   1.000  O
  O11      1.0000 0.42770  0.74150  0.92240  Biso   1.000  O
  O12      1.0000 0.69590  0.61490  0.21190  Biso   1.000  O
  C14      1.0000 0.71420  0.00240  0.93040  Biso   1.000  C
  C15      1.0000 0.85500  0.06220  0.90130  Biso   1.000  C
  N3       1.0000 0.90890  0.94680  0.85490  Biso   1.000  N
  C16      1.0000 0.94610  0.23400  0.92760  Biso   1.000  C
  N4       1.0000 0.81190  0.81240  0.85540  Biso   1.000  N
  C17      1.0000 0.55800  0.72400  0.92650  Biso   1.000  C
  C18      1.0000 0.04400  0.74600  0.59240  Biso   1.000  C
  C19      1.0000 0.68620  0.84420  0.90340  Biso   1.000  C
  C20      1.0000 0.98580  0.85650  0.65080  Biso   1.000  C
  C21      1.0000 0.99000  0.66600  0.46600  Biso   1.000  C
  C22      1.0000 0.87430  0.69190  0.40100  Biso   1.000  C
  C23      1.0000 0.81140  0.60030  0.26710  Biso   1.000  C
  C24      1.0000 0.04140  0.94370  0.78800  Biso   1.000  C
  C25      1.0000 0.87340  0.89150  0.58670  Biso   1.000  C
  C26      1.0000 0.81610  0.80810  0.46120  Biso   1.000  C
  H8       1.0000 0.64100  0.03500  0.99900  Biso   1.000  H
  H9       1.0000 0.12000  0.04000  0.81600  Biso   1.000  H
  H10      1.0000 0.83600  0.97500  0.65500  Biso   1.000  H
  H11      1.0000 0.04600  0.60900  0.39300  Biso   1.000  H
  H12      1.0000 0.72200  0.80600  0.39400  Biso   1.000  H
  H13      1.0000 0.07000  0.70800  0.67100  Biso   1.000  H
  H14      1.0000 0.11000  0.89400  0.83700  Biso   1.000  H
