data_image0
_cell_length_a       8.2326
_cell_length_b       13.5545
_cell_length_c       17.4759
_cell_angle_alpha    90
_cell_angle_beta     90
_cell_angle_gamma    90

_symmetry_space_group_name_H-M    "P 1"
_symmetry_int_tables_number       1

loop_
  _symmetry_equiv_pos_as_xyz
  'x, y, z'

loop_
  _atom_site_label
  _atom_site_occupancy
  _atom_site_fract_x
  _atom_site_fract_y
  _atom_site_fract_z
  _atom_site_thermal_displace_type
  _atom_site_B_iso_or_equiv
  _atom_site_type_symbol
  C1       1.0000 0.65550  0.95260  0.91460  Biso   1.000  C
  H1       1.0000 0.73100  0.91480  0.94560  Biso   1.000  H
  H2       1.0000 0.71250  0.97680  0.86980  Biso   1.000  H
  C2       1.0000 0.58900  0.03450  0.95850  Biso   1.000  C
  C3       1.0000 0.58200  0.03020  0.03550  Biso   1.000  C
  H3       1.0000 0.65530  0.98060  0.05380  Biso   1.000  H
  H4       1.0000 0.47300  0.01390  0.05100  Biso   1.000  H
  H5       1.0000 0.61110  0.09310  0.05660  Biso   1.000  H
  C4       1.0000 0.48190  0.11060  0.91080  Biso   1.000  C
  C5       1.0000 0.38970  0.18150  0.96370  Biso   1.000  C
  C6       1.0000 0.53100  0.18360  0.78180  Biso   1.000  C
  C7       1.0000 0.49430  0.09030  0.73720  Biso   1.000  C
  C8       1.0000 0.61240  0.02480  0.71470  Biso   1.000  C
  H6       1.0000 0.72010  0.03600  0.72830  Biso   1.000  H
  C9       1.0000 0.57150  0.94130  0.67150  Biso   1.000  C
  H7       1.0000 0.65360  0.89840  0.65640  Biso   1.000  H
  C10      1.0000 0.30490  0.98490  0.67280  Biso   1.000  C
  H8       1.0000 0.19820  0.97230  0.65840  Biso   1.000  H
  C11      1.0000 0.33560  0.06840  0.71530  Biso   1.000  C
  H9       1.0000 0.25070  0.10990  0.72940  Biso   1.000  H
  N1       1.0000 0.41880  0.92140  0.65130  Biso   1.000  N
  N2       1.0000 0.59410  0.16580  0.86000  Biso   1.000  N
  O1       1.0000 0.27040  0.14520  0.99816  Biso   1.000  O
  O2       1.0000 0.43890  0.26830  0.97028  Biso   1.000  O
  Zn1      1.0000 0.15366  0.20017  0.08627  Biso   1.000  Zn
  H10      1.0000 0.68900  0.12800  0.84900  Biso   1.000  H
  H11      1.0000 0.40000  0.08600  0.87700  Biso   1.000  H
  H12      1.0000 0.42900  0.19400  0.78400  Biso   1.000  H
  C12      1.0000 0.84450  0.04740  0.41460  Biso   1.000  C
  H13      1.0000 0.76900  0.08520  0.44560  Biso   1.000  H
  H14      1.0000 0.78750  0.02320  0.36980  Biso   1.000  H
  C13      1.0000 0.91100  0.96550  0.45850  Biso   1.000  C
  C14      1.0000 0.91800  0.96980  0.53550  Biso   1.000  C
  H15      1.0000 0.84470  0.01940  0.55380  Biso   1.000  H
  H16      1.0000 0.02700  0.98610  0.55100  Biso   1.000  H
  H17      1.0000 0.88890  0.90690  0.55660  Biso   1.000  H
  C15      1.0000 0.01810  0.88940  0.41080  Biso   1.000  C
  C16      1.0000 0.11030  0.81850  0.46370  Biso   1.000  C
  C17      1.0000 0.96900  0.81640  0.28180  Biso   1.000  C
  C18      1.0000 0.00570  0.90970  0.23720  Biso   1.000  C
  C19      1.0000 0.88760  0.97520  0.21470  Biso   1.000  C
  H18      1.0000 0.77990  0.96400  0.22830  Biso   1.000  H
  C20      1.0000 0.92850  0.05870  0.17150  Biso   1.000  C
  H19      1.0000 0.84640  0.10160  0.15640  Biso   1.000  H
  C21      1.0000 0.19510  0.01510  0.17280  Biso   1.000  C
  H20      1.0000 0.30180  0.02770  0.15840  Biso   1.000  H
  C22      1.0000 0.16440  0.93160  0.21530  Biso   1.000  C
  H21      1.0000 0.24930  0.89010  0.22940  Biso   1.000  H
  N3       1.0000 0.08120  0.07860  0.15130  Biso   1.000  N
  N4       1.0000 0.90590  0.83420  0.36000  Biso   1.000  N
  O3       1.0000 0.22960  0.85480  0.49816  Biso   1.000  O
  O4       1.0000 0.06110  0.73170  0.47028  Biso   1.000  O
  Zn2      1.0000 0.34634  0.79983  0.58627  Biso   1.000  Zn
  H22      1.0000 0.81100  0.87200  0.34900  Biso   1.000  H
  H23      1.0000 0.10000  0.91400  0.37700  Biso   1.000  H
  H24      1.0000 0.07100  0.80600  0.28400  Biso   1.000  H
  C23      1.0000 0.34450  0.45260  0.58540  Biso   1.000  C
  H25      1.0000 0.26900  0.41480  0.55440  Biso   1.000  H
  H26      1.0000 0.28750  0.47680  0.63020  Biso   1.000  H
  C24      1.0000 0.41100  0.53450  0.54150  Biso   1.000  C
  C25      1.0000 0.41800  0.53020  0.46450  Biso   1.000  C
  H27      1.0000 0.34470  0.48060  0.44620  Biso   1.000  H
  H28      1.0000 0.52700  0.51390  0.44900  Biso   1.000  H
  H29      1.0000 0.38890  0.59310  0.44340  Biso   1.000  H
  C26      1.0000 0.51810  0.61060  0.58920  Biso   1.000  C
  C27      1.0000 0.61030  0.68150  0.53630  Biso   1.000  C
  C28      1.0000 0.46900  0.68360  0.71820  Biso   1.000  C
  C29      1.0000 0.50570  0.59030  0.76280  Biso   1.000  C
  C30      1.0000 0.38760  0.52480  0.78530  Biso   1.000  C
  H30      1.0000 0.27990  0.53600  0.77170  Biso   1.000  H
  C31      1.0000 0.42850  0.44130  0.82850  Biso   1.000  C
  H31      1.0000 0.34640  0.39840  0.84360  Biso   1.000  H
  C32      1.0000 0.69510  0.48490  0.82720  Biso   1.000  C
  H32      1.0000 0.80180  0.47230  0.84160  Biso   1.000  H
  C33      1.0000 0.66440  0.56840  0.78470  Biso   1.000  C
  H33      1.0000 0.74930  0.60990  0.77060  Biso   1.000  H
  N5       1.0000 0.58120  0.42140  0.84870  Biso   1.000  N
  N6       1.0000 0.40590  0.66580  0.64000  Biso   1.000  N
  O5       1.0000 0.72960  0.64520  0.50184  Biso   1.000  O
  O6       1.0000 0.56110  0.76830  0.52972  Biso   1.000  O
  Zn3      1.0000 0.84634  0.70017  0.41373  Biso   1.000  Zn
  H34      1.0000 0.31100  0.62800  0.65100  Biso   1.000  H
  H35      1.0000 0.60000  0.58600  0.62300  Biso   1.000  H
  H36      1.0000 0.57100  0.69400  0.71600  Biso   1.000  H
  C34      1.0000 0.15550  0.54740  0.08540  Biso   1.000  C
  H37      1.0000 0.23100  0.58520  0.05440  Biso   1.000  H
  H38      1.0000 0.21250  0.52320  0.13020  Biso   1.000  H
  C35      1.0000 0.08900  0.46550  0.04150  Biso   1.000  C
  C36      1.0000 0.08200  0.46980  0.96450  Biso   1.000  C
  H39      1.0000 0.15530  0.51940  0.94620  Biso   1.000  H
  H40      1.0000 0.97300  0.48610  0.94900  Biso   1.000  H
  H41      1.0000 0.11110  0.40690  0.94340  Biso   1.000  H
  C37      1.0000 0.98190  0.38940  0.08920  Biso   1.000  C
  C38      1.0000 0.88970  0.31850  0.03630  Biso   1.000  C
  C39      1.0000 0.03100  0.31640  0.21820  Biso   1.000  C
  C40      1.0000 0.99430  0.40970  0.26280  Biso   1.000  C
  C41      1.0000 0.11240  0.47520  0.28530  Biso   1.000  C
  H42      1.0000 0.22010  0.46400  0.27170  Biso   1.000  H
  C42      1.0000 0.07150  0.55870  0.32850  Biso   1.000  C
  H43      1.0000 0.15360  0.60160  0.34360  Biso   1.000  H
  C43      1.0000 0.80490  0.51510  0.32720  Biso   1.000  C
  H44      1.0000 0.69820  0.52770  0.34160  Biso   1.000  H
  C44      1.0000 0.83560  0.43160  0.28470  Biso   1.000  C
  H45      1.0000 0.75070  0.39010  0.27060  Biso   1.000  H
  N7       1.0000 0.91880  0.57860  0.34870  Biso   1.000  N
  N8       1.0000 0.09410  0.33420  0.14000  Biso   1.000  N
  O7       1.0000 0.77040  0.35480  0.00184  Biso   1.000  O
  O8       1.0000 0.93890  0.23170  0.02972  Biso   1.000  O
  Zn4      1.0000 0.65366  0.29983  0.91373  Biso   1.000  Zn
  H46      1.0000 0.18900  0.37200  0.15100  Biso   1.000  H
  H47      1.0000 0.90000  0.41400  0.12300  Biso   1.000  H
  H48      1.0000 0.92900  0.30600  0.21600  Biso   1.000  H
