data_GATBUZ_charged
_audit_creation_date              2014-07-02
_audit_creation_method            'Materials Studio'
_symmetry_space_group_name_H-M    'P1'
_symmetry_Int_Tables_number       1
_symmetry_cell_setting            triclinic
loop_
_symmetry_equiv_pos_as_xyz
  x,y,z
_cell_length_a                    9.8727
_cell_length_b                    17.5138
_cell_length_c                    18.1642
_cell_angle_alpha                 92.1357
_cell_angle_beta                  90.0000
_cell_angle_gamma                 106.3710
loop_
_atom_site_label
_atom_site_type_symbol
_atom_site_fract_x
_atom_site_fract_y
_atom_site_fract_z
_atom_site_U_iso_or_equiv
_atom_site_adp_type
_atom_site_occupancy
Zn1    Zn    0.35037   0.30614   0.99656   0.01267  Uiso   1.00
Zn2    Zn    0.04423   0.69386   0.50344   0.01267  Uiso   1.00
Zn3    Zn    0.64963   0.69386   0.00344   0.01267  Uiso   1.00
Zn4    Zn    0.95577   0.30614   0.49656   0.01267  Uiso   1.00
Zn5    Zn    0.50000   0.50000   0.00000   0.01267  Uiso   1.00
Zn6    Zn    0.00000   0.50000   0.50000   0.01267  Uiso   1.00
H1     H     0.51270   0.26520   0.77780   0.01267  Uiso   1.00
H2     H     0.74660   0.48960   0.83410   0.01267  Uiso   1.00
H3     H     0.86540   0.49560   0.72290   0.01267  Uiso   1.00
H4     H     0.63900   0.26920   0.66860   0.01267  Uiso   1.00
H5     H     0.97090   0.43180   0.10970   0.01267  Uiso   1.00
H6     H     0.18050   0.49260   0.91880   0.01267  Uiso   1.00
H7     H     0.20410   0.06380   0.06690   0.01267  Uiso   1.00
H8     H     0.91260   0.06920   0.91350   0.01267  Uiso   1.00
H9     H     0.24750   0.73480   0.72220   0.01267  Uiso   1.00
H10    H     0.25700   0.51040   0.66590   0.01267  Uiso   1.00
H11    H     0.36980   0.50440   0.77710   0.01267  Uiso   1.00
H12    H     0.36980   0.73080   0.83140   0.01267  Uiso   1.00
H13    H     0.53910   0.56820   0.39030   0.01267  Uiso   1.00
H14    H     0.68790   0.50740   0.58120   0.01267  Uiso   1.00
H15    H     0.14030   0.93620   0.43310   0.01267  Uiso   1.00
H16    H     0.84340   0.93080   0.58650   0.01267  Uiso   1.00
H17    H     0.48730   0.73480   0.22220   0.01267  Uiso   1.00
H18    H     0.25340   0.51040   0.16590   0.01267  Uiso   1.00
H19    H     0.13460   0.50440   0.27710   0.01267  Uiso   1.00
H20    H     0.36100   0.73080   0.33140   0.01267  Uiso   1.00
H21    H     0.02910   0.56820   0.89030   0.01267  Uiso   1.00
H22    H     0.81950   0.50740   0.08120   0.01267  Uiso   1.00
H23    H     0.79590   0.93620   0.93310   0.01267  Uiso   1.00
H24    H     0.08740   0.93080   0.08650   0.01267  Uiso   1.00
H25    H     0.75250   0.26520   0.27780   0.01267  Uiso   1.00
H26    H     0.74300   0.48960   0.33410   0.01267  Uiso   1.00
H27    H     0.63020   0.49560   0.22290   0.01267  Uiso   1.00
H28    H     0.63020   0.26920   0.16860   0.01267  Uiso   1.00
H29    H     0.46090   0.43180   0.60970   0.01267  Uiso   1.00
H30    H     0.31210   0.49260   0.41880   0.01267  Uiso   1.00
H31    H     0.85970   0.06380   0.56690   0.01267  Uiso   1.00
H32    H     0.15660   0.06920   0.41350   0.01267  Uiso   1.00
C1     C     0.54674   0.37208   0.89012   0.01267  Uiso   1.00
C2     C     0.61991   0.37582   0.81758   0.01267  Uiso   1.00
C3     C     0.58658   0.31156   0.76733   0.01267  Uiso   1.00
C4     C     0.72423   0.44486   0.80040   0.01267  Uiso   1.00
C5     C     0.84406   0.38752   0.61437   0.01267  Uiso   1.00
C6     C     0.76487   0.38294   0.68477   0.01267  Uiso   1.00
C7     C     0.79520   0.44820   0.73450   0.01267  Uiso   1.00
C8     C     0.66010   0.31420   0.70182   0.01267  Uiso   1.00
C9     C     0.18661   0.40482   0.03530   0.01267  Uiso   1.00
C10    C     0.09179   0.45538   0.01720   0.01267  Uiso   1.00
C11    C     0.98273   0.45966   0.06520   0.01267  Uiso   1.00
C12    C     0.10747   0.49574   0.95184   0.01267  Uiso   1.00
C13    C     0.14407   0.16694   0.97620   0.01267  Uiso   1.00
C14    C     0.06857   0.08054   0.98850   0.01267  Uiso   1.00
C15    C     0.12054   0.03808   0.03960   0.01267  Uiso   1.00
C16    C     0.94874   0.04148   0.94900   0.01267  Uiso   1.00
C17    C     0.17466   0.62792   0.60988   0.01267  Uiso   1.00
C18    C     0.24409   0.62418   0.68242   0.01267  Uiso   1.00
C19    C     0.27502   0.68844   0.73267   0.01267  Uiso   1.00
C20    C     0.27937   0.55514   0.69960   0.01267  Uiso   1.00
C21    C     0.45654   0.61248   0.88563   0.01267  Uiso   1.00
C22    C     0.38193   0.61706   0.81523   0.01267  Uiso   1.00
C23    C     0.34700   0.55180   0.76550   0.01267  Uiso   1.00
C24    C     0.34590   0.68580   0.79818   0.01267  Uiso   1.00
C25    C     0.78179   0.59518   0.46470   0.01267  Uiso   1.00
C26    C     0.63641   0.54462   0.48280   0.01267  Uiso   1.00
C27    C     0.52307   0.54034   0.43480   0.01267  Uiso   1.00
C28    C     0.61173   0.50426   0.54816   0.01267  Uiso   1.00
C29    C     0.97713   0.83306   0.52380   0.01267  Uiso   1.00
C30    C     0.98803   0.91946   0.51150   0.01267  Uiso   1.00
C31    C     0.08246   0.96192   0.46040   0.01267  Uiso   1.00
C32    C     0.90726   0.95852   0.55100   0.01267  Uiso   1.00
C33    C     0.45326   0.62792   0.10988   0.01267  Uiso   1.00
C34    C     0.38009   0.62418   0.18242   0.01267  Uiso   1.00
C35    C     0.41342   0.68844   0.23267   0.01267  Uiso   1.00
C36    C     0.27577   0.55514   0.19960   0.01267  Uiso   1.00
C37    C     0.15594   0.61248   0.38563   0.01267  Uiso   1.00
C38    C     0.23513   0.61706   0.31523   0.01267  Uiso   1.00
C39    C     0.20480   0.55180   0.26550   0.01267  Uiso   1.00
C40    C     0.33990   0.68580   0.29818   0.01267  Uiso   1.00
C41    C     0.81339   0.59518   0.96470   0.01267  Uiso   1.00
C42    C     0.90821   0.54462   0.98280   0.01267  Uiso   1.00
C43    C     0.01727   0.54034   0.93480   0.01267  Uiso   1.00
C44    C     0.89253   0.50426   0.04816   0.01267  Uiso   1.00
C45    C     0.85593   0.83306   0.02380   0.01267  Uiso   1.00
C46    C     0.93143   0.91946   0.01150   0.01267  Uiso   1.00
C47    C     0.87946   0.96192   0.96040   0.01267  Uiso   1.00
C48    C     0.05126   0.95852   0.05100   0.01267  Uiso   1.00
C49    C     0.82534   0.37208   0.39012   0.01267  Uiso   1.00
C50    C     0.75591   0.37582   0.31758   0.01267  Uiso   1.00
C51    C     0.72498   0.31156   0.26733   0.01267  Uiso   1.00
C52    C     0.72063   0.44486   0.30040   0.01267  Uiso   1.00
C53    C     0.54346   0.38752   0.11437   0.01267  Uiso   1.00
C54    C     0.61807   0.38294   0.18477   0.01267  Uiso   1.00
C55    C     0.65300   0.44820   0.23450   0.01267  Uiso   1.00
C56    C     0.65410   0.31420   0.20182   0.01267  Uiso   1.00
C57    C     0.21821   0.40482   0.53530   0.01267  Uiso   1.00
C58    C     0.36359   0.45538   0.51720   0.01267  Uiso   1.00
C59    C     0.47693   0.45966   0.56520   0.01267  Uiso   1.00
C60    C     0.38827   0.49574   0.45184   0.01267  Uiso   1.00
C61    C     0.02287   0.16694   0.47620   0.01267  Uiso   1.00
C62    C     0.01197   0.08054   0.48850   0.01267  Uiso   1.00
C63    C     0.91754   0.03808   0.53960   0.01267  Uiso   1.00
C64    C     0.09274   0.04148   0.44900   0.01267  Uiso   1.00
O1     O     0.58954   0.42948   0.93523   0.01267  Uiso   1.00
O2     O     0.44778   0.30976   0.90153   0.01267  Uiso   1.00
O3     O     0.91009   0.45518   0.59491   0.01267  Uiso   1.00
O4     O     0.83866   0.32192   0.58126   0.01267  Uiso   1.00
O5     O     0.28691   0.40462   0.99091   0.01267  Uiso   1.00
O6     O     0.16197   0.36394   0.09053   0.01267  Uiso   1.00
O7     O     0.24614   0.19928   0.02000   0.01267  Uiso   1.00
O8     O     0.10641   0.20082   0.92580   0.01267  Uiso   1.00
O9     O     0.16006   0.57052   0.56477   0.01267  Uiso   1.00
O10    O     0.13802   0.69024   0.59847   0.01267  Uiso   1.00
O11    O     0.45491   0.54482   0.90509   0.01267  Uiso   1.00
O12    O     0.51674   0.67808   0.91874   0.01267  Uiso   1.00
O13    O     0.88229   0.59538   0.50909   0.01267  Uiso   1.00
O14    O     0.79803   0.63606   0.40947   0.01267  Uiso   1.00
O15    O     0.04686   0.80072   0.48000   0.01267  Uiso   1.00
O16    O     0.90559   0.79918   0.57420   0.01267  Uiso   1.00
O17    O     0.41046   0.57052   0.06477   0.01267  Uiso   1.00
O18    O     0.55222   0.69024   0.09847   0.01267  Uiso   1.00
O19    O     0.08991   0.54482   0.40509   0.01267  Uiso   1.00
O20    O     0.16134   0.67808   0.41874   0.01267  Uiso   1.00
O21    O     0.71309   0.59538   0.00909   0.01267  Uiso   1.00
O22    O     0.83803   0.63606   0.90947   0.01267  Uiso   1.00
O23    O     0.75386   0.80072   0.98000   0.01267  Uiso   1.00
O24    O     0.89359   0.79918   0.07420   0.01267  Uiso   1.00
O25    O     0.83994   0.42948   0.43523   0.01267  Uiso   1.00
O26    O     0.86198   0.30976   0.40153   0.01267  Uiso   1.00
O27    O     0.54509   0.45518   0.09491   0.01267  Uiso   1.00
O28    O     0.48326   0.32192   0.08126   0.01267  Uiso   1.00
O29    O     0.11771   0.40462   0.49091   0.01267  Uiso   1.00
O30    O     0.20197   0.36394   0.59053   0.01267  Uiso   1.00
O31    O     0.95314   0.19928   0.52000   0.01267  Uiso   1.00
O32    O     0.09441   0.20082   0.42580   0.01267  Uiso   1.00
H33    H     0.20180   0.28420   0.16130   0.01267  Uiso   1.00
H34    H     0.07230   0.21720   0.16940   0.01267  Uiso   1.00
H35    H     0.28150   0.17900   0.16170   0.01267  Uiso   1.00
H36    H     0.32020   0.22140   0.24180   0.01267  Uiso   1.00
H37    H     0.21430   0.08440   0.25340   0.01267  Uiso   1.00
H38    H     0.11470   0.13320   0.28950   0.01267  Uiso   1.00
H39    H     0.07730   0.09060   0.20970   0.01267  Uiso   1.00
H40    H     0.07030   0.24820   0.29470   0.01267  Uiso   1.00
H41    H     0.04280   0.31460   0.24320   0.01267  Uiso   1.00
H42    H     0.19970   0.37260   0.33560   0.01267  Uiso   1.00
H43    H     0.30310   0.32140   0.30900   0.01267  Uiso   1.00
H44    H     0.27540   0.38780   0.25750   0.01267  Uiso   1.00
C65    C     0.24110   0.19340   0.20830   0.01267  Uiso   1.00
C66    C     0.15420   0.11880   0.24330   0.01267  Uiso   1.00
C67    C     0.11430   0.28820   0.25820   0.01267  Uiso   1.00
C68    C     0.23270   0.34720   0.29290   0.01267  Uiso   1.00
N1     N     0.15371   0.24662   0.19310   0.01267  Uiso   1.00
H45    H     0.91760   0.71580   0.33870   0.01267  Uiso   1.00
H46    H     0.85510   0.78280   0.33060   0.01267  Uiso   1.00
H47    H     0.10250   0.82100   0.33830   0.01267  Uiso   1.00
H48    H     0.09880   0.77860   0.25820   0.01267  Uiso   1.00
H49    H     0.12990   0.91560   0.24660   0.01267  Uiso   1.00
H50    H     0.98150   0.86680   0.21050   0.01267  Uiso   1.00
H51    H     0.98670   0.90940   0.29030   0.01267  Uiso   1.00
H52    H     0.82210   0.75180   0.20530   0.01267  Uiso   1.00
H53    H     0.72820   0.68540   0.25680   0.01267  Uiso   1.00
H54    H     0.82710   0.62740   0.16440   0.01267  Uiso   1.00
H55    H     0.98170   0.67860   0.19100   0.01267  Uiso   1.00
H56    H     0.88760   0.61220   0.24250   0.01267  Uiso   1.00
C69    C     0.04770   0.80660   0.29170   0.01267  Uiso   1.00
C70    C     0.03540   0.88120   0.25670   0.01267  Uiso   1.00
C71    C     0.82610   0.71180   0.24180   0.01267  Uiso   1.00
C72    C     0.88550   0.65280   0.20710   0.01267  Uiso   1.00
N2     N     0.90709   0.75338   0.30690   0.01267  Uiso   1.00
H57    H     0.79820   0.71580   0.83870   0.01267  Uiso   1.00
H58    H     0.92770   0.78280   0.83060   0.01267  Uiso   1.00
H59    H     0.71850   0.82100   0.83830   0.01267  Uiso   1.00
H60    H     0.67980   0.77860   0.75820   0.01267  Uiso   1.00
H61    H     0.78570   0.91560   0.74660   0.01267  Uiso   1.00
H62    H     0.88530   0.86680   0.71050   0.01267  Uiso   1.00
H63    H     0.92270   0.90940   0.79030   0.01267  Uiso   1.00
H64    H     0.92970   0.75180   0.70530   0.01267  Uiso   1.00
H65    H     0.95720   0.68540   0.75680   0.01267  Uiso   1.00
H66    H     0.80030   0.62740   0.66440   0.01267  Uiso   1.00
H67    H     0.69690   0.67860   0.69100   0.01267  Uiso   1.00
H68    H     0.72460   0.61220   0.74250   0.01267  Uiso   1.00
C73    C     0.75890   0.80660   0.79170   0.01267  Uiso   1.00
C74    C     0.84580   0.88120   0.75670   0.01267  Uiso   1.00
C75    C     0.88570   0.71180   0.74180   0.01267  Uiso   1.00
C76    C     0.76730   0.65280   0.70710   0.01267  Uiso   1.00
N3     N     0.84629   0.75338   0.80690   0.01267  Uiso   1.00
H69    H     0.08240   0.28420   0.66130   0.01267  Uiso   1.00
H70    H     0.14490   0.21720   0.66940   0.01267  Uiso   1.00
H71    H     0.89750   0.17900   0.66170   0.01267  Uiso   1.00
H72    H     0.90120   0.22140   0.74180   0.01267  Uiso   1.00
H73    H     0.87010   0.08440   0.75340   0.01267  Uiso   1.00
H74    H     0.01850   0.13320   0.78950   0.01267  Uiso   1.00
H75    H     0.01330   0.09060   0.70970   0.01267  Uiso   1.00
H76    H     0.17790   0.24820   0.79470   0.01267  Uiso   1.00
H77    H     0.27180   0.31460   0.74320   0.01267  Uiso   1.00
H78    H     0.17290   0.37260   0.83560   0.01267  Uiso   1.00
H79    H     0.01830   0.32140   0.80900   0.01267  Uiso   1.00
H80    H     0.11240   0.38780   0.75750   0.01267  Uiso   1.00
C77    C     0.95230   0.19340   0.70830   0.01267  Uiso   1.00
C78    C     0.96460   0.11880   0.74330   0.01267  Uiso   1.00
C79    C     0.17390   0.28820   0.75820   0.01267  Uiso   1.00
C80    C     0.11450   0.34720   0.79290   0.01267  Uiso   1.00
N4     N     0.09291   0.24662   0.69310   0.01267  Uiso   1.00
