data_GATHAL_clean
_audit_creation_date              2014-07-02
_audit_creation_method            'Materials Studio'
_symmetry_space_group_name_H-M    'P1'
_symmetry_Int_Tables_number       1
_symmetry_cell_setting            triclinic
loop_
_symmetry_equiv_pos_as_xyz
  x,y,z
_cell_length_a                    8.7550
_cell_length_b                    11.2739
_cell_length_c                    17.7519
_cell_angle_alpha                 84.5057
_cell_angle_beta                  75.7242
_cell_angle_gamma                 67.1522
loop_
_atom_site_label
_atom_site_type_symbol
_atom_site_fract_x
_atom_site_fract_y
_atom_site_fract_z
_atom_site_U_iso_or_equiv
_atom_site_adp_type
_atom_site_occupancy
Sc1    Sc    0.63567   0.25000   0.22866   0.01267  Uiso   1.00
Sc2    Sc    0.11433   0.25000   0.27134   0.01267  Uiso   1.00
Sc3    Sc    0.36433   0.75000   0.77134   0.01267  Uiso   1.00
Sc4    Sc    0.88567   0.75000   0.72866   0.01267  Uiso   1.00
H1     H     0.72580   0.04720   0.01520   0.01267  Uiso   1.00
H2     H     0.24690   0.06540   0.09320   0.01267  Uiso   1.00
H3     H     0.84200   0.86180   0.24740   0.01267  Uiso   1.00
H4     H     0.75900   0.45280   0.01520   0.01267  Uiso   1.00
H5     H     0.15990   0.43460   0.09320   0.01267  Uiso   1.00
H6     H     0.41060   0.63820   0.24740   0.01267  Uiso   1.00
H7     H     0.22700   0.04720   0.48480   0.01267  Uiso   1.00
H8     H     0.68770   0.06540   0.40680   0.01267  Uiso   1.00
H9     H     0.29620   0.86180   0.25260   0.01267  Uiso   1.00
H10    H     0.78820   0.45280   0.48480   0.01267  Uiso   1.00
H11    H     0.40550   0.43460   0.40680   0.01267  Uiso   1.00
H12    H     0.95120   0.63820   0.25260   0.01267  Uiso   1.00
H13    H     0.27420   0.95280   0.98480   0.01267  Uiso   1.00
H14    H     0.75310   0.93460   0.90680   0.01267  Uiso   1.00
H15    H     0.15800   0.13820   0.75260   0.01267  Uiso   1.00
H16    H     0.24100   0.54720   0.98480   0.01267  Uiso   1.00
H17    H     0.84010   0.56540   0.90680   0.01267  Uiso   1.00
H18    H     0.58940   0.36180   0.75260   0.01267  Uiso   1.00
H19    H     0.77300   0.95280   0.51520   0.01267  Uiso   1.00
H20    H     0.31230   0.93460   0.59320   0.01267  Uiso   1.00
H21    H     0.70380   0.13820   0.74740   0.01267  Uiso   1.00
H22    H     0.21180   0.54720   0.51520   0.01267  Uiso   1.00
H23    H     0.59450   0.56540   0.59320   0.01267  Uiso   1.00
H24    H     0.04880   0.36180   0.74740   0.01267  Uiso   1.00
C1     C     0.46505   0.13942   0.13524   0.01267  Uiso   1.00
C2     C     0.48347   0.06744   0.06508   0.01267  Uiso   1.00
C3     C     0.63499   0.02836   0.00928   0.01267  Uiso   1.00
C4     C     0.34877   0.03914   0.05576   0.01267  Uiso   1.00
C5     C     0.95538   0.81712   0.24914   0.01267  Uiso   1.00
C6     C     0.89971   0.36058   0.13524   0.01267  Uiso   1.00
C7     C     0.95145   0.43256   0.06508   0.01267  Uiso   1.00
C8     C     0.85573   0.47164   0.00928   0.01267  Uiso   1.00
C9     C     0.09547   0.46086   0.05576   0.01267  Uiso   1.00
C10    C     0.29548   0.68288   0.24914   0.01267  Uiso   1.00
C11    C     0.39553   0.13942   0.36476   0.01267  Uiso   1.00
C12    C     0.44909   0.06744   0.43492   0.01267  Uiso   1.00
C13    C     0.33665   0.02836   0.49072   0.01267  Uiso   1.00
C14    C     0.61209   0.03914   0.44424   0.01267  Uiso   1.00
C15    C     0.22750   0.81712   0.25086   0.01267  Uiso   1.00
C16    C     0.73971   0.36058   0.36476   0.01267  Uiso   1.00
C17    C     0.61599   0.43256   0.43492   0.01267  Uiso   1.00
C18    C     0.67263   0.47164   0.49072   0.01267  Uiso   1.00
C19    C     0.44367   0.46086   0.44424   0.01267  Uiso   1.00
C20    C     0.02164   0.68288   0.25086   0.01267  Uiso   1.00
C21    C     0.53495   0.86058   0.86476   0.01267  Uiso   1.00
C22    C     0.51653   0.93256   0.93492   0.01267  Uiso   1.00
C23    C     0.36501   0.97164   0.99072   0.01267  Uiso   1.00
C24    C     0.65123   0.96086   0.94424   0.01267  Uiso   1.00
C25    C     0.04462   0.18288   0.75086   0.01267  Uiso   1.00
C26    C     0.10029   0.63942   0.86476   0.01267  Uiso   1.00
C27    C     0.04855   0.56744   0.93492   0.01267  Uiso   1.00
C28    C     0.14427   0.52836   0.99072   0.01267  Uiso   1.00
C29    C     0.90453   0.53914   0.94424   0.01267  Uiso   1.00
C30    C     0.70452   0.31712   0.75086   0.01267  Uiso   1.00
C31    C     0.60447   0.86058   0.63524   0.01267  Uiso   1.00
C32    C     0.55091   0.93256   0.56508   0.01267  Uiso   1.00
C33    C     0.66335   0.97164   0.50928   0.01267  Uiso   1.00
C34    C     0.38791   0.96086   0.55576   0.01267  Uiso   1.00
C35    C     0.77250   0.18288   0.74914   0.01267  Uiso   1.00
C36    C     0.26029   0.63942   0.63524   0.01267  Uiso   1.00
C37    C     0.38401   0.56744   0.56508   0.01267  Uiso   1.00
C38    C     0.32737   0.52836   0.50928   0.01267  Uiso   1.00
C39    C     0.55633   0.53914   0.55576   0.01267  Uiso   1.00
C40    C     0.97836   0.31712   0.74914   0.01267  Uiso   1.00
C41    C     0.98638   0.02724   0.25000   0.01267  Uiso   1.00
C42    C     0.05826   0.88348   0.25000   0.01267  Uiso   1.00
C43    C     0.26362   0.47276   0.25000   0.01267  Uiso   1.00
C44    C     0.19174   0.61652   0.25000   0.01267  Uiso   1.00
C45    C     0.01362   0.97276   0.75000   0.01267  Uiso   1.00
C46    C     0.94174   0.11652   0.75000   0.01267  Uiso   1.00
C47    C     0.73638   0.52724   0.75000   0.01267  Uiso   1.00
C48    C     0.80826   0.38348   0.75000   0.01267  Uiso   1.00
O1     O     0.58762   0.16672   0.14092   0.01267  Uiso   1.00
O2     O     0.32787   0.16844   0.18514   0.01267  Uiso   1.00
O3     O     0.84879   0.08328   0.22942   0.01267  Uiso   1.00
O4     O     0.77146   0.33328   0.14092   0.01267  Uiso   1.00
O5     O     0.98699   0.33156   0.18514   0.01267  Uiso   1.00
O6     O     0.42179   0.41672   0.22942   0.01267  Uiso   1.00
O7     O     0.24566   0.16672   0.35908   0.01267  Uiso   1.00
O8     O     0.50369   0.16844   0.31486   0.01267  Uiso   1.00
O9     O     0.06793   0.08328   0.27058   0.01267  Uiso   1.00
O10    O     0.89526   0.33328   0.35908   0.01267  Uiso   1.00
O11    O     0.68145   0.33156   0.31486   0.01267  Uiso   1.00
O12    O     0.16149   0.41672   0.27058   0.01267  Uiso   1.00
O13    O     0.41238   0.83328   0.85908   0.01267  Uiso   1.00
O14    O     0.67213   0.83156   0.81486   0.01267  Uiso   1.00
O15    O     0.15121   0.91672   0.77058   0.01267  Uiso   1.00
O16    O     0.22854   0.66672   0.85908   0.01267  Uiso   1.00
O17    O     0.01301   0.66844   0.81486   0.01267  Uiso   1.00
O18    O     0.57821   0.58328   0.77058   0.01267  Uiso   1.00
O19    O     0.75434   0.83328   0.64092   0.01267  Uiso   1.00
O20    O     0.49631   0.83156   0.68514   0.01267  Uiso   1.00
O21    O     0.93207   0.91672   0.72942   0.01267  Uiso   1.00
O22    O     0.10474   0.66672   0.64092   0.01267  Uiso   1.00
O23    O     0.31855   0.66844   0.68514   0.01267  Uiso   1.00
O24    O     0.83851   0.58328   0.72942   0.01267  Uiso   1.00
