data_GAWJEV_clean
_audit_creation_date              2014-07-02
_audit_creation_method            'Materials Studio'
_symmetry_space_group_name_H-M    'P1'
_symmetry_Int_Tables_number       1
_symmetry_cell_setting            triclinic
loop_
_symmetry_equiv_pos_as_xyz
  x,y,z
_cell_length_a                    10.6211
_cell_length_b                    12.6597
_cell_length_c                    25.6894
_cell_angle_alpha                 84.7076
_cell_angle_beta                  78.0696
_cell_angle_gamma                 65.1979
loop_
_atom_site_label
_atom_site_type_symbol
_atom_site_fract_x
_atom_site_fract_y
_atom_site_fract_z
_atom_site_U_iso_or_equiv
_atom_site_adp_type
_atom_site_occupancy
Zn1    Zn    0.24778   0.46292   0.11632   0.01267  Uiso   1.00
Zn2    Zn    0.71104   0.75512   0.04302   0.01267  Uiso   1.00
Zn3    Zn    0.82702   0.03708   0.38368   0.01267  Uiso   1.00
Zn4    Zn    0.50918   0.74488   0.45698   0.01267  Uiso   1.00
Zn5    Zn    0.75222   0.53708   0.88368   0.01267  Uiso   1.00
Zn6    Zn    0.28896   0.24488   0.95698   0.01267  Uiso   1.00
Zn7    Zn    0.17298   0.96292   0.61632   0.01267  Uiso   1.00
Zn8    Zn    0.49082   0.25512   0.54302   0.01267  Uiso   1.00
Zn9    Zn    0.06303   0.25000   0.75000   0.01267  Uiso   1.00
Zn10   Zn    0.93697   0.75000   0.25000   0.01267  Uiso   1.00
Zn11   Zn    0.50000   0.00000  -0.00000   0.01267  Uiso   1.00
Zn12   Zn    0.50000   0.50000   0.50000   0.01267  Uiso   1.00
H1     H     0.54340   0.92490   0.77790   0.01267  Uiso   1.00
H2     H     0.05610   0.99230   0.07810   0.01267  Uiso   1.00
H3     H     0.07890   0.80290   0.09350   0.01267  Uiso   1.00
H4     H     0.80240   0.94070   0.85790   0.01267  Uiso   1.00
H5     H     0.66320   0.79880   0.83920   0.01267  Uiso   1.00
H6     H     0.58970   0.27690   0.82250   0.01267  Uiso   1.00
H7     H     0.18360   0.02270   0.88650   0.01267  Uiso   1.00
H8     H     0.24620   0.57510   0.72210   0.01267  Uiso   1.00
H9     H     0.12650   0.50770   0.42190   0.01267  Uiso   1.00
H10    H     0.97530   0.69710   0.40650   0.01267  Uiso   1.00
H11    H     0.60100   0.55930   0.64210   0.01267  Uiso   1.00
H12    H     0.30120   0.70120   0.66080   0.01267  Uiso   1.00
H13    H     0.68910   0.22310   0.67750   0.01267  Uiso   1.00
H14    H     0.09280   0.47730   0.61350   0.01267  Uiso   1.00
H15    H     0.45660   0.07510   0.22210   0.01267  Uiso   1.00
H16    H     0.94390   0.00770   0.92190   0.01267  Uiso   1.00
H17    H     0.92110   0.19710   0.90650   0.01267  Uiso   1.00
H18    H     0.19760   0.05930   0.14210   0.01267  Uiso   1.00
H19    H     0.33680   0.20120   0.16080   0.01267  Uiso   1.00
H20    H     0.41030   0.72310   0.17750   0.01267  Uiso   1.00
H21    H     0.81640   0.97730   0.11350   0.01267  Uiso   1.00
H22    H     0.75380   0.42490   0.27790   0.01267  Uiso   1.00
H23    H     0.87350   0.49230   0.57810   0.01267  Uiso   1.00
H24    H     0.02470   0.30290   0.59350   0.01267  Uiso   1.00
H25    H     0.39900   0.44070   0.35790   0.01267  Uiso   1.00
H26    H     0.69880   0.29880   0.33920   0.01267  Uiso   1.00
H27    H     0.31090   0.77690   0.32250   0.01267  Uiso   1.00
H28    H     0.90720   0.52270   0.38650   0.01267  Uiso   1.00
C1     C     0.89390   0.99427   0.79073   0.01267  Uiso   1.00
C2     C     0.99762   0.07511   0.71065   0.01267  Uiso   1.00
C3     C     0.49746   0.83774   0.90054   0.01267  Uiso   1.00
C4     C     0.49596   0.92011   0.81217   0.01267  Uiso   1.00
C5     C     0.67744   0.11095   0.84757   0.01267  Uiso   1.00
C6     C     0.56445   0.11988   0.89482   0.01267  Uiso   1.00
C7     C     0.18492   0.08411   0.00345   0.01267  Uiso   1.00
C8     C     0.22380   0.61619   0.03081   0.01267  Uiso   1.00
C9     C     0.58632   0.77100   0.94036   0.01267  Uiso   1.00
C10    C     0.11368   0.93536   0.05288   0.01267  Uiso   1.00
C11    C     0.35035   0.90239   0.91491   0.01267  Uiso   1.00
C12    C     0.12494   0.82273   0.06179   0.01267  Uiso   1.00
C13    C     0.26988   0.88155   0.96749   0.01267  Uiso   1.00
C14    C     0.76677   0.19862   0.76904   0.01267  Uiso   1.00
C15    C     0.20575   0.73970   0.02300   0.01267  Uiso   1.00
C16    C     0.35246   0.98875   0.82673   0.01267  Uiso   1.00
C17    C     0.79336   0.00452   0.83556   0.01267  Uiso   1.00
C18    C     0.56727   0.84513   0.84893   0.01267  Uiso   1.00
C19    C     0.66656   0.20607   0.81421   0.01267  Uiso   1.00
C20    C     0.28025   0.97811   0.87759   0.01267  Uiso   1.00
C21    C     0.27570   0.07453   0.78747   0.01267  Uiso   1.00
C22    C     0.27611   0.76862   0.97516   0.01267  Uiso   1.00
C23    C     0.88196   0.09169   0.75759   0.01267  Uiso   1.00
C24    C     0.18706   0.96486   0.00682   0.01267  Uiso   1.00
C25    C     0.67890   0.50573   0.70927   0.01267  Uiso   1.00
C26    C     0.78338   0.42489   0.78935   0.01267  Uiso   1.00
C27    C     0.23574   0.66226   0.59946   0.01267  Uiso   1.00
C28    C     0.22824   0.57989   0.68783   0.01267  Uiso   1.00
C29    C     0.63596   0.38905   0.65243   0.01267  Uiso   1.00
C30    C     0.57915   0.38012   0.60518   0.01267  Uiso   1.00
C31    C     0.27248   0.41589   0.49655   0.01267  Uiso   1.00
C32    C     0.87080   0.88381   0.46919   0.01267  Uiso   1.00
C33    C     0.29768   0.72900   0.55964   0.01267  Uiso   1.00
C34    C     0.10192   0.56464   0.44712   0.01267  Uiso   1.00
C35    C     0.16765   0.59761   0.58509   0.01267  Uiso   1.00
C36    C     0.00946   0.67727   0.43821   0.01267  Uiso   1.00
C37    C     0.11892   0.61845   0.53251   0.01267  Uiso   1.00
C38    C     0.73443   0.30138   0.73096   0.01267  Uiso   1.00
C39    C     0.96845   0.76030   0.47700   0.01267  Uiso   1.00
C40    C     0.16794   0.51125   0.67327   0.01267  Uiso   1.00
C41    C     0.63344   0.49548   0.66444   0.01267  Uiso   1.00
C42    C     0.26133   0.65487   0.65107   0.01267  Uiso   1.00
C43    C     0.68684   0.29393   0.68579   0.01267  Uiso   1.00
C44    C     0.13595   0.52189   0.62241   0.01267  Uiso   1.00
C45    C     0.13770   0.42547   0.71253   0.01267  Uiso   1.00
C46    C     0.01989   0.73138   0.52484   0.01267  Uiso   1.00
C47    C     0.73124   0.40831   0.74241   0.01267  Uiso   1.00
C48    C     0.15874   0.53514   0.49318   0.01267  Uiso   1.00
C49    C     0.10610   0.00573   0.20927   0.01267  Uiso   1.00
C50    C     0.00238   0.92489   0.28935   0.01267  Uiso   1.00
C51    C     0.50254   0.16226   0.09946   0.01267  Uiso   1.00
C52    C     0.50404   0.07989   0.18783   0.01267  Uiso   1.00
C53    C     0.32256   0.88905   0.15243   0.01267  Uiso   1.00
C54    C     0.43555   0.88012   0.10518   0.01267  Uiso   1.00
C55    C     0.81508   0.91589   0.99655   0.01267  Uiso   1.00
C56    C     0.77620   0.38381   0.96919   0.01267  Uiso   1.00
C57    C     0.41368   0.22900   0.05964   0.01267  Uiso   1.00
C58    C     0.88632   0.06464   0.94712   0.01267  Uiso   1.00
C59    C     0.64965   0.09761   0.08509   0.01267  Uiso   1.00
C60    C     0.87506   0.17727   0.93821   0.01267  Uiso   1.00
C61    C     0.73012   0.11845   0.03251   0.01267  Uiso   1.00
C62    C     0.23323   0.80138   0.23096   0.01267  Uiso   1.00
C63    C     0.79425   0.26030   0.97700   0.01267  Uiso   1.00
C64    C     0.64754   0.01125   0.17327   0.01267  Uiso   1.00
C65    C     0.20664   0.99548   0.16444   0.01267  Uiso   1.00
C66    C     0.43273   0.15487   0.15107   0.01267  Uiso   1.00
C67    C     0.33344   0.79393   0.18579   0.01267  Uiso   1.00
C68    C     0.71975   0.02189   0.12241   0.01267  Uiso   1.00
C69    C     0.72430   0.92547   0.21253   0.01267  Uiso   1.00
C70    C     0.72389   0.23138   0.02484   0.01267  Uiso   1.00
C71    C     0.11804   0.90831   0.24241   0.01267  Uiso   1.00
C72    C     0.81294   0.03514   0.99318   0.01267  Uiso   1.00
C73    C     0.32110   0.49427   0.29073   0.01267  Uiso   1.00
C74    C     0.21662   0.57511   0.21065   0.01267  Uiso   1.00
C75    C     0.76426   0.33774   0.40054   0.01267  Uiso   1.00
C76    C     0.77176   0.42011   0.31217   0.01267  Uiso   1.00
C77    C     0.36404   0.61095   0.34757   0.01267  Uiso   1.00
C78    C     0.42085   0.61988   0.39482   0.01267  Uiso   1.00
C79    C     0.72752   0.58411   0.50345   0.01267  Uiso   1.00
C80    C     0.12920   0.11619   0.53081   0.01267  Uiso   1.00
C81    C     0.70232   0.27100   0.44036   0.01267  Uiso   1.00
C82    C     0.89808   0.43536   0.55288   0.01267  Uiso   1.00
C83    C     0.83235   0.40239   0.41491   0.01267  Uiso   1.00
C84    C     0.99054   0.32273   0.56179   0.01267  Uiso   1.00
C85    C     0.88108   0.38155   0.46749   0.01267  Uiso   1.00
C86    C     0.26557   0.69862   0.26904   0.01267  Uiso   1.00
C87    C     0.03155   0.23970   0.52300   0.01267  Uiso   1.00
C88    C     0.83206   0.48875   0.32673   0.01267  Uiso   1.00
C89    C     0.36656   0.50452   0.33556   0.01267  Uiso   1.00
C90    C     0.73867   0.34513   0.34893   0.01267  Uiso   1.00
C91    C     0.31316   0.70607   0.31421   0.01267  Uiso   1.00
C92    C     0.86405   0.47811   0.37759   0.01267  Uiso   1.00
C93    C     0.86230   0.57453   0.28747   0.01267  Uiso   1.00
C94    C     0.98011   0.26862   0.47516   0.01267  Uiso   1.00
C95    C     0.26876   0.59169   0.25759   0.01267  Uiso   1.00
C96    C     0.84126   0.46486   0.50682   0.01267  Uiso   1.00
O1     O     0.14540   0.59448   0.07212   0.01267  Uiso   1.00
O2     O     0.56131   0.81829   0.98477   0.01267  Uiso   1.00
O3     O     0.04470   0.98114   0.68566   0.01267  Uiso   1.00
O4     O     0.15908   0.15783   0.80681   0.01267  Uiso   1.00
O5     O     0.04452   0.15247   0.69849   0.01267  Uiso   1.00
O6     O     0.45168   0.21159   0.89845   0.01267  Uiso   1.00
O7     O     0.58972   0.03454   0.92662   0.01267  Uiso   1.00
O8     O     0.08526   0.16895   0.02533   0.01267  Uiso   1.00
O9     O     0.32438   0.06332   0.73912   0.01267  Uiso   1.00
O10    O     0.31290   0.54112   0.99888   0.01267  Uiso   1.00
O11    O     0.68793   0.67524   0.92850   0.01267  Uiso   1.00
O12    O     0.30031   0.08857   0.97589   0.01267  Uiso   1.00
O13    O     0.81200   0.90552   0.42788   0.01267  Uiso   1.00
O14    O     0.36437   0.68171   0.51523   0.01267  Uiso   1.00
O15    O     0.71150   0.51886   0.81434   0.01267  Uiso   1.00
O16    O     0.12372   0.34217   0.69319   0.01267  Uiso   1.00
O17    O     0.89548   0.34753   0.80151   0.01267  Uiso   1.00
O18    O     0.56172   0.28841   0.60155   0.01267  Uiso   1.00
O19    O     0.55088   0.46546   0.57338   0.01267  Uiso   1.00
O20    O     0.27954   0.33105   0.47467   0.01267  Uiso   1.00
O21    O     0.12682   0.43668   0.76088   0.01267  Uiso   1.00
O22    O     0.85290   0.95888   0.50112   0.01267  Uiso   1.00
O23    O     0.29167   0.82476   0.57150   0.01267  Uiso   1.00
O24    O     0.36477   0.41143   0.52411   0.01267  Uiso   1.00
O25    O     0.85460   0.40552   0.92788   0.01267  Uiso   1.00
O26    O     0.43869   0.18171   0.01523   0.01267  Uiso   1.00
O27    O     0.95530   0.01886   0.31434   0.01267  Uiso   1.00
O28    O     0.84092   0.84217   0.19319   0.01267  Uiso   1.00
O29    O     0.95548   0.84753   0.30151   0.01267  Uiso   1.00
O30    O     0.54832   0.78841   0.10155   0.01267  Uiso   1.00
O31    O     0.41028   0.96546   0.07338   0.01267  Uiso   1.00
O32    O     0.91474   0.83105   0.97467   0.01267  Uiso   1.00
O33    O     0.67562   0.93668   0.26088   0.01267  Uiso   1.00
O34    O     0.68710   0.45888   0.00112   0.01267  Uiso   1.00
O35    O     0.31207   0.32476   0.07150   0.01267  Uiso   1.00
O36    O     0.69969   0.91143   0.02411   0.01267  Uiso   1.00
O37    O     0.18800   0.09448   0.57212   0.01267  Uiso   1.00
O38    O     0.63563   0.31829   0.48477   0.01267  Uiso   1.00
O39    O     0.28850   0.48114   0.18566   0.01267  Uiso   1.00
O40    O     0.87628   0.65783   0.30681   0.01267  Uiso   1.00
O41    O     0.10452   0.65247   0.19849   0.01267  Uiso   1.00
O42    O     0.43828   0.71159   0.39845   0.01267  Uiso   1.00
O43    O     0.44912   0.53454   0.42662   0.01267  Uiso   1.00
O44    O     0.72046   0.66895   0.52533   0.01267  Uiso   1.00
O45    O     0.87318   0.56332   0.23912   0.01267  Uiso   1.00
O46    O     0.14710   0.04112   0.49888   0.01267  Uiso   1.00
O47    O     0.70833   0.17524   0.42850   0.01267  Uiso   1.00
O48    O     0.63523   0.58857   0.47589   0.01267  Uiso   1.00
