data_image0
_cell_length_a       28.598
_cell_length_b       28.598
_cell_length_c       17.074
_cell_angle_alpha    90
_cell_angle_beta     90
_cell_angle_gamma    90

_symmetry_space_group_name_H-M    "P 1"
_symmetry_int_tables_number       1

loop_
  _symmetry_equiv_pos_as_xyz
  'x, y, z'

loop_
  _atom_site_label
  _atom_site_occupancy
  _atom_site_fract_x
  _atom_site_fract_y
  _atom_site_fract_z
  _atom_site_thermal_displace_type
  _atom_site_B_iso_or_equiv
  _atom_site_type_symbol
  Zn1      1.0000 0.17720  0.06671  0.36751  Biso   1.000  Zn
  Zn2      1.0000 0.28121  0.12308  0.38132  Biso   1.000  Zn
  O1       1.0000 0.17637  0.22653  0.96880  Biso   1.000  O
  O2       1.0000 0.13208  0.21377  0.76860  Biso   1.000  O
  O3       1.0000 0.05381  0.29225  0.92320  Biso   1.000  O
  O4       1.0000 0.13898  0.34795  0.85880  Biso   1.000  O
  C1       1.0000 0.12808  0.26653  0.87830  Biso   1.000  C
  O5       1.0000 0.18796  0.10135  0.27260  Biso   1.000  O
  O6       1.0000 0.27495  0.52012  0.88520  Biso   1.000  O
  C2       1.0000 0.15270  0.19570  0.70150  Biso   1.000  C
  C3       1.0000 0.07606  0.27360  0.85450  Biso   1.000  C
  H1       1.0000 0.06190  0.24400  0.83950  Biso   1.000  H
  H2       1.0000 0.07350  0.29520  0.81100  Biso   1.000  H
  O7       1.0000 0.84150  0.34815  0.86940  Biso   1.000  O
  O8       1.0000 0.24564  0.14214  0.47190  Biso   1.000  O
  C4       1.0000 0.20693  0.47482  0.87250  Biso   1.000  C
  C5       1.0000 0.18650  0.15670  0.56440  Biso   1.000  C
  C6       1.0000 0.18284  0.20140  0.03670  Biso   1.000  C
  O9       1.0000 0.24901  0.14593  0.28780  Biso   1.000  O
  C7       1.0000 0.97810  0.29730  0.85730  Biso   1.000  C
  H3       1.0000 0.98850  0.28090  0.81370  Biso   1.000  H
  O10      1.0000 0.17641  0.10820  0.45750  Biso   1.000  O
  C8       1.0000 0.93285  0.31420  0.86100  Biso   1.000  C
  H4       1.0000 0.91330  0.30900  0.81840  Biso   1.000  H
  C9       1.0000 0.15010  0.31090  0.90840  Biso   1.000  C
  H5       1.0000 0.13870  0.31750  0.96080  Biso   1.000  H
  H6       1.0000 0.18380  0.30720  0.91100  Biso   1.000  H
  C10      1.0000 0.86600  0.35330  0.92760  Biso   1.000  C
  O11      1.0000 0.20755  0.55619  0.86430  Biso   1.000  O
  C11      1.0000 0.15530  0.25258  0.80410  Biso   1.000  C
  H7       1.0000 0.15640  0.27870  0.76790  Biso   1.000  H
  H8       1.0000 0.18710  0.24400  0.81780  Biso   1.000  H
  C12      1.0000 0.20410  0.15710  0.17720  Biso   1.000  C
  C13      1.0000 0.23710  0.18620  0.13900  Biso   1.000  C
  H9       1.0000 0.26660  0.18990  0.16090  Biso   1.000  H
  C14      1.0000 0.12930  0.22900  0.94000  Biso   1.000  C
  H10      1.0000 0.10800  0.23660  0.98230  Biso   1.000  H
  H11      1.0000 0.12010  0.19920  0.91770  Biso   1.000  H
  C15      1.0000 0.23160  0.51983  0.87430  Biso   1.000  C
  C16      1.0000 0.21430  0.13340  0.25100  Biso   1.000  C
  C17      1.0000 0.21210  0.18770  0.60560  Biso   1.000  C
  H12      1.0000 0.24150  0.19580  0.58690  Biso   1.000  H
  C18      1.0000 0.16320  0.38910  0.86660  Biso   1.000  C
  C19      1.0000 0.22890  0.43590  0.89820  Biso   1.000  C
  H13      1.0000 0.25920  0.43830  0.91790  Biso   1.000  H
  C20      1.0000 0.00710  0.30550  0.91940  Biso   1.000  C
  C21      1.0000 0.20410  0.13460  0.49240  Biso   1.000  C
  C22      1.0000 0.22670  0.20870  0.07160  Biso   1.000  C
  H14      1.0000 0.24830  0.22870  0.04860  Biso   1.000  H
  C23      1.0000 0.15120  0.17360  0.07100  Biso   1.000  C
  H15      1.0000 0.12230  0.16900  0.04710  Biso   1.000  H
  C24      1.0000 0.19620  0.20870  0.67650  Biso   1.000  C
  H16      1.0000 0.21440  0.23010  0.70420  Biso   1.000  H
  C25      1.0000 0.16060  0.15170  0.14070  Biso   1.000  C
  H17      1.0000 0.13780  0.13310  0.16400  Biso   1.000  H
  O12      1.0000 0.85200  0.37340  0.98380  Biso   1.000  O
  C26      1.0000 0.12450  0.16470  0.65980  Biso   1.000  C
  H18      1.0000 0.09470  0.15740  0.67770  Biso   1.000  H
  C27      1.0000 0.16330  0.47120  0.84100  Biso   1.000  C
  H19      1.0000 0.14860  0.49770  0.82120  Biso   1.000  H
  C28      1.0000 0.14140  0.14490  0.59150  Biso   1.000  C
  H20      1.0000 0.12300  0.12390  0.56340  Biso   1.000  H
  C29      1.0000 0.20710  0.39250  0.89560  Biso   1.000  C
  H21      1.0000 0.22260  0.36590  0.91370  Biso   1.000  H
  C30      1.0000 0.91620  0.33690  0.92060  Biso   1.000  C
  C31      1.0000 0.14080  0.42850  0.83810  Biso   1.000  C
  H22      1.0000 0.11080  0.42620  0.81720  Biso   1.000  H
  C32      1.0000 0.99120  0.32820  0.98080  Biso   1.000  C
  H23      1.0000 0.01160  0.33450  0.02190  Biso   1.000  H
  C33      1.0000 0.94720  0.34240  0.98620  Biso   1.000  C
  H24      1.0000 0.93640  0.35590  0.03240  Biso   1.000  H
  Zn3      1.0000 0.82280  0.93329  0.36751  Biso   1.000  Zn
  Zn4      1.0000 0.71879  0.87692  0.38132  Biso   1.000  Zn
  O13      1.0000 0.82363  0.77347  0.96880  Biso   1.000  O
  O14      1.0000 0.86792  0.78623  0.76860  Biso   1.000  O
  O15      1.0000 0.94619  0.70775  0.92320  Biso   1.000  O
  O16      1.0000 0.86102  0.65205  0.85880  Biso   1.000  O
  C34      1.0000 0.87192  0.73347  0.87830  Biso   1.000  C
  O17      1.0000 0.81204  0.89865  0.27260  Biso   1.000  O
  O18      1.0000 0.72505  0.47988  0.88520  Biso   1.000  O
  C35      1.0000 0.84730  0.80430  0.70150  Biso   1.000  C
  C36      1.0000 0.92394  0.72640  0.85450  Biso   1.000  C
  H25      1.0000 0.93810  0.75600  0.83950  Biso   1.000  H
  H26      1.0000 0.92650  0.70480  0.81100  Biso   1.000  H
  O19      1.0000 0.15850  0.65185  0.86940  Biso   1.000  O
  O20      1.0000 0.75436  0.85786  0.47190  Biso   1.000  O
  C37      1.0000 0.79307  0.52518  0.87250  Biso   1.000  C
  C38      1.0000 0.81350  0.84330  0.56440  Biso   1.000  C
  C39      1.0000 0.81716  0.79860  0.03670  Biso   1.000  C
  O21      1.0000 0.75099  0.85407  0.28780  Biso   1.000  O
  C40      1.0000 0.02190  0.70270  0.85730  Biso   1.000  C
  H27      1.0000 0.01150  0.71910  0.81370  Biso   1.000  H
  O22      1.0000 0.82359  0.89180  0.45750  Biso   1.000  O
  C41      1.0000 0.06715  0.68580  0.86100  Biso   1.000  C
  H28      1.0000 0.08670  0.69100  0.81840  Biso   1.000  H
  C42      1.0000 0.84990  0.68910  0.90840  Biso   1.000  C
  H29      1.0000 0.86130  0.68250  0.96080  Biso   1.000  H
  H30      1.0000 0.81620  0.69280  0.91100  Biso   1.000  H
  C43      1.0000 0.13400  0.64670  0.92760  Biso   1.000  C
  O23      1.0000 0.79245  0.44381  0.86430  Biso   1.000  O
  C44      1.0000 0.84470  0.74742  0.80410  Biso   1.000  C
  H31      1.0000 0.84360  0.72130  0.76790  Biso   1.000  H
  H32      1.0000 0.81290  0.75600  0.81780  Biso   1.000  H
  C45      1.0000 0.79590  0.84290  0.17720  Biso   1.000  C
  C46      1.0000 0.76290  0.81380  0.13900  Biso   1.000  C
  H33      1.0000 0.73340  0.81010  0.16090  Biso   1.000  H
  C47      1.0000 0.87070  0.77100  0.94000  Biso   1.000  C
  H34      1.0000 0.89200  0.76340  0.98230  Biso   1.000  H
  H35      1.0000 0.87990  0.80080  0.91770  Biso   1.000  H
  C48      1.0000 0.76840  0.48017  0.87430  Biso   1.000  C
  C49      1.0000 0.78570  0.86660  0.25100  Biso   1.000  C
  C50      1.0000 0.78790  0.81230  0.60560  Biso   1.000  C
  H36      1.0000 0.75850  0.80420  0.58690  Biso   1.000  H
  C51      1.0000 0.83680  0.61090  0.86660  Biso   1.000  C
  C52      1.0000 0.77110  0.56410  0.89820  Biso   1.000  C
  H37      1.0000 0.74080  0.56170  0.91790  Biso   1.000  H
  C53      1.0000 0.99290  0.69450  0.91940  Biso   1.000  C
  C54      1.0000 0.79590  0.86540  0.49240  Biso   1.000  C
  C55      1.0000 0.77330  0.79130  0.07160  Biso   1.000  C
  H38      1.0000 0.75170  0.77130  0.04860  Biso   1.000  H
  C56      1.0000 0.84880  0.82640  0.07100  Biso   1.000  C
  H39      1.0000 0.87770  0.83100  0.04710  Biso   1.000  H
  C57      1.0000 0.80380  0.79130  0.67650  Biso   1.000  C
  H40      1.0000 0.78560  0.76990  0.70420  Biso   1.000  H
  C58      1.0000 0.83940  0.84830  0.14070  Biso   1.000  C
  H41      1.0000 0.86220  0.86690  0.16400  Biso   1.000  H
  O24      1.0000 0.14800  0.62660  0.98380  Biso   1.000  O
  C59      1.0000 0.87550  0.83530  0.65980  Biso   1.000  C
  H42      1.0000 0.90530  0.84260  0.67770  Biso   1.000  H
  C60      1.0000 0.83670  0.52880  0.84100  Biso   1.000  C
  H43      1.0000 0.85140  0.50230  0.82120  Biso   1.000  H
  C61      1.0000 0.85860  0.85510  0.59150  Biso   1.000  C
  H44      1.0000 0.87700  0.87610  0.56340  Biso   1.000  H
  C62      1.0000 0.79290  0.60750  0.89560  Biso   1.000  C
  H45      1.0000 0.77740  0.63410  0.91370  Biso   1.000  H
  C63      1.0000 0.08380  0.66310  0.92060  Biso   1.000  C
  C64      1.0000 0.85920  0.57150  0.83810  Biso   1.000  C
  H46      1.0000 0.88920  0.57380  0.81720  Biso   1.000  H
  C65      1.0000 0.00880  0.67180  0.98080  Biso   1.000  C
  H47      1.0000 0.98840  0.66550  0.02190  Biso   1.000  H
  C66      1.0000 0.05280  0.65760  0.98620  Biso   1.000  C
  H48      1.0000 0.06360  0.64410  0.03240  Biso   1.000  H
  Zn5      1.0000 0.67720  0.43329  0.86751  Biso   1.000  Zn
  Zn6      1.0000 0.78121  0.37692  0.88132  Biso   1.000  Zn
  O25      1.0000 0.67637  0.27347  0.46880  Biso   1.000  O
  O26      1.0000 0.63208  0.28623  0.26860  Biso   1.000  O
  O27      1.0000 0.55381  0.20775  0.42320  Biso   1.000  O
  O28      1.0000 0.63898  0.15205  0.35880  Biso   1.000  O
  C67      1.0000 0.62808  0.23347  0.37830  Biso   1.000  C
  O29      1.0000 0.68796  0.39865  0.77260  Biso   1.000  O
  O30      1.0000 0.77495  0.97988  0.38520  Biso   1.000  O
  C68      1.0000 0.65270  0.30430  0.20150  Biso   1.000  C
  C69      1.0000 0.57606  0.22640  0.35450  Biso   1.000  C
  H49      1.0000 0.56190  0.25600  0.33950  Biso   1.000  H
  H50      1.0000 0.57350  0.20480  0.31100  Biso   1.000  H
  O31      1.0000 0.34150  0.15185  0.36940  Biso   1.000  O
  O32      1.0000 0.74564  0.35786  0.97190  Biso   1.000  O
  C70      1.0000 0.70693  0.02518  0.37250  Biso   1.000  C
  C71      1.0000 0.68650  0.34330  0.06440  Biso   1.000  C
  C72      1.0000 0.68284  0.29860  0.53670  Biso   1.000  C
  O33      1.0000 0.74901  0.35407  0.78780  Biso   1.000  O
  C73      1.0000 0.47810  0.20270  0.35730  Biso   1.000  C
  H51      1.0000 0.48850  0.21910  0.31370  Biso   1.000  H
  O34      1.0000 0.67641  0.39180  0.95750  Biso   1.000  O
  C74      1.0000 0.43285  0.18580  0.36100  Biso   1.000  C
  H52      1.0000 0.41330  0.19100  0.31840  Biso   1.000  H
  C75      1.0000 0.65010  0.18910  0.40840  Biso   1.000  C
  H53      1.0000 0.63870  0.18250  0.46080  Biso   1.000  H
  H54      1.0000 0.68380  0.19280  0.41100  Biso   1.000  H
  C76      1.0000 0.36600  0.14670  0.42760  Biso   1.000  C
  O35      1.0000 0.70755  0.94381  0.36430  Biso   1.000  O
  C77      1.0000 0.65530  0.24742  0.30410  Biso   1.000  C
  H55      1.0000 0.65640  0.22130  0.26790  Biso   1.000  H
  H56      1.0000 0.68710  0.25600  0.31780  Biso   1.000  H
  C78      1.0000 0.70410  0.34290  0.67720  Biso   1.000  C
  C79      1.0000 0.73710  0.31380  0.63900  Biso   1.000  C
  H57      1.0000 0.76660  0.31010  0.66090  Biso   1.000  H
  C80      1.0000 0.62930  0.27100  0.44000  Biso   1.000  C
  H58      1.0000 0.60800  0.26340  0.48230  Biso   1.000  H
  H59      1.0000 0.62010  0.30080  0.41770  Biso   1.000  H
  C81      1.0000 0.73160  0.98017  0.37430  Biso   1.000  C
  C82      1.0000 0.71430  0.36660  0.75100  Biso   1.000  C
  C83      1.0000 0.71210  0.31230  0.10560  Biso   1.000  C
  H60      1.0000 0.74150  0.30420  0.08690  Biso   1.000  H
  C84      1.0000 0.66320  0.11090  0.36660  Biso   1.000  C
  C85      1.0000 0.72890  0.06410  0.39820  Biso   1.000  C
  H61      1.0000 0.75920  0.06170  0.41790  Biso   1.000  H
  C86      1.0000 0.50710  0.19450  0.41940  Biso   1.000  C
  C87      1.0000 0.70410  0.36540  0.99240  Biso   1.000  C
  C88      1.0000 0.72670  0.29130  0.57160  Biso   1.000  C
  H62      1.0000 0.74830  0.27130  0.54860  Biso   1.000  H
  C89      1.0000 0.65120  0.32640  0.57100  Biso   1.000  C
  H63      1.0000 0.62230  0.33100  0.54710  Biso   1.000  H
  C90      1.0000 0.69620  0.29130  0.17650  Biso   1.000  C
  H64      1.0000 0.71440  0.26990  0.20420  Biso   1.000  H
  C91      1.0000 0.66060  0.34830  0.64070  Biso   1.000  C
  H65      1.0000 0.63780  0.36690  0.66400  Biso   1.000  H
  O36      1.0000 0.35200  0.12660  0.48380  Biso   1.000  O
  C92      1.0000 0.62450  0.33530  0.15980  Biso   1.000  C
  H66      1.0000 0.59470  0.34260  0.17770  Biso   1.000  H
  C93      1.0000 0.66330  0.02880  0.34100  Biso   1.000  C
  H67      1.0000 0.64860  0.00230  0.32120  Biso   1.000  H
  C94      1.0000 0.64140  0.35510  0.09150  Biso   1.000  C
  H68      1.0000 0.62300  0.37610  0.06340  Biso   1.000  H
  C95      1.0000 0.70710  0.10750  0.39560  Biso   1.000  C
  H69      1.0000 0.72260  0.13410  0.41370  Biso   1.000  H
  C96      1.0000 0.41620  0.16310  0.42060  Biso   1.000  C
  C97      1.0000 0.64080  0.07150  0.33810  Biso   1.000  C
  H70      1.0000 0.61080  0.07380  0.31720  Biso   1.000  H
  C98      1.0000 0.49120  0.17180  0.48080  Biso   1.000  C
  H71      1.0000 0.51160  0.16550  0.52190  Biso   1.000  H
  C99      1.0000 0.44720  0.15760  0.48620  Biso   1.000  C
  H72      1.0000 0.43640  0.14410  0.53240  Biso   1.000  H
  Zn7      1.0000 0.32280  0.56671  0.86751  Biso   1.000  Zn
  Zn8      1.0000 0.21879  0.62308  0.88132  Biso   1.000  Zn
  O37      1.0000 0.32363  0.72653  0.46880  Biso   1.000  O
  O38      1.0000 0.36792  0.71377  0.26860  Biso   1.000  O
  O39      1.0000 0.44619  0.79225  0.42320  Biso   1.000  O
  O40      1.0000 0.36102  0.84795  0.35880  Biso   1.000  O
  C100     1.0000 0.37192  0.76653  0.37830  Biso   1.000  C
  O41      1.0000 0.31204  0.60135  0.77260  Biso   1.000  O
  O42      1.0000 0.22505  0.02012  0.38520  Biso   1.000  O
  C101     1.0000 0.34730  0.69570  0.20150  Biso   1.000  C
  C102     1.0000 0.42394  0.77360  0.35450  Biso   1.000  C
  H73      1.0000 0.43810  0.74400  0.33950  Biso   1.000  H
  H74      1.0000 0.42650  0.79520  0.31100  Biso   1.000  H
  O43      1.0000 0.65850  0.84815  0.36940  Biso   1.000  O
  O44      1.0000 0.25436  0.64214  0.97190  Biso   1.000  O
  C103     1.0000 0.29307  0.97482  0.37250  Biso   1.000  C
  C104     1.0000 0.31350  0.65670  0.06440  Biso   1.000  C
  C105     1.0000 0.31716  0.70140  0.53670  Biso   1.000  C
  O45      1.0000 0.25099  0.64593  0.78780  Biso   1.000  O
  C106     1.0000 0.52190  0.79730  0.35730  Biso   1.000  C
  H75      1.0000 0.51150  0.78090  0.31370  Biso   1.000  H
  O46      1.0000 0.32359  0.60820  0.95750  Biso   1.000  O
  C107     1.0000 0.56715  0.81420  0.36100  Biso   1.000  C
  H76      1.0000 0.58670  0.80900  0.31840  Biso   1.000  H
  C108     1.0000 0.34990  0.81090  0.40840  Biso   1.000  C
  H77      1.0000 0.36130  0.81750  0.46080  Biso   1.000  H
  H78      1.0000 0.31620  0.80720  0.41100  Biso   1.000  H
  C109     1.0000 0.63400  0.85330  0.42760  Biso   1.000  C
  O47      1.0000 0.29245  0.05619  0.36430  Biso   1.000  O
  C110     1.0000 0.34470  0.75258  0.30410  Biso   1.000  C
  H79      1.0000 0.34360  0.77870  0.26790  Biso   1.000  H
  H80      1.0000 0.31290  0.74400  0.31780  Biso   1.000  H
  C111     1.0000 0.29590  0.65710  0.67720  Biso   1.000  C
  C112     1.0000 0.26290  0.68620  0.63900  Biso   1.000  C
  H81      1.0000 0.23340  0.68990  0.66090  Biso   1.000  H
  C113     1.0000 0.37070  0.72900  0.44000  Biso   1.000  C
  H82      1.0000 0.39200  0.73660  0.48230  Biso   1.000  H
  H83      1.0000 0.37990  0.69920  0.41770  Biso   1.000  H
  C114     1.0000 0.26840  0.01983  0.37430  Biso   1.000  C
  C115     1.0000 0.28570  0.63340  0.75100  Biso   1.000  C
  C116     1.0000 0.28790  0.68770  0.10560  Biso   1.000  C
  H84      1.0000 0.25850  0.69580  0.08690  Biso   1.000  H
  C117     1.0000 0.33680  0.88910  0.36660  Biso   1.000  C
  C118     1.0000 0.27110  0.93590  0.39820  Biso   1.000  C
  H85      1.0000 0.24080  0.93830  0.41790  Biso   1.000  H
  C119     1.0000 0.49290  0.80550  0.41940  Biso   1.000  C
  C120     1.0000 0.29590  0.63460  0.99240  Biso   1.000  C
  C121     1.0000 0.27330  0.70870  0.57160  Biso   1.000  C
  H86      1.0000 0.25170  0.72870  0.54860  Biso   1.000  H
  C122     1.0000 0.34880  0.67360  0.57100  Biso   1.000  C
  H87      1.0000 0.37770  0.66900  0.54710  Biso   1.000  H
  C123     1.0000 0.30380  0.70870  0.17650  Biso   1.000  C
  H88      1.0000 0.28560  0.73010  0.20420  Biso   1.000  H
  C124     1.0000 0.33940  0.65170  0.64070  Biso   1.000  C
  H89      1.0000 0.36220  0.63310  0.66400  Biso   1.000  H
  O48      1.0000 0.64800  0.87340  0.48380  Biso   1.000  O
  C125     1.0000 0.37550  0.66470  0.15980  Biso   1.000  C
  H90      1.0000 0.40530  0.65740  0.17770  Biso   1.000  H
  C126     1.0000 0.33670  0.97120  0.34100  Biso   1.000  C
  H91      1.0000 0.35140  0.99770  0.32120  Biso   1.000  H
  C127     1.0000 0.35860  0.64490  0.09150  Biso   1.000  C
  H92      1.0000 0.37700  0.62390  0.06340  Biso   1.000  H
  C128     1.0000 0.29290  0.89250  0.39560  Biso   1.000  C
  H93      1.0000 0.27740  0.86590  0.41370  Biso   1.000  H
  C129     1.0000 0.58380  0.83690  0.42060  Biso   1.000  C
  C130     1.0000 0.35920  0.92850  0.33810  Biso   1.000  C
  H94      1.0000 0.38920  0.92620  0.31720  Biso   1.000  H
  C131     1.0000 0.50880  0.82820  0.48080  Biso   1.000  C
  H95      1.0000 0.48840  0.83450  0.52190  Biso   1.000  H
  C132     1.0000 0.55280  0.84240  0.48620  Biso   1.000  C
  H96      1.0000 0.56360  0.85590  0.53240  Biso   1.000  H
  Zn9      1.0000 0.06671  0.82280  0.63249  Biso   1.000  Zn
  Zn10     1.0000 0.12308  0.71879  0.61868  Biso   1.000  Zn
  O49      1.0000 0.22653  0.82363  0.03120  Biso   1.000  O
  O50      1.0000 0.21377  0.86792  0.23140  Biso   1.000  O
  O51      1.0000 0.29225  0.94619  0.07680  Biso   1.000  O
  O52      1.0000 0.34795  0.86102  0.14120  Biso   1.000  O
  C133     1.0000 0.26653  0.87192  0.12170  Biso   1.000  C
  O53      1.0000 0.10135  0.81204  0.72740  Biso   1.000  O
  O54      1.0000 0.52012  0.72505  0.11480  Biso   1.000  O
  C134     1.0000 0.19570  0.84730  0.29850  Biso   1.000  C
  C135     1.0000 0.27360  0.92394  0.14550  Biso   1.000  C
  H97      1.0000 0.24400  0.93810  0.16050  Biso   1.000  H
  H98      1.0000 0.29520  0.92650  0.18900  Biso   1.000  H
  O55      1.0000 0.34815  0.15850  0.13060  Biso   1.000  O
  O56      1.0000 0.14214  0.75436  0.52810  Biso   1.000  O
  C136     1.0000 0.47482  0.79307  0.12750  Biso   1.000  C
  C137     1.0000 0.15670  0.81350  0.43560  Biso   1.000  C
  C138     1.0000 0.20140  0.81716  0.96330  Biso   1.000  C
  O57      1.0000 0.14593  0.75099  0.71220  Biso   1.000  O
  C139     1.0000 0.29730  0.02190  0.14270  Biso   1.000  C
  H99      1.0000 0.28090  0.01150  0.18630  Biso   1.000  H
  O58      1.0000 0.10820  0.82359  0.54250  Biso   1.000  O
  C140     1.0000 0.31420  0.06715  0.13900  Biso   1.000  C
  H100     1.0000 0.30900  0.08670  0.18160  Biso   1.000  H
  C141     1.0000 0.31090  0.84990  0.09160  Biso   1.000  C
  H101     1.0000 0.31750  0.86130  0.03920  Biso   1.000  H
  H102     1.0000 0.30720  0.81620  0.08900  Biso   1.000  H
  C142     1.0000 0.35330  0.13400  0.07240  Biso   1.000  C
  O59      1.0000 0.55619  0.79245  0.13570  Biso   1.000  O
  C143     1.0000 0.25258  0.84470  0.19590  Biso   1.000  C
  H103     1.0000 0.27870  0.84360  0.23210  Biso   1.000  H
  H104     1.0000 0.24400  0.81290  0.18220  Biso   1.000  H
  C144     1.0000 0.15710  0.79590  0.82280  Biso   1.000  C
  C145     1.0000 0.18620  0.76290  0.86100  Biso   1.000  C
  H105     1.0000 0.18990  0.73340  0.83910  Biso   1.000  H
  C146     1.0000 0.22900  0.87070  0.06000  Biso   1.000  C
  H106     1.0000 0.23660  0.89200  0.01770  Biso   1.000  H
  H107     1.0000 0.19920  0.87990  0.08230  Biso   1.000  H
  C147     1.0000 0.51983  0.76840  0.12570  Biso   1.000  C
  C148     1.0000 0.13340  0.78570  0.74900  Biso   1.000  C
  C149     1.0000 0.18770  0.78790  0.39440  Biso   1.000  C
  H108     1.0000 0.19580  0.75850  0.41310  Biso   1.000  H
  C150     1.0000 0.38910  0.83680  0.13340  Biso   1.000  C
  C151     1.0000 0.43590  0.77110  0.10180  Biso   1.000  C
  H109     1.0000 0.43830  0.74080  0.08210  Biso   1.000  H
  C152     1.0000 0.30550  0.99290  0.08060  Biso   1.000  C
  C153     1.0000 0.13460  0.79590  0.50760  Biso   1.000  C
  C154     1.0000 0.20870  0.77330  0.92840  Biso   1.000  C
  H110     1.0000 0.22870  0.75170  0.95140  Biso   1.000  H
  C155     1.0000 0.17360  0.84880  0.92900  Biso   1.000  C
  H111     1.0000 0.16900  0.87770  0.95290  Biso   1.000  H
  C156     1.0000 0.20870  0.80380  0.32350  Biso   1.000  C
  H112     1.0000 0.23010  0.78560  0.29580  Biso   1.000  H
  C157     1.0000 0.15170  0.83940  0.85930  Biso   1.000  C
  H113     1.0000 0.13310  0.86220  0.83600  Biso   1.000  H
  O60      1.0000 0.37340  0.14800  0.01620  Biso   1.000  O
  C158     1.0000 0.16470  0.87550  0.34020  Biso   1.000  C
  H114     1.0000 0.15740  0.90530  0.32230  Biso   1.000  H
  C159     1.0000 0.47120  0.83670  0.15900  Biso   1.000  C
  H115     1.0000 0.49770  0.85140  0.17880  Biso   1.000  H
  C160     1.0000 0.14490  0.85860  0.40850  Biso   1.000  C
  H116     1.0000 0.12390  0.87700  0.43660  Biso   1.000  H
  C161     1.0000 0.39250  0.79290  0.10440  Biso   1.000  C
  H117     1.0000 0.36590  0.77740  0.08630  Biso   1.000  H
  C162     1.0000 0.33690  0.08380  0.07940  Biso   1.000  C
  C163     1.0000 0.42850  0.85920  0.16190  Biso   1.000  C
  H118     1.0000 0.42620  0.88920  0.18280  Biso   1.000  H
  C164     1.0000 0.32820  0.00880  0.01920  Biso   1.000  C
  H119     1.0000 0.33450  0.98840  0.97810  Biso   1.000  H
  C165     1.0000 0.34240  0.05280  0.01380  Biso   1.000  C
  H120     1.0000 0.35590  0.06360  0.96760  Biso   1.000  H
  Zn11     1.0000 0.93329  0.17720  0.63249  Biso   1.000  Zn
  Zn12     1.0000 0.87692  0.28121  0.61868  Biso   1.000  Zn
  O61      1.0000 0.77347  0.17637  0.03120  Biso   1.000  O
  O62      1.0000 0.78623  0.13208  0.23140  Biso   1.000  O
  O63      1.0000 0.70775  0.05381  0.07680  Biso   1.000  O
  O64      1.0000 0.65205  0.13898  0.14120  Biso   1.000  O
  C166     1.0000 0.73347  0.12808  0.12170  Biso   1.000  C
  O65      1.0000 0.89865  0.18796  0.72740  Biso   1.000  O
  O66      1.0000 0.47988  0.27495  0.11480  Biso   1.000  O
  C167     1.0000 0.80430  0.15270  0.29850  Biso   1.000  C
  C168     1.0000 0.72640  0.07606  0.14550  Biso   1.000  C
  H121     1.0000 0.75600  0.06190  0.16050  Biso   1.000  H
  H122     1.0000 0.70480  0.07350  0.18900  Biso   1.000  H
  O67      1.0000 0.65185  0.84150  0.13060  Biso   1.000  O
  O68      1.0000 0.85786  0.24564  0.52810  Biso   1.000  O
  C169     1.0000 0.52518  0.20693  0.12750  Biso   1.000  C
  C170     1.0000 0.84330  0.18650  0.43560  Biso   1.000  C
  C171     1.0000 0.79860  0.18284  0.96330  Biso   1.000  C
  O69      1.0000 0.85407  0.24901  0.71220  Biso   1.000  O
  C172     1.0000 0.70270  0.97810  0.14270  Biso   1.000  C
  H123     1.0000 0.71910  0.98850  0.18630  Biso   1.000  H
  O70      1.0000 0.89180  0.17641  0.54250  Biso   1.000  O
  C173     1.0000 0.68580  0.93285  0.13900  Biso   1.000  C
  H124     1.0000 0.69100  0.91330  0.18160  Biso   1.000  H
  C174     1.0000 0.68910  0.15010  0.09160  Biso   1.000  C
  H125     1.0000 0.68250  0.13870  0.03920  Biso   1.000  H
  H126     1.0000 0.69280  0.18380  0.08900  Biso   1.000  H
  C175     1.0000 0.64670  0.86600  0.07240  Biso   1.000  C
  O71      1.0000 0.44381  0.20755  0.13570  Biso   1.000  O
  C176     1.0000 0.74742  0.15530  0.19590  Biso   1.000  C
  H127     1.0000 0.72130  0.15640  0.23210  Biso   1.000  H
  H128     1.0000 0.75600  0.18710  0.18220  Biso   1.000  H
  C177     1.0000 0.84290  0.20410  0.82280  Biso   1.000  C
  C178     1.0000 0.81380  0.23710  0.86100  Biso   1.000  C
  H129     1.0000 0.81010  0.26660  0.83910  Biso   1.000  H
  C179     1.0000 0.77100  0.12930  0.06000  Biso   1.000  C
  H130     1.0000 0.76340  0.10800  0.01770  Biso   1.000  H
  H131     1.0000 0.80080  0.12010  0.08230  Biso   1.000  H
  C180     1.0000 0.48017  0.23160  0.12570  Biso   1.000  C
  C181     1.0000 0.86660  0.21430  0.74900  Biso   1.000  C
  C182     1.0000 0.81230  0.21210  0.39440  Biso   1.000  C
  H132     1.0000 0.80420  0.24150  0.41310  Biso   1.000  H
  C183     1.0000 0.61090  0.16320  0.13340  Biso   1.000  C
  C184     1.0000 0.56410  0.22890  0.10180  Biso   1.000  C
  H133     1.0000 0.56170  0.25920  0.08210  Biso   1.000  H
  C185     1.0000 0.69450  0.00710  0.08060  Biso   1.000  C
  C186     1.0000 0.86540  0.20410  0.50760  Biso   1.000  C
  C187     1.0000 0.79130  0.22670  0.92840  Biso   1.000  C
  H134     1.0000 0.77130  0.24830  0.95140  Biso   1.000  H
  C188     1.0000 0.82640  0.15120  0.92900  Biso   1.000  C
  H135     1.0000 0.83100  0.12230  0.95290  Biso   1.000  H
  C189     1.0000 0.79130  0.19620  0.32350  Biso   1.000  C
  H136     1.0000 0.76990  0.21440  0.29580  Biso   1.000  H
  C190     1.0000 0.84830  0.16060  0.85930  Biso   1.000  C
  H137     1.0000 0.86690  0.13780  0.83600  Biso   1.000  H
  O72      1.0000 0.62660  0.85200  0.01620  Biso   1.000  O
  C191     1.0000 0.83530  0.12450  0.34020  Biso   1.000  C
  H138     1.0000 0.84260  0.09470  0.32230  Biso   1.000  H
  C192     1.0000 0.52880  0.16330  0.15900  Biso   1.000  C
  H139     1.0000 0.50230  0.14860  0.17880  Biso   1.000  H
  C193     1.0000 0.85510  0.14140  0.40850  Biso   1.000  C
  H140     1.0000 0.87610  0.12300  0.43660  Biso   1.000  H
  C194     1.0000 0.60750  0.20710  0.10440  Biso   1.000  C
  H141     1.0000 0.63410  0.22260  0.08630  Biso   1.000  H
  C195     1.0000 0.66310  0.91620  0.07940  Biso   1.000  C
  C196     1.0000 0.57150  0.14080  0.16190  Biso   1.000  C
  H142     1.0000 0.57380  0.11080  0.18280  Biso   1.000  H
  C197     1.0000 0.67180  0.99120  0.01920  Biso   1.000  C
  H143     1.0000 0.66550  0.01160  0.97810  Biso   1.000  H
  C198     1.0000 0.65760  0.94720  0.01380  Biso   1.000  C
  H144     1.0000 0.64410  0.93640  0.96760  Biso   1.000  H
  Zn13     1.0000 0.56671  0.67720  0.13249  Biso   1.000  Zn
  Zn14     1.0000 0.62308  0.78121  0.11868  Biso   1.000  Zn
  O73      1.0000 0.72653  0.67637  0.53120  Biso   1.000  O
  O74      1.0000 0.71377  0.63208  0.73140  Biso   1.000  O
  O75      1.0000 0.79225  0.55381  0.57680  Biso   1.000  O
  O76      1.0000 0.84795  0.63898  0.64120  Biso   1.000  O
  C199     1.0000 0.76653  0.62808  0.62170  Biso   1.000  C
  O77      1.0000 0.60135  0.68796  0.22740  Biso   1.000  O
  O78      1.0000 0.02012  0.77495  0.61480  Biso   1.000  O
  C200     1.0000 0.69570  0.65270  0.79850  Biso   1.000  C
  C201     1.0000 0.77360  0.57606  0.64550  Biso   1.000  C
  H145     1.0000 0.74400  0.56190  0.66050  Biso   1.000  H
  H146     1.0000 0.79520  0.57350  0.68900  Biso   1.000  H
  O79      1.0000 0.84815  0.34150  0.63060  Biso   1.000  O
  O80      1.0000 0.64214  0.74564  0.02810  Biso   1.000  O
  C202     1.0000 0.97482  0.70693  0.62750  Biso   1.000  C
  C203     1.0000 0.65670  0.68650  0.93560  Biso   1.000  C
  C204     1.0000 0.70140  0.68284  0.46330  Biso   1.000  C
  O81      1.0000 0.64593  0.74901  0.21220  Biso   1.000  O
  C205     1.0000 0.79730  0.47810  0.64270  Biso   1.000  C
  H147     1.0000 0.78090  0.48850  0.68630  Biso   1.000  H
  O82      1.0000 0.60820  0.67641  0.04250  Biso   1.000  O
  C206     1.0000 0.81420  0.43285  0.63900  Biso   1.000  C
  H148     1.0000 0.80900  0.41330  0.68160  Biso   1.000  H
  C207     1.0000 0.81090  0.65010  0.59160  Biso   1.000  C
  H149     1.0000 0.81750  0.63870  0.53920  Biso   1.000  H
  H150     1.0000 0.80720  0.68380  0.58900  Biso   1.000  H
  C208     1.0000 0.85330  0.36600  0.57240  Biso   1.000  C
  O83      1.0000 0.05619  0.70755  0.63570  Biso   1.000  O
  C209     1.0000 0.75258  0.65530  0.69590  Biso   1.000  C
  H151     1.0000 0.77870  0.65640  0.73210  Biso   1.000  H
  H152     1.0000 0.74400  0.68710  0.68220  Biso   1.000  H
  C210     1.0000 0.65710  0.70410  0.32280  Biso   1.000  C
  C211     1.0000 0.68620  0.73710  0.36100  Biso   1.000  C
  H153     1.0000 0.68990  0.76660  0.33910  Biso   1.000  H
  C212     1.0000 0.72900  0.62930  0.56000  Biso   1.000  C
  H154     1.0000 0.73660  0.60800  0.51770  Biso   1.000  H
  H155     1.0000 0.69920  0.62010  0.58230  Biso   1.000  H
  C213     1.0000 0.01983  0.73160  0.62570  Biso   1.000  C
  C214     1.0000 0.63340  0.71430  0.24900  Biso   1.000  C
  C215     1.0000 0.68770  0.71210  0.89440  Biso   1.000  C
  H156     1.0000 0.69580  0.74150  0.91310  Biso   1.000  H
  C216     1.0000 0.88910  0.66320  0.63340  Biso   1.000  C
  C217     1.0000 0.93590  0.72890  0.60180  Biso   1.000  C
  H157     1.0000 0.93830  0.75920  0.58210  Biso   1.000  H
  C218     1.0000 0.80550  0.50710  0.58060  Biso   1.000  C
  C219     1.0000 0.63460  0.70410  0.00760  Biso   1.000  C
  C220     1.0000 0.70870  0.72670  0.42840  Biso   1.000  C
  H158     1.0000 0.72870  0.74830  0.45140  Biso   1.000  H
  C221     1.0000 0.67360  0.65120  0.42900  Biso   1.000  C
  H159     1.0000 0.66900  0.62230  0.45290  Biso   1.000  H
  C222     1.0000 0.70870  0.69620  0.82350  Biso   1.000  C
  H160     1.0000 0.73010  0.71440  0.79580  Biso   1.000  H
  C223     1.0000 0.65170  0.66060  0.35930  Biso   1.000  C
  H161     1.0000 0.63310  0.63780  0.33600  Biso   1.000  H
  O84      1.0000 0.87340  0.35200  0.51620  Biso   1.000  O
  C224     1.0000 0.66470  0.62450  0.84020  Biso   1.000  C
  H162     1.0000 0.65740  0.59470  0.82230  Biso   1.000  H
  C225     1.0000 0.97120  0.66330  0.65900  Biso   1.000  C
  H163     1.0000 0.99770  0.64860  0.67880  Biso   1.000  H
  C226     1.0000 0.64490  0.64140  0.90850  Biso   1.000  C
  H164     1.0000 0.62390  0.62300  0.93660  Biso   1.000  H
  C227     1.0000 0.89250  0.70710  0.60440  Biso   1.000  C
  H165     1.0000 0.86590  0.72260  0.58630  Biso   1.000  H
  C228     1.0000 0.83690  0.41620  0.57940  Biso   1.000  C
  C229     1.0000 0.92850  0.64080  0.66190  Biso   1.000  C
  H166     1.0000 0.92620  0.61080  0.68280  Biso   1.000  H
  C230     1.0000 0.82820  0.49120  0.51920  Biso   1.000  C
  H167     1.0000 0.83450  0.51160  0.47810  Biso   1.000  H
  C231     1.0000 0.84240  0.44720  0.51380  Biso   1.000  C
  H168     1.0000 0.85590  0.43640  0.46760  Biso   1.000  H
  Zn15     1.0000 0.43329  0.32280  0.13249  Biso   1.000  Zn
  Zn16     1.0000 0.37692  0.21879  0.11868  Biso   1.000  Zn
  O85      1.0000 0.27347  0.32363  0.53120  Biso   1.000  O
  O86      1.0000 0.28623  0.36792  0.73140  Biso   1.000  O
  O87      1.0000 0.20775  0.44619  0.57680  Biso   1.000  O
  O88      1.0000 0.15205  0.36102  0.64120  Biso   1.000  O
  C232     1.0000 0.23347  0.37192  0.62170  Biso   1.000  C
  O89      1.0000 0.39865  0.31204  0.22740  Biso   1.000  O
  O90      1.0000 0.97988  0.22505  0.61480  Biso   1.000  O
  C233     1.0000 0.30430  0.34730  0.79850  Biso   1.000  C
  C234     1.0000 0.22640  0.42394  0.64550  Biso   1.000  C
  H169     1.0000 0.25600  0.43810  0.66050  Biso   1.000  H
  H170     1.0000 0.20480  0.42650  0.68900  Biso   1.000  H
  O91      1.0000 0.15185  0.65850  0.63060  Biso   1.000  O
  O92      1.0000 0.35786  0.25436  0.02810  Biso   1.000  O
  C235     1.0000 0.02518  0.29307  0.62750  Biso   1.000  C
  C236     1.0000 0.34330  0.31350  0.93560  Biso   1.000  C
  C237     1.0000 0.29860  0.31716  0.46330  Biso   1.000  C
  O93      1.0000 0.35407  0.25099  0.21220  Biso   1.000  O
  C238     1.0000 0.20270  0.52190  0.64270  Biso   1.000  C
  H171     1.0000 0.21910  0.51150  0.68630  Biso   1.000  H
  O94      1.0000 0.39180  0.32359  0.04250  Biso   1.000  O
  C239     1.0000 0.18580  0.56715  0.63900  Biso   1.000  C
  H172     1.0000 0.19100  0.58670  0.68160  Biso   1.000  H
  C240     1.0000 0.18910  0.34990  0.59160  Biso   1.000  C
  H173     1.0000 0.18250  0.36130  0.53920  Biso   1.000  H
  H174     1.0000 0.19280  0.31620  0.58900  Biso   1.000  H
  C241     1.0000 0.14670  0.63400  0.57240  Biso   1.000  C
  O95      1.0000 0.94381  0.29245  0.63570  Biso   1.000  O
  C242     1.0000 0.24742  0.34470  0.69590  Biso   1.000  C
  H175     1.0000 0.22130  0.34360  0.73210  Biso   1.000  H
  H176     1.0000 0.25600  0.31290  0.68220  Biso   1.000  H
  C243     1.0000 0.34290  0.29590  0.32280  Biso   1.000  C
  C244     1.0000 0.31380  0.26290  0.36100  Biso   1.000  C
  H177     1.0000 0.31010  0.23340  0.33910  Biso   1.000  H
  C245     1.0000 0.27100  0.37070  0.56000  Biso   1.000  C
  H178     1.0000 0.26340  0.39200  0.51770  Biso   1.000  H
  H179     1.0000 0.30080  0.37990  0.58230  Biso   1.000  H
  C246     1.0000 0.98017  0.26840  0.62570  Biso   1.000  C
  C247     1.0000 0.36660  0.28570  0.24900  Biso   1.000  C
  C248     1.0000 0.31230  0.28790  0.89440  Biso   1.000  C
  H180     1.0000 0.30420  0.25850  0.91310  Biso   1.000  H
  C249     1.0000 0.11090  0.33680  0.63340  Biso   1.000  C
  C250     1.0000 0.06410  0.27110  0.60180  Biso   1.000  C
  H181     1.0000 0.06170  0.24080  0.58210  Biso   1.000  H
  C251     1.0000 0.19450  0.49290  0.58060  Biso   1.000  C
  C252     1.0000 0.36540  0.29590  0.00760  Biso   1.000  C
  C253     1.0000 0.29130  0.27330  0.42840  Biso   1.000  C
  H182     1.0000 0.27130  0.25170  0.45140  Biso   1.000  H
  C254     1.0000 0.32640  0.34880  0.42900  Biso   1.000  C
  H183     1.0000 0.33100  0.37770  0.45290  Biso   1.000  H
  C255     1.0000 0.29130  0.30380  0.82350  Biso   1.000  C
  H184     1.0000 0.26990  0.28560  0.79580  Biso   1.000  H
  C256     1.0000 0.34830  0.33940  0.35930  Biso   1.000  C
  H185     1.0000 0.36690  0.36220  0.33600  Biso   1.000  H
  O96      1.0000 0.12660  0.64800  0.51620  Biso   1.000  O
  C257     1.0000 0.33530  0.37550  0.84020  Biso   1.000  C
  H186     1.0000 0.34260  0.40530  0.82230  Biso   1.000  H
  C258     1.0000 0.02880  0.33670  0.65900  Biso   1.000  C
  H187     1.0000 0.00230  0.35140  0.67880  Biso   1.000  H
  C259     1.0000 0.35510  0.35860  0.90850  Biso   1.000  C
  H188     1.0000 0.37610  0.37700  0.93660  Biso   1.000  H
  C260     1.0000 0.10750  0.29290  0.60440  Biso   1.000  C
  H189     1.0000 0.13410  0.27740  0.58630  Biso   1.000  H
  C261     1.0000 0.16310  0.58380  0.57940  Biso   1.000  C
  C262     1.0000 0.07150  0.35920  0.66190  Biso   1.000  C
  H190     1.0000 0.07380  0.38920  0.68280  Biso   1.000  H
  C263     1.0000 0.17180  0.50880  0.51920  Biso   1.000  C
  H191     1.0000 0.16550  0.48840  0.47810  Biso   1.000  H
  C264     1.0000 0.15760  0.55280  0.51380  Biso   1.000  C
  H192     1.0000 0.14410  0.56360  0.46760  Biso   1.000  H
