data_GAWMOI_clean
_audit_creation_date              2014-07-02
_audit_creation_method            'Materials Studio'
_symmetry_space_group_name_H-M    'P1'
_symmetry_Int_Tables_number       1
_symmetry_cell_setting            triclinic
loop_
_symmetry_equiv_pos_as_xyz
  x,y,z
_cell_length_a                    6.0783
_cell_length_b                    8.6457
_cell_length_c                    16.1954
_cell_angle_alpha                 77.8010
_cell_angle_beta                  88.3510
_cell_angle_gamma                 83.6370
loop_
_atom_site_label
_atom_site_type_symbol
_atom_site_fract_x
_atom_site_fract_y
_atom_site_fract_z
_atom_site_U_iso_or_equiv
_atom_site_adp_type
_atom_site_occupancy
Tb1    Tb    0.88010   0.10263   0.21809   0.01267  Uiso   1.00
Tb2    Tb    0.11990   0.89737   0.78191   0.01267  Uiso   1.00
H1     H     0.43160   0.48960   0.14250   0.01267  Uiso   1.00
H2     H     0.27670   0.46650   0.01690   0.01267  Uiso   1.00
H3     H     0.12740   0.75790   0.08410   0.01267  Uiso   1.00
H4     H     0.81220   0.91150   0.00510   0.01267  Uiso   1.00
H5     H     0.85670   0.01930   0.46190   0.01267  Uiso   1.00
H6     H     0.54500   0.14500   0.51990   0.01267  Uiso   1.00
H7     H     0.56840   0.51040   0.85750   0.01267  Uiso   1.00
H8     H     0.72330   0.53350   0.98310   0.01267  Uiso   1.00
H9     H     0.87260   0.24210   0.91590   0.01267  Uiso   1.00
H10    H     0.18780   0.08850   0.99490   0.01267  Uiso   1.00
H11    H     0.14330   0.98070   0.53810   0.01267  Uiso   1.00
H12    H     0.45500   0.85500   0.48010   0.01267  Uiso   1.00
C1     C     0.36870   0.25340   0.16550   0.01267  Uiso   1.00
C2     C     0.48510   0.39640   0.11920   0.01267  Uiso   1.00
C3     C     0.43540   0.43340   0.02480   0.01267  Uiso   1.00
C4     C     0.85730   0.77030   0.16440   0.01267  Uiso   1.00
C5     C     0.03400   0.84110   0.10530   0.01267  Uiso   1.00
C6     C     0.91850   0.96180   0.03240   0.01267  Uiso   1.00
C7     C     0.80020   0.24330   0.38770   0.01267  Uiso   1.00
C8     C     0.73690   0.07660   0.42460   0.01267  Uiso   1.00
C9     C     0.52490   0.08260   0.47730   0.01267  Uiso   1.00
C10    C     0.63130   0.74660   0.83450   0.01267  Uiso   1.00
C11    C     0.51490   0.60360   0.88080   0.01267  Uiso   1.00
C12    C     0.56460   0.56660   0.97520   0.01267  Uiso   1.00
C13    C     0.14270   0.22970   0.83560   0.01267  Uiso   1.00
C14    C     0.96600   0.15890   0.89470   0.01267  Uiso   1.00
C15    C     0.08150   0.03820   0.96760   0.01267  Uiso   1.00
C16    C     0.19980   0.75670   0.61230   0.01267  Uiso   1.00
C17    C     0.26310   0.92340   0.57540   0.01267  Uiso   1.00
C18    C     0.47510   0.91740   0.52270   0.01267  Uiso   1.00
O1     O     0.48970   0.13520   0.20480   0.01267  Uiso   1.00
O2     O     0.16130   0.26630   0.16200   0.01267  Uiso   1.00
O3     O     0.71680   0.36060   0.13400   0.01267  Uiso   1.00
O4     O     0.49040   0.29170   0.99270   0.01267  Uiso   1.00
O5     O     0.81010   0.83010   0.22800   0.01267  Uiso   1.00
O6     O     0.76420   0.66050   0.14540   0.01267  Uiso   1.00
O7     O     0.16460   0.92950   0.14640   0.01267  Uiso   1.00
O8     O     0.80510   0.08140   0.07240   0.01267  Uiso   1.00
O9     O     0.84780   0.27670   0.30960   0.01267  Uiso   1.00
O10    O     0.80630   0.33400   0.43670   0.01267  Uiso   1.00
O11    O     0.71720   0.99210   0.35840   0.01267  Uiso   1.00
O12    O     0.34300   0.15830   0.42640   0.01267  Uiso   1.00
O13    O     0.51030   0.86480   0.79520   0.01267  Uiso   1.00
O14    O     0.83870   0.73370   0.83800   0.01267  Uiso   1.00
O15    O     0.28320   0.63940   0.86600   0.01267  Uiso   1.00
O16    O     0.50960   0.70830   0.00730   0.01267  Uiso   1.00
O17    O     0.18990   0.16990   0.77200   0.01267  Uiso   1.00
O18    O     0.23580   0.33950   0.85460   0.01267  Uiso   1.00
O19    O     0.83540   0.07050   0.85360   0.01267  Uiso   1.00
O20    O     0.19490   0.91860   0.92760   0.01267  Uiso   1.00
O21    O     0.15220   0.72330   0.69040   0.01267  Uiso   1.00
O22    O     0.19370   0.66600   0.56330   0.01267  Uiso   1.00
O23    O     0.28280   0.00790   0.64160   0.01267  Uiso   1.00
O24    O     0.65700   0.84170   0.57360   0.01267  Uiso   1.00
