data_GAXDIS10_clean
_audit_creation_date              2014-07-02
_audit_creation_method            'Materials Studio'
_symmetry_space_group_name_H-M    'P1'
_symmetry_Int_Tables_number       1
_symmetry_cell_setting            triclinic
loop_
_symmetry_equiv_pos_as_xyz
  x,y,z
_cell_length_a                    8.7210
_cell_length_b                    11.0260
_cell_length_c                    13.5400
_cell_angle_alpha                 90.0000
_cell_angle_beta                  90.0000
_cell_angle_gamma                 90.0000
loop_
_atom_site_label
_atom_site_type_symbol
_atom_site_fract_x
_atom_site_fract_y
_atom_site_fract_z
_atom_site_U_iso_or_equiv
_atom_site_adp_type
_atom_site_occupancy
Cd1    Cd    0.00000   0.76768   0.00000   0.01267  Uiso   1.00
Cd2    Cd    0.50000   0.23232   0.50000   0.01267  Uiso   1.00
Cd3    Cd    0.50000   0.06947   0.10251   0.01267  Uiso   1.00
Cd4    Cd    0.50000   0.48663   0.86465   0.01267  Uiso   1.00
Cd5    Cd    0.00000   0.93053   0.60251   0.01267  Uiso   1.00
Cd6    Cd    0.00000   0.51337   0.36465   0.01267  Uiso   1.00
C1     C     0.70850   0.95880   0.06560   0.01267  Uiso   1.00
C2     C     0.70860   0.58180   0.91270   0.01267  Uiso   1.00
C3     C     0.79150   0.04120   0.56560   0.01267  Uiso   1.00
C4     C     0.79140   0.41820   0.41270   0.01267  Uiso   1.00
C5     C     0.20850   0.04120   0.56560   0.01267  Uiso   1.00
C6     C     0.20860   0.41820   0.41270   0.01267  Uiso   1.00
C7     C     0.29150   0.95880   0.06560   0.01267  Uiso   1.00
C8     C     0.29140   0.58180   0.91270   0.01267  Uiso   1.00
C9     C     0.00000   0.88110   0.75940   0.01267  Uiso   1.00
C10    C     0.00000   0.61610   0.22300   0.01267  Uiso   1.00
C11    C     0.50000   0.11890   0.25940   0.01267  Uiso   1.00
C12    C     0.50000   0.38390   0.72300   0.01267  Uiso   1.00
C13    C     0.50000   0.24400   0.01790   0.01267  Uiso   1.00
C14    C     0.50000   0.32590   0.96820   0.01267  Uiso   1.00
C15    C     0.00000   0.75600   0.51790   0.01267  Uiso   1.00
C16    C     0.00000   0.67410   0.46820   0.01267  Uiso   1.00
N1     N     0.80930   0.89980   0.04600   0.01267  Uiso   1.00
N2     N     0.80870   0.63470   0.94170   0.01267  Uiso   1.00
N3     N     0.69070   0.10020   0.54600   0.01267  Uiso   1.00
N4     N     0.69130   0.36530   0.44170   0.01267  Uiso   1.00
N5     N     0.30930   0.10020   0.54600   0.01267  Uiso   1.00
N6     N     0.30870   0.36530   0.44170   0.01267  Uiso   1.00
N7     N     0.19070   0.89980   0.04600   0.01267  Uiso   1.00
N8     N     0.19130   0.63470   0.94170   0.01267  Uiso   1.00
N9     N     0.00000   0.85070   0.83850   0.01267  Uiso   1.00
N10    N     0.00000   0.66630   0.14920   0.01267  Uiso   1.00
N11    N     0.50000   0.14930   0.33850   0.01267  Uiso   1.00
N12    N     0.50000   0.33370   0.64920   0.01267  Uiso   1.00
