data_GAXGOD_clean
_audit_creation_date              2014-07-02
_audit_creation_method            'Materials Studio'
_symmetry_space_group_name_H-M    'P1'
_symmetry_Int_Tables_number       1
_symmetry_cell_setting            triclinic
loop_
_symmetry_equiv_pos_as_xyz
  x,y,z
_cell_length_a                    11.2962
_cell_length_b                    11.2962
_cell_length_c                    25.8544
_cell_angle_alpha                 90.1749
_cell_angle_beta                  90.1749
_cell_angle_gamma                 95.4263
loop_
_atom_site_label
_atom_site_type_symbol
_atom_site_fract_x
_atom_site_fract_y
_atom_site_fract_z
_atom_site_U_iso_or_equiv
_atom_site_adp_type
_atom_site_occupancy
Mn1    Mn    0.65336   0.29608   0.99899   0.01267  Uiso   1.00
Mn2    Mn    0.70392   0.34664   0.50101   0.01267  Uiso   1.00
Mn3    Mn    0.34664   0.70392   0.00101   0.01267  Uiso   1.00
Mn4    Mn    0.29608   0.65336   0.49899   0.01267  Uiso   1.00
Mn5    Mn    0.00000   0.50000   0.50000   0.01267  Uiso   1.00
Mn6    Mn    0.50000   0.00000   0.00000   0.01267  Uiso   1.00
H1     H     0.28940   0.11000   0.12360   0.01267  Uiso   1.00
H2     H     0.15280   0.16300   0.18460   0.01267  Uiso   1.00
H3     H     0.26520   0.50560   0.16470   0.01267  Uiso   1.00
H4     H     0.40550   0.45330   0.10540   0.01267  Uiso   1.00
H5     H     0.31320   0.38240   0.26280   0.01267  Uiso   1.00
H6     H     0.35240   0.45320   0.34570   0.01267  Uiso   1.00
H7     H     0.01330   0.52270   0.36080   0.01267  Uiso   1.00
H8     H     0.97410   0.45390   0.27730   0.01267  Uiso   1.00
H9     H     0.76440   0.19240   0.36710   0.01267  Uiso   1.00
H10    H     0.78230   0.09010   0.29050   0.01267  Uiso   1.00
H11    H     0.13740   0.12480   0.30750   0.01267  Uiso   1.00
H12    H     0.11720   0.22500   0.38500   0.01267  Uiso   1.00
H13    H     0.61740   0.55900   0.04670   0.01267  Uiso   1.00
H14    H     0.69850   0.75430   0.04190   0.01267  Uiso   1.00
H15    H     0.86580   0.80000   0.99250   0.01267  Uiso   1.00
H16    H     0.02860   0.72720   0.93530   0.01267  Uiso   1.00
H17    H     0.10030   0.57870   0.89090   0.01267  Uiso   1.00
H18    H     0.08320   0.35960   0.86650   0.01267  Uiso   1.00
H19    H     0.98720   0.17320   0.87590   0.01267  Uiso   1.00
H20    H     0.82120   0.14540   0.92870   0.01267  Uiso   1.00
H21    H     0.89000   0.71060   0.37640   0.01267  Uiso   1.00
H22    H     0.83700   0.84720   0.31540   0.01267  Uiso   1.00
H23    H     0.49440   0.73480   0.33530   0.01267  Uiso   1.00
H24    H     0.54670   0.59450   0.39460   0.01267  Uiso   1.00
H25    H     0.61760   0.68680   0.23720   0.01267  Uiso   1.00
H26    H     0.54680   0.64760   0.15430   0.01267  Uiso   1.00
H27    H     0.47730   0.98670   0.13920   0.01267  Uiso   1.00
H28    H     0.54610   0.02590   0.22270   0.01267  Uiso   1.00
H29    H     0.80760   0.23560   0.13290   0.01267  Uiso   1.00
H30    H     0.90990   0.21770   0.20950   0.01267  Uiso   1.00
H31    H     0.87520   0.86260   0.19250   0.01267  Uiso   1.00
H32    H     0.77500   0.88280   0.11500   0.01267  Uiso   1.00
H33    H     0.44100   0.38260   0.45330   0.01267  Uiso   1.00
H34    H     0.24570   0.30150   0.45810   0.01267  Uiso   1.00
H35    H     0.20000   0.13420   0.50750   0.01267  Uiso   1.00
H36    H     0.27280   0.97140   0.56470   0.01267  Uiso   1.00
H37    H     0.42130   0.89970   0.60910   0.01267  Uiso   1.00
H38    H     0.64040   0.91680   0.63350   0.01267  Uiso   1.00
H39    H     0.82680   0.01280   0.62410   0.01267  Uiso   1.00
H40    H     0.85460   0.17880   0.57130   0.01267  Uiso   1.00
H41    H     0.71060   0.89000   0.87640   0.01267  Uiso   1.00
H42    H     0.84720   0.83700   0.81540   0.01267  Uiso   1.00
H43    H     0.73480   0.49440   0.83530   0.01267  Uiso   1.00
H44    H     0.59450   0.54670   0.89460   0.01267  Uiso   1.00
H45    H     0.68680   0.61760   0.73720   0.01267  Uiso   1.00
H46    H     0.64760   0.54680   0.65430   0.01267  Uiso   1.00
H47    H     0.98670   0.47730   0.63920   0.01267  Uiso   1.00
H48    H     0.02590   0.54610   0.72270   0.01267  Uiso   1.00
H49    H     0.23560   0.80760   0.63290   0.01267  Uiso   1.00
H50    H     0.21770   0.90990   0.70950   0.01267  Uiso   1.00
H51    H     0.86260   0.87520   0.69250   0.01267  Uiso   1.00
H52    H     0.88280   0.77500   0.61500   0.01267  Uiso   1.00
H53    H     0.38260   0.44100   0.95330   0.01267  Uiso   1.00
H54    H     0.30150   0.24570   0.95810   0.01267  Uiso   1.00
H55    H     0.13420   0.20000   0.00750   0.01267  Uiso   1.00
H56    H     0.97140   0.27280   0.06470   0.01267  Uiso   1.00
H57    H     0.89970   0.42130   0.10910   0.01267  Uiso   1.00
H58    H     0.91680   0.64040   0.13350   0.01267  Uiso   1.00
H59    H     0.01280   0.82680   0.12410   0.01267  Uiso   1.00
H60    H     0.17880   0.85460   0.07130   0.01267  Uiso   1.00
H61    H     0.11000   0.28940   0.62360   0.01267  Uiso   1.00
H62    H     0.16300   0.15280   0.68460   0.01267  Uiso   1.00
H63    H     0.50560   0.26520   0.66470   0.01267  Uiso   1.00
H64    H     0.45330   0.40550   0.60540   0.01267  Uiso   1.00
H65    H     0.38240   0.31320   0.76280   0.01267  Uiso   1.00
H66    H     0.45320   0.35240   0.84570   0.01267  Uiso   1.00
H67    H     0.52270   0.01330   0.86080   0.01267  Uiso   1.00
H68    H     0.45390   0.97410   0.77730   0.01267  Uiso   1.00
H69    H     0.19240   0.76440   0.86710   0.01267  Uiso   1.00
H70    H     0.09010   0.78230   0.79050   0.01267  Uiso   1.00
H71    H     0.12480   0.13740   0.80750   0.01267  Uiso   1.00
H72    H     0.22500   0.11720   0.88500   0.01267  Uiso   1.00
H73    H     0.55900   0.61740   0.54670   0.01267  Uiso   1.00
H74    H     0.75430   0.69850   0.54190   0.01267  Uiso   1.00
H75    H     0.80000   0.86580   0.49250   0.01267  Uiso   1.00
H76    H     0.72720   0.02860   0.43530   0.01267  Uiso   1.00
H77    H     0.57870   0.10030   0.39090   0.01267  Uiso   1.00
H78    H     0.35960   0.08320   0.36650   0.01267  Uiso   1.00
H79    H     0.17320   0.98720   0.37590   0.01267  Uiso   1.00
H80    H     0.14540   0.82120   0.42870   0.01267  Uiso   1.00
C1     C     0.44936   0.24208   0.06855   0.01267  Uiso   1.00
C2     C     0.36159   0.27569   0.10843   0.01267  Uiso   1.00
C3     C     0.28559   0.18965   0.13200   0.01267  Uiso   1.00
C4     C     0.20307   0.22119   0.16839   0.01267  Uiso   1.00
C5     C     0.19700   0.33864   0.17988   0.01267  Uiso   1.00
C6     C     0.27090   0.42616   0.15667   0.01267  Uiso   1.00
C7     C     0.35440   0.39470   0.12094   0.01267  Uiso   1.00
C8     C     0.14014   0.41234   0.26226   0.01267  Uiso   1.00
C9     C     0.25320   0.41118   0.28234   0.01267  Uiso   1.00
C10    C     0.27629   0.45337   0.33202   0.01267  Uiso   1.00
C11    C     0.18716   0.49590   0.36158   0.01267  Uiso   1.00
C12    C     0.07388   0.49522   0.34105   0.01267  Uiso   1.00
C13    C     0.05023   0.45375   0.29117   0.01267  Uiso   1.00
C14    C     0.21684   0.54264   0.41441   0.01267  Uiso   1.00
C15    C     0.92135   0.27975   0.43505   0.01267  Uiso   1.00
C16    C     0.93908   0.21640   0.38453   0.01267  Uiso   1.00
C17    C     0.83939   0.17717   0.35551   0.01267  Uiso   1.00
C18    C     0.84956   0.11602   0.30976   0.01267  Uiso   1.00
C19    C     0.96113   0.09403   0.29307   0.01267  Uiso   1.00
C20    C     0.06236   0.13662   0.32007   0.01267  Uiso   1.00
C21    C     0.04982   0.19714   0.36619   0.01267  Uiso   1.00
C22    C     0.68527   0.57673   0.02692   0.01267  Uiso   1.00
C23    C     0.73341   0.69493   0.02420   0.01267  Uiso   1.00
C24    C     0.83286   0.72166   0.99493   0.01267  Uiso   1.00
C25    C     0.88556   0.63146   0.96850   0.01267  Uiso   1.00
C26    C     0.82961   0.51487   0.97322   0.01267  Uiso   1.00
C27    C     0.87600   0.42034   0.94548   0.01267  Uiso   1.00
C28    C     0.97756   0.44324   0.91370   0.01267  Uiso   1.00
C29    C     0.98981   0.65101   0.93740   0.01267  Uiso   1.00
C30    C     0.03300   0.56260   0.91119   0.01267  Uiso   1.00
C31    C     0.01690   0.34810   0.88786   0.01267  Uiso   1.00
C32    C     0.96000   0.23760   0.89322   0.01267  Uiso   1.00
C33    C     0.85993   0.22127   0.92514   0.01267  Uiso   1.00
C34    C     0.75792   0.55064   0.43145   0.01267  Uiso   1.00
C35    C     0.72431   0.63841   0.39157   0.01267  Uiso   1.00
C36    C     0.81035   0.71441   0.36800   0.01267  Uiso   1.00
C37    C     0.77881   0.79693   0.33161   0.01267  Uiso   1.00
C38    C     0.66136   0.80300   0.32012   0.01267  Uiso   1.00
C39    C     0.57384   0.72910   0.34333   0.01267  Uiso   1.00
C40    C     0.60530   0.64560   0.37906   0.01267  Uiso   1.00
C41    C     0.58766   0.85986   0.23774   0.01267  Uiso   1.00
C42    C     0.58882   0.74680   0.21766   0.01267  Uiso   1.00
C43    C     0.54663   0.72371   0.16798   0.01267  Uiso   1.00
C44    C     0.50410   0.81284   0.13842   0.01267  Uiso   1.00
C45    C     0.50478   0.92612   0.15895   0.01267  Uiso   1.00
C46    C     0.54625   0.94977   0.20883   0.01267  Uiso   1.00
C47    C     0.45736   0.78316   0.08559   0.01267  Uiso   1.00
C48    C     0.72025   0.07865   0.06495   0.01267  Uiso   1.00
C49    C     0.78360   0.06092   0.11547   0.01267  Uiso   1.00
C50    C     0.82283   0.16061   0.14449   0.01267  Uiso   1.00
C51    C     0.88398   0.15044   0.19024   0.01267  Uiso   1.00
C52    C     0.90597   0.03887   0.20693   0.01267  Uiso   1.00
C53    C     0.86338   0.93764   0.17993   0.01267  Uiso   1.00
C54    C     0.80286   0.95018   0.13381   0.01267  Uiso   1.00
C55    C     0.42327   0.31473   0.47308   0.01267  Uiso   1.00
C56    C     0.30507   0.26659   0.47580   0.01267  Uiso   1.00
C57    C     0.27834   0.16714   0.50507   0.01267  Uiso   1.00
C58    C     0.36854   0.11444   0.53150   0.01267  Uiso   1.00
C59    C     0.48513   0.17039   0.52678   0.01267  Uiso   1.00
C60    C     0.57966   0.12400   0.55452   0.01267  Uiso   1.00
C61    C     0.55676   0.02244   0.58630   0.01267  Uiso   1.00
C62    C     0.34899   0.01019   0.56260   0.01267  Uiso   1.00
C63    C     0.43740   0.96700   0.58881   0.01267  Uiso   1.00
C64    C     0.65190   0.98310   0.61214   0.01267  Uiso   1.00
C65    C     0.76240   0.04000   0.60678   0.01267  Uiso   1.00
C66    C     0.77873   0.14007   0.57486   0.01267  Uiso   1.00
C67    C     0.55064   0.75792   0.93145   0.01267  Uiso   1.00
C68    C     0.63841   0.72431   0.89157   0.01267  Uiso   1.00
C69    C     0.71441   0.81035   0.86800   0.01267  Uiso   1.00
C70    C     0.79693   0.77881   0.83161   0.01267  Uiso   1.00
C71    C     0.80300   0.66136   0.82012   0.01267  Uiso   1.00
C72    C     0.72910   0.57384   0.84333   0.01267  Uiso   1.00
C73    C     0.64560   0.60530   0.87906   0.01267  Uiso   1.00
C74    C     0.85986   0.58766   0.73774   0.01267  Uiso   1.00
C75    C     0.74680   0.58882   0.71766   0.01267  Uiso   1.00
C76    C     0.72371   0.54663   0.66798   0.01267  Uiso   1.00
C77    C     0.81284   0.50410   0.63842   0.01267  Uiso   1.00
C78    C     0.92612   0.50478   0.65895   0.01267  Uiso   1.00
C79    C     0.94977   0.54625   0.70883   0.01267  Uiso   1.00
C80    C     0.78316   0.45736   0.58559   0.01267  Uiso   1.00
C81    C     0.07865   0.72025   0.56495   0.01267  Uiso   1.00
C82    C     0.06092   0.78360   0.61547   0.01267  Uiso   1.00
C83    C     0.16061   0.82283   0.64449   0.01267  Uiso   1.00
C84    C     0.15044   0.88398   0.69024   0.01267  Uiso   1.00
C85    C     0.03887   0.90597   0.70693   0.01267  Uiso   1.00
C86    C     0.93764   0.86338   0.67993   0.01267  Uiso   1.00
C87    C     0.95018   0.80286   0.63381   0.01267  Uiso   1.00
C88    C     0.31473   0.42327   0.97308   0.01267  Uiso   1.00
C89    C     0.26659   0.30507   0.97580   0.01267  Uiso   1.00
C90    C     0.16714   0.27834   0.00507   0.01267  Uiso   1.00
C91    C     0.11444   0.36854   0.03150   0.01267  Uiso   1.00
C92    C     0.17039   0.48513   0.02678   0.01267  Uiso   1.00
C93    C     0.12400   0.57966   0.05452   0.01267  Uiso   1.00
C94    C     0.02244   0.55676   0.08630   0.01267  Uiso   1.00
C95    C     0.01019   0.34899   0.06260   0.01267  Uiso   1.00
C96    C     0.96700   0.43740   0.08881   0.01267  Uiso   1.00
C97    C     0.98310   0.65190   0.11214   0.01267  Uiso   1.00
C98    C     0.04000   0.76240   0.10678   0.01267  Uiso   1.00
C99    C     0.14007   0.77873   0.07486   0.01267  Uiso   1.00
C100   C     0.24208   0.44936   0.56855   0.01267  Uiso   1.00
C101   C     0.27569   0.36159   0.60843   0.01267  Uiso   1.00
C102   C     0.18965   0.28559   0.63200   0.01267  Uiso   1.00
C103   C     0.22119   0.20307   0.66839   0.01267  Uiso   1.00
C104   C     0.33864   0.19700   0.67988   0.01267  Uiso   1.00
C105   C     0.42616   0.27090   0.65667   0.01267  Uiso   1.00
C106   C     0.39470   0.35440   0.62094   0.01267  Uiso   1.00
C107   C     0.41234   0.14014   0.76226   0.01267  Uiso   1.00
C108   C     0.41118   0.25320   0.78234   0.01267  Uiso   1.00
C109   C     0.45337   0.27629   0.83202   0.01267  Uiso   1.00
C110   C     0.49590   0.18716   0.86158   0.01267  Uiso   1.00
C111   C     0.49522   0.07388   0.84105   0.01267  Uiso   1.00
C112   C     0.45375   0.05023   0.79117   0.01267  Uiso   1.00
C113   C     0.54264   0.21684   0.91441   0.01267  Uiso   1.00
C114   C     0.27975   0.92135   0.93505   0.01267  Uiso   1.00
C115   C     0.21640   0.93908   0.88453   0.01267  Uiso   1.00
C116   C     0.17717   0.83939   0.85551   0.01267  Uiso   1.00
C117   C     0.11602   0.84956   0.80976   0.01267  Uiso   1.00
C118   C     0.09403   0.96113   0.79307   0.01267  Uiso   1.00
C119   C     0.13662   0.06236   0.82007   0.01267  Uiso   1.00
C120   C     0.19714   0.04982   0.86619   0.01267  Uiso   1.00
C121   C     0.57673   0.68527   0.52692   0.01267  Uiso   1.00
C122   C     0.69493   0.73341   0.52420   0.01267  Uiso   1.00
C123   C     0.72166   0.83286   0.49493   0.01267  Uiso   1.00
C124   C     0.63146   0.88556   0.46850   0.01267  Uiso   1.00
C125   C     0.51487   0.82961   0.47322   0.01267  Uiso   1.00
C126   C     0.42034   0.87600   0.44548   0.01267  Uiso   1.00
C127   C     0.44324   0.97756   0.41370   0.01267  Uiso   1.00
C128   C     0.65101   0.98981   0.43740   0.01267  Uiso   1.00
C129   C     0.56260   0.03300   0.41119   0.01267  Uiso   1.00
C130   C     0.34810   0.01690   0.38786   0.01267  Uiso   1.00
C131   C     0.23760   0.96000   0.39322   0.01267  Uiso   1.00
C132   C     0.22127   0.85993   0.42514   0.01267  Uiso   1.00
N1     N     0.73135   0.48867   0.00270   0.01267  Uiso   1.00
N2     N     0.81927   0.31031   0.95016   0.01267  Uiso   1.00
N3     N     0.51133   0.26865   0.49730   0.01267  Uiso   1.00
N4     N     0.68969   0.18073   0.54984   0.01267  Uiso   1.00
N5     N     0.26865   0.51133   0.99730   0.01267  Uiso   1.00
N6     N     0.18073   0.68969   0.04984   0.01267  Uiso   1.00
N7     N     0.48867   0.73135   0.50270   0.01267  Uiso   1.00
N8     N     0.31031   0.81927   0.45016   0.01267  Uiso   1.00
O1     O     0.52385   0.32473   0.05391   0.01267  Uiso   1.00
O2     O     0.13645   0.57825   0.44361   0.01267  Uiso   1.00
O3     O     0.32341   0.55081   0.42893   0.01267  Uiso   1.00
O4     O     0.81838   0.26538   0.45296   0.01267  Uiso   1.00
O5     O     0.44326   0.13730   0.05293   0.01267  Uiso   1.00
O6     O     0.00772   0.33900   0.45519   0.01267  Uiso   1.00
O7     O     0.10778   0.36932   0.21348   0.01267  Uiso   1.00
O8     O     0.67527   0.47615   0.44609   0.01267  Uiso   1.00
O9     O     0.42175   0.86355   0.05639   0.01267  Uiso   1.00
O10    O     0.44919   0.67659   0.07107   0.01267  Uiso   1.00
O11    O     0.73462   0.18162   0.04704   0.01267  Uiso   1.00
O12    O     0.86270   0.55674   0.44707   0.01267  Uiso   1.00
O13    O     0.66100   0.99228   0.04481   0.01267  Uiso   1.00
O14    O     0.63068   0.89222   0.28652   0.01267  Uiso   1.00
O15    O     0.47615   0.67527   0.94609   0.01267  Uiso   1.00
O16    O     0.86355   0.42175   0.55639   0.01267  Uiso   1.00
O17    O     0.67659   0.44919   0.57107   0.01267  Uiso   1.00
O18    O     0.18162   0.73462   0.54704   0.01267  Uiso   1.00
O19    O     0.55674   0.86270   0.94707   0.01267  Uiso   1.00
O20    O     0.99228   0.66100   0.54481   0.01267  Uiso   1.00
O21    O     0.89222   0.63068   0.78652   0.01267  Uiso   1.00
O22    O     0.32473   0.52385   0.55391   0.01267  Uiso   1.00
O23    O     0.57825   0.13645   0.94361   0.01267  Uiso   1.00
O24    O     0.55081   0.32341   0.92893   0.01267  Uiso   1.00
O25    O     0.26538   0.81838   0.95296   0.01267  Uiso   1.00
O26    O     0.13730   0.44326   0.55293   0.01267  Uiso   1.00
O27    O     0.33900   0.00772   0.95519   0.01267  Uiso   1.00
O28    O     0.36932   0.10778   0.71348   0.01267  Uiso   1.00
O29    O     0.97645   0.02355   0.25000   0.01267  Uiso   1.00
O30    O     0.02355   0.97645   0.75000   0.01267  Uiso   1.00
