data_GAXQIH_clean
_audit_creation_date              2014-07-02
_audit_creation_method            'Materials Studio'
_symmetry_space_group_name_H-M    'P1'
_symmetry_Int_Tables_number       1
_symmetry_cell_setting            triclinic
loop_
_symmetry_equiv_pos_as_xyz
  x,y,z
_cell_length_a                    11.1440
_cell_length_b                    15.2392
_cell_length_c                    16.6950
_cell_angle_alpha                 114.4190
_cell_angle_beta                  90.0000
_cell_angle_gamma                 111.4470
loop_
_atom_site_label
_atom_site_type_symbol
_atom_site_fract_x
_atom_site_fract_y
_atom_site_fract_z
_atom_site_U_iso_or_equiv
_atom_site_adp_type
_atom_site_occupancy
Ni1    Ni    0.00000   0.50000   0.00000   0.01267  Uiso   1.00
Ni2    Ni    0.50000   0.50000   0.50000   0.01267  Uiso   1.00
Ni3    Ni    0.50000   0.50000   0.00000   0.01267  Uiso   1.00
Ni4    Ni    0.00000   0.50000   0.50000   0.01267  Uiso   1.00
H1     H     0.20590   0.32980   0.63000   0.01267  Uiso   1.00
H2     H     0.04290   0.57080   0.82010   0.01267  Uiso   1.00
H3     H     0.06290   0.30440   0.89470   0.01267  Uiso   1.00
H4     H     0.71420   0.32800   0.88240   0.01267  Uiso   1.00
H5     H     0.57310   0.15800   0.84220   0.01267  Uiso   1.00
H6     H     0.81500   0.14620   0.01090   0.01267  Uiso   1.00
H7     H     0.94710   0.31680   0.04710   0.01267  Uiso   1.00
H8     H     0.68420   0.86740   0.02020   0.01267  Uiso   1.00
H9     H     0.67160   0.73240   0.05310   0.01267  Uiso   1.00
H10    H     0.35170   0.54020   0.87600   0.01267  Uiso   1.00
H11    H     0.35440   0.66940   0.83900   0.01267  Uiso   1.00
H12    H     0.34430   0.82860   0.82430   0.01267  Uiso   1.00
H13    H     0.13520   0.24560   0.75930   0.01267  Uiso   1.00
H14    H     0.87610   0.67020   0.87000   0.01267  Uiso   1.00
H15    H     0.47210   0.42920   0.67990   0.01267  Uiso   1.00
H16    H     0.75850   0.69560   0.60530   0.01267  Uiso   1.00
H17    H     0.38620   0.67200   0.61760   0.01267  Uiso   1.00
H18    H     0.41510   0.84200   0.65780   0.01267  Uiso   1.00
H19    H     0.66880   0.85380   0.48910   0.01267  Uiso   1.00
H20    H     0.63030   0.68320   0.45290   0.01267  Uiso   1.00
H21    H     0.81680   0.13260   0.47980   0.01267  Uiso   1.00
H22    H     0.93920   0.26760   0.44690   0.01267  Uiso   1.00
H23    H     0.81150   0.45980   0.62400   0.01267  Uiso   1.00
H24    H     0.68500   0.33060   0.66100   0.01267  Uiso   1.00
H25    H     0.51570   0.17140   0.67570   0.01267  Uiso   1.00
H26    H     0.88960   0.75440   0.74070   0.01267  Uiso   1.00
H27    H     0.79410   0.67020   0.37000   0.01267  Uiso   1.00
H28    H     0.95710   0.42920   0.17990   0.01267  Uiso   1.00
H29    H     0.93710   0.69560   0.10530   0.01267  Uiso   1.00
H30    H     0.28580   0.67200   0.11760   0.01267  Uiso   1.00
H31    H     0.42690   0.84200   0.15780   0.01267  Uiso   1.00
H32    H     0.18500   0.85380   0.98910   0.01267  Uiso   1.00
H33    H     0.05290   0.68320   0.95290   0.01267  Uiso   1.00
H34    H     0.31580   0.13260   0.97980   0.01267  Uiso   1.00
H35    H     0.32840   0.26760   0.94690   0.01267  Uiso   1.00
H36    H     0.64830   0.45980   0.12400   0.01267  Uiso   1.00
H37    H     0.64560   0.33060   0.16100   0.01267  Uiso   1.00
H38    H     0.65570   0.17140   0.17570   0.01267  Uiso   1.00
H39    H     0.86480   0.75440   0.24070   0.01267  Uiso   1.00
H40    H     0.12390   0.32980   0.13000   0.01267  Uiso   1.00
H41    H     0.52790   0.57080   0.32010   0.01267  Uiso   1.00
H42    H     0.24150   0.30440   0.39470   0.01267  Uiso   1.00
H43    H     0.61380   0.32800   0.38240   0.01267  Uiso   1.00
H44    H     0.58490   0.15800   0.34220   0.01267  Uiso   1.00
H45    H     0.33120   0.14620   0.51090   0.01267  Uiso   1.00
H46    H     0.36970   0.31680   0.54710   0.01267  Uiso   1.00
H47    H     0.18320   0.86740   0.52020   0.01267  Uiso   1.00
H48    H     0.06080   0.73240   0.55310   0.01267  Uiso   1.00
H49    H     0.18850   0.54020   0.37600   0.01267  Uiso   1.00
H50    H     0.31500   0.66940   0.33900   0.01267  Uiso   1.00
H51    H     0.48430   0.82860   0.32430   0.01267  Uiso   1.00
H52    H     0.11040   0.24560   0.25930   0.01267  Uiso   1.00
C1     C     0.23360   0.47060   0.57170   0.01267  Uiso   1.00
C2     C     0.17110   0.45900   0.65000   0.01267  Uiso   1.00
C3     C     0.12280   0.53260   0.70770   0.01267  Uiso   1.00
C4     C     0.12170   0.62680   0.69700   0.01267  Uiso   1.00
C5     C     0.17320   0.37740   0.66720   0.01267  Uiso   1.00
C6     C     0.12410   0.36920   0.74270   0.01267  Uiso   1.00
C7     C     0.07900   0.44280   0.80130   0.01267  Uiso   1.00
C8     C     0.07590   0.52360   0.78280   0.01267  Uiso   1.00
C9     C     0.07450   0.33640   0.85660   0.01267  Uiso   1.00
C10    C     0.73510   0.29140   0.90910   0.01267  Uiso   1.00
C11    C     0.64880   0.18840   0.88430   0.01267  Uiso   1.00
C12    C     0.67620   0.13080   0.92290   0.01267  Uiso   1.00
C13    C     0.79120   0.18140   0.98390   0.01267  Uiso   1.00
C14    C     0.87110   0.28480   0.00490   0.01267  Uiso   1.00
C15    C     0.59090   0.02080   0.90160   0.01267  Uiso   1.00
C16    C     0.52930   0.87300   0.90490   0.01267  Uiso   1.00
C17    C     0.52100   0.78320   0.92410   0.01267  Uiso   1.00
C18    C     0.61600   0.80140   0.98990   0.01267  Uiso   1.00
C19    C     0.60710   0.71960   0.00950   0.01267  Uiso   1.00
C20    C     0.41910   0.60680   0.90550   0.01267  Uiso   1.00
C21    C     0.42040   0.68380   0.88240   0.01267  Uiso   1.00
C22    C     0.76300   0.52940   0.92830   0.01267  Uiso   1.00
C23    C     0.71210   0.54100   0.85000   0.01267  Uiso   1.00
C24    C     0.59020   0.46740   0.79230   0.01267  Uiso   1.00
C25    C     0.49490   0.37320   0.80300   0.01267  Uiso   1.00
C26    C     0.79580   0.62260   0.83280   0.01267  Uiso   1.00
C27    C     0.75490   0.63080   0.75730   0.01267  Uiso   1.00
C28    C     0.63620   0.55720   0.69870   0.01267  Uiso   1.00
C29    C     0.55230   0.47640   0.71720   0.01267  Uiso   1.00
C30    C     0.73810   0.66360   0.64340   0.01267  Uiso   1.00
C31    C     0.44370   0.70860   0.59090   0.01267  Uiso   1.00
C32    C     0.46040   0.81160   0.61570   0.01267  Uiso   1.00
C33    C     0.54540   0.86920   0.57710   0.01267  Uiso   1.00
C34    C     0.60980   0.81860   0.51610   0.01267  Uiso   1.00
C35    C     0.58630   0.71520   0.49510   0.01267  Uiso   1.00
C36    C     0.57010   0.97920   0.59840   0.01267  Uiso   1.00
C37    C     0.65630   0.12700   0.59510   0.01267  Uiso   1.00
C38    C     0.73780   0.21680   0.57590   0.01267  Uiso   1.00
C39    C     0.81460   0.19860   0.51010   0.01267  Uiso   1.00
C40    C     0.88750   0.28040   0.49050   0.01267  Uiso   1.00
C41    C     0.81230   0.39320   0.59450   0.01267  Uiso   1.00
C42    C     0.73660   0.31620   0.61760   0.01267  Uiso   1.00
C43    C     0.76640   0.52940   0.42830   0.01267  Uiso   1.00
C44    C     0.82890   0.54100   0.35000   0.01267  Uiso   1.00
C45    C     0.87720   0.46740   0.29230   0.01267  Uiso   1.00
C46    C     0.87830   0.37320   0.30300   0.01267  Uiso   1.00
C47    C     0.82680   0.62260   0.33280   0.01267  Uiso   1.00
C48    C     0.87590   0.63080   0.25730   0.01267  Uiso   1.00
C49    C     0.92100   0.55720   0.19870   0.01267  Uiso   1.00
C50    C     0.92410   0.47640   0.21720   0.01267  Uiso   1.00
C51    C     0.92550   0.66360   0.14340   0.01267  Uiso   1.00
C52    C     0.26490   0.70860   0.09090   0.01267  Uiso   1.00
C53    C     0.35120   0.81160   0.11570   0.01267  Uiso   1.00
C54    C     0.32380   0.86920   0.07710   0.01267  Uiso   1.00
C55    C     0.20880   0.81860   0.01610   0.01267  Uiso   1.00
C56    C     0.12890   0.71520   0.99510   0.01267  Uiso   1.00
C57    C     0.40910   0.97920   0.09840   0.01267  Uiso   1.00
C58    C     0.47070   0.12700   0.09510   0.01267  Uiso   1.00
C59    C     0.47900   0.21680   0.07590   0.01267  Uiso   1.00
C60    C     0.38400   0.19860   0.01010   0.01267  Uiso   1.00
C61    C     0.39290   0.28040   0.99050   0.01267  Uiso   1.00
C62    C     0.58090   0.39320   0.09450   0.01267  Uiso   1.00
C63    C     0.57960   0.31620   0.11760   0.01267  Uiso   1.00
C64    C     0.23700   0.47060   0.07170   0.01267  Uiso   1.00
C65    C     0.28790   0.45900   0.15000   0.01267  Uiso   1.00
C66    C     0.40980   0.53260   0.20770   0.01267  Uiso   1.00
C67    C     0.50510   0.62680   0.19700   0.01267  Uiso   1.00
C68    C     0.20420   0.37740   0.16720   0.01267  Uiso   1.00
C69    C     0.24510   0.36920   0.24270   0.01267  Uiso   1.00
C70    C     0.36380   0.44280   0.30130   0.01267  Uiso   1.00
C71    C     0.44770   0.52360   0.28280   0.01267  Uiso   1.00
C72    C     0.26190   0.33640   0.35660   0.01267  Uiso   1.00
C73    C     0.55630   0.29140   0.40910   0.01267  Uiso   1.00
C74    C     0.53960   0.18840   0.38430   0.01267  Uiso   1.00
C75    C     0.45460   0.13080   0.42290   0.01267  Uiso   1.00
C76    C     0.39020   0.18140   0.48390   0.01267  Uiso   1.00
C77    C     0.41370   0.28480   0.50490   0.01267  Uiso   1.00
C78    C     0.42990   0.02080   0.40160   0.01267  Uiso   1.00
C79    C     0.34370   0.87300   0.40490   0.01267  Uiso   1.00
C80    C     0.26220   0.78320   0.42410   0.01267  Uiso   1.00
C81    C     0.18540   0.80140   0.48990   0.01267  Uiso   1.00
C82    C     0.11250   0.71960   0.50950   0.01267  Uiso   1.00
C83    C     0.18770   0.60680   0.40550   0.01267  Uiso   1.00
C84    C     0.26340   0.68380   0.38240   0.01267  Uiso   1.00
N1     N     0.84730   0.34240   0.96910   0.01267  Uiso   1.00
N2     N     0.63030   0.96680   0.93810   0.01267  Uiso   1.00
N3     N     0.47230   0.96540   0.85000   0.01267  Uiso   1.00
N4     N     0.43200   0.86900   0.85210   0.01267  Uiso   1.00
N5     N     0.51040   0.62300   0.96880   0.01267  Uiso   1.00
N6     N     0.11850   0.30040   0.77850   0.01267  Uiso   1.00
N7     N     0.04900   0.42140   0.87460   0.01267  Uiso   1.00
N8     N     0.50490   0.65760   0.53090   0.01267  Uiso   1.00
N9     N     0.66350   0.03320   0.56190   0.01267  Uiso   1.00
N10    N     0.50690   0.03460   0.65000   0.01267  Uiso   1.00
N11    N     0.56300   0.13100   0.64790   0.01267  Uiso   1.00
N12    N     0.88740   0.37700   0.53120   0.01267  Uiso   1.00
N13    N     0.81810   0.69960   0.72150   0.01267  Uiso   1.00
N14    N     0.62760   0.57860   0.62540   0.01267  Uiso   1.00
N15    N     0.15270   0.65760   0.03090   0.01267  Uiso   1.00
N16    N     0.36970   0.03320   0.06190   0.01267  Uiso   1.00
N17    N     0.52770   0.03460   0.15000   0.01267  Uiso   1.00
N18    N     0.56800   0.13100   0.14790   0.01267  Uiso   1.00
N19    N     0.48960   0.37700   0.03120   0.01267  Uiso   1.00
N20    N     0.88150   0.69960   0.22150   0.01267  Uiso   1.00
N21    N     0.95100   0.57860   0.12540   0.01267  Uiso   1.00
N22    N     0.49510   0.34240   0.46910   0.01267  Uiso   1.00
N23    N     0.33650   0.96680   0.43810   0.01267  Uiso   1.00
N24    N     0.49310   0.96540   0.35000   0.01267  Uiso   1.00
N25    N     0.43700   0.86900   0.35210   0.01267  Uiso   1.00
N26    N     0.11260   0.62300   0.46880   0.01267  Uiso   1.00
N27    N     0.18190   0.30040   0.27850   0.01267  Uiso   1.00
N28    N     0.37240   0.42140   0.37460   0.01267  Uiso   1.00
O1     O     0.34615   0.46970   0.56960   0.01267  Uiso   1.00
O2     O     0.17132   0.47944   0.51360   0.01267  Uiso   1.00
O3     O     0.04957   0.61314   0.63130   0.01267  Uiso   1.00
O4     O     0.19040   0.71620   0.75870   0.01267  Uiso   1.00
O5     O     0.87645   0.53030   0.93040   0.01267  Uiso   1.00
O6     O     0.69188   0.52056   0.98640   0.01267  Uiso   1.00
O7     O     0.43643   0.38686   0.86870   0.01267  Uiso   1.00
O8     O     0.47420   0.28380   0.74130   0.01267  Uiso   1.00
O9     O     0.65385   0.53030   0.43040   0.01267  Uiso   1.00
O10    O     0.82868   0.52056   0.48640   0.01267  Uiso   1.00
O11    O     0.95043   0.38686   0.36870   0.01267  Uiso   1.00
O12    O     0.80960   0.28380   0.24130   0.01267  Uiso   1.00
O13    O     0.12355   0.46970   0.06960   0.01267  Uiso   1.00
O14    O     0.30812   0.47944   0.01360   0.01267  Uiso   1.00
O15    O     0.56357   0.61314   0.13130   0.01267  Uiso   1.00
O16    O     0.52580   0.71620   0.25870   0.01267  Uiso   1.00
