data_GAXVUY_clean
_audit_creation_date              2014-07-02
_audit_creation_method            'Materials Studio'
_symmetry_space_group_name_H-M    'P1'
_symmetry_Int_Tables_number       1
_symmetry_cell_setting            triclinic
loop_
_symmetry_equiv_pos_as_xyz
  x,y,z
_cell_length_a                    10.3110
_cell_length_b                    14.3666
_cell_length_c                    18.4014
_cell_angle_alpha                 90.0000
_cell_angle_beta                  90.0000
_cell_angle_gamma                 99.8250
loop_
_atom_site_label
_atom_site_type_symbol
_atom_site_fract_x
_atom_site_fract_y
_atom_site_fract_z
_atom_site_U_iso_or_equiv
_atom_site_adp_type
_atom_site_occupancy
Ca1    Ca    0.62367   0.82110   0.30815   0.01267  Uiso   1.00
Ca2    Ca    0.87633   0.67890   0.80815   0.01267  Uiso   1.00
Ca3    Ca    0.37633   0.17890   0.69185   0.01267  Uiso   1.00
Ca4    Ca    0.12367   0.32110   0.19185   0.01267  Uiso   1.00
Zn1    Zn    0.70741   0.05302   0.18617   0.01267  Uiso   1.00
Zn2    Zn    0.79259   0.44698   0.68617   0.01267  Uiso   1.00
Zn3    Zn    0.29259   0.94698   0.81383   0.01267  Uiso   1.00
Zn4    Zn    0.20741   0.55302   0.31383   0.01267  Uiso   1.00
H1     H     0.60330   0.01290   0.47400   0.01267  Uiso   1.00
H2     H     0.59170   0.10120   0.57750   0.01267  Uiso   1.00
H3     H     0.75590   0.33280   0.47030   0.01267  Uiso   1.00
H4     H     0.75240   0.24620   0.36470   0.01267  Uiso   1.00
H5     H     0.05490   0.82760   0.28040   0.01267  Uiso   1.00
H6     H     0.27740   0.82840   0.26800   0.01267  Uiso   1.00
H7     H     0.29700   0.03650   0.12180   0.01267  Uiso   1.00
H8     H     0.07320   0.03160   0.13130   0.01267  Uiso   1.00
H9     H     0.89670   0.48710   0.97400   0.01267  Uiso   1.00
H10    H     0.90830   0.39880   0.07750   0.01267  Uiso   1.00
H11    H     0.74410   0.16720   0.97030   0.01267  Uiso   1.00
H12    H     0.74760   0.25380   0.86470   0.01267  Uiso   1.00
H13    H     0.44510   0.67240   0.78040   0.01267  Uiso   1.00
H14    H     0.22260   0.67160   0.76800   0.01267  Uiso   1.00
H15    H     0.20300   0.46350   0.62180   0.01267  Uiso   1.00
H16    H     0.42680   0.46840   0.63130   0.01267  Uiso   1.00
H17    H     0.39670   0.98710   0.52600   0.01267  Uiso   1.00
H18    H     0.40830   0.89880   0.42250   0.01267  Uiso   1.00
H19    H     0.24410   0.66720   0.52970   0.01267  Uiso   1.00
H20    H     0.24760   0.75380   0.63530   0.01267  Uiso   1.00
H21    H     0.94510   0.17240   0.71960   0.01267  Uiso   1.00
H22    H     0.72260   0.17160   0.73200   0.01267  Uiso   1.00
H23    H     0.70300   0.96350   0.87820   0.01267  Uiso   1.00
H24    H     0.92680   0.96840   0.86870   0.01267  Uiso   1.00
H25    H     0.10330   0.51290   0.02600   0.01267  Uiso   1.00
H26    H     0.09170   0.60120   0.92250   0.01267  Uiso   1.00
H27    H     0.25590   0.83280   0.02970   0.01267  Uiso   1.00
H28    H     0.25240   0.74620   0.13530   0.01267  Uiso   1.00
H29    H     0.55490   0.32760   0.21960   0.01267  Uiso   1.00
H30    H     0.77740   0.32840   0.23200   0.01267  Uiso   1.00
H31    H     0.79700   0.53650   0.37820   0.01267  Uiso   1.00
H32    H     0.57320   0.53160   0.36870   0.01267  Uiso   1.00
C1     C     0.67560   0.12070   0.40800   0.01267  Uiso   1.00
C2     C     0.63070   0.07800   0.47250   0.01267  Uiso   1.00
C3     C     0.62590   0.13070   0.53500   0.01267  Uiso   1.00
C4     C     0.67150   0.22660   0.53480   0.01267  Uiso   1.00
C5     C     0.72160   0.26860   0.47090   0.01267  Uiso   1.00
C6     C     0.72140   0.21640   0.40770   0.01267  Uiso   1.00
C7     C     0.67090   0.06300   0.34020   0.01267  Uiso   1.00
C8     C     0.66770   0.28320   0.60320   0.01267  Uiso   1.00
C9     C     0.04180   0.93010   0.20790   0.01267  Uiso   1.00
C10    C     0.10370   0.86950   0.24810   0.01267  Uiso   1.00
C11    C     0.23720   0.87030   0.24100   0.01267  Uiso   1.00
C12    C     0.31110   0.93300   0.19400   0.01267  Uiso   1.00
C13    C     0.24820   0.99380   0.15350   0.01267  Uiso   1.00
C14    C     0.11440   0.99170   0.15960   0.01267  Uiso   1.00
C15    C     0.89590   0.93100   0.21660   0.01267  Uiso   1.00
C16    C     0.45720   0.93710   0.18920   0.01267  Uiso   1.00
C17    C     0.82440   0.37930   0.90800   0.01267  Uiso   1.00
C18    C     0.86930   0.42200   0.97250   0.01267  Uiso   1.00
C19    C     0.87410   0.36930   0.03500   0.01267  Uiso   1.00
C20    C     0.82850   0.27340   0.03480   0.01267  Uiso   1.00
C21    C     0.77840   0.23140   0.97090   0.01267  Uiso   1.00
C22    C     0.77860   0.28360   0.90770   0.01267  Uiso   1.00
C23    C     0.82910   0.43700   0.84020   0.01267  Uiso   1.00
C24    C     0.83230   0.21680   0.10320   0.01267  Uiso   1.00
C25    C     0.45820   0.56990   0.70790   0.01267  Uiso   1.00
C26    C     0.39630   0.63050   0.74810   0.01267  Uiso   1.00
C27    C     0.26280   0.62970   0.74100   0.01267  Uiso   1.00
C28    C     0.18890   0.56700   0.69400   0.01267  Uiso   1.00
C29    C     0.25180   0.50620   0.65350   0.01267  Uiso   1.00
C30    C     0.38560   0.50830   0.65960   0.01267  Uiso   1.00
C31    C     0.60410   0.56900   0.71660   0.01267  Uiso   1.00
C32    C     0.04280   0.56290   0.68920   0.01267  Uiso   1.00
C33    C     0.32440   0.87930   0.59200   0.01267  Uiso   1.00
C34    C     0.36930   0.92200   0.52750   0.01267  Uiso   1.00
C35    C     0.37410   0.86930   0.46500   0.01267  Uiso   1.00
C36    C     0.32850   0.77340   0.46520   0.01267  Uiso   1.00
C37    C     0.27840   0.73140   0.52910   0.01267  Uiso   1.00
C38    C     0.27860   0.78360   0.59230   0.01267  Uiso   1.00
C39    C     0.32910   0.93700   0.65980   0.01267  Uiso   1.00
C40    C     0.33230   0.71680   0.39680   0.01267  Uiso   1.00
C41    C     0.95820   0.06990   0.79210   0.01267  Uiso   1.00
C42    C     0.89630   0.13050   0.75190   0.01267  Uiso   1.00
C43    C     0.76280   0.12970   0.75900   0.01267  Uiso   1.00
C44    C     0.68890   0.06700   0.80600   0.01267  Uiso   1.00
C45    C     0.75180   0.00620   0.84650   0.01267  Uiso   1.00
C46    C     0.88560   0.00830   0.84040   0.01267  Uiso   1.00
C47    C     0.10410   0.06900   0.78340   0.01267  Uiso   1.00
C48    C     0.54280   0.06290   0.81080   0.01267  Uiso   1.00
C49    C     0.17560   0.62070   0.09200   0.01267  Uiso   1.00
C50    C     0.13070   0.57800   0.02750   0.01267  Uiso   1.00
C51    C     0.12590   0.63070   0.96500   0.01267  Uiso   1.00
C52    C     0.17150   0.72660   0.96520   0.01267  Uiso   1.00
C53    C     0.22160   0.76860   0.02910   0.01267  Uiso   1.00
C54    C     0.22140   0.71640   0.09230   0.01267  Uiso   1.00
C55    C     0.17090   0.56300   0.15980   0.01267  Uiso   1.00
C56    C     0.16770   0.78320   0.89680   0.01267  Uiso   1.00
C57    C     0.54180   0.43010   0.29210   0.01267  Uiso   1.00
C58    C     0.60370   0.36950   0.25190   0.01267  Uiso   1.00
C59    C     0.73720   0.37030   0.25900   0.01267  Uiso   1.00
C60    C     0.81110   0.43300   0.30600   0.01267  Uiso   1.00
C61    C     0.74820   0.49380   0.34650   0.01267  Uiso   1.00
C62    C     0.61440   0.49170   0.34040   0.01267  Uiso   1.00
C63    C     0.39590   0.43100   0.28340   0.01267  Uiso   1.00
C64    C     0.95720   0.43710   0.31080   0.01267  Uiso   1.00
O1     O     0.70980   0.10760   0.28298   0.01267  Uiso   1.00
O2     O     0.62730   0.97720   0.34357   0.01267  Uiso   1.00
O3     O     0.75810   0.35430   0.60808   0.01267  Uiso   1.00
O4     O     0.58190   0.25710   0.64930   0.01267  Uiso   1.00
O5     O     0.84620   0.98070   0.17132   0.01267  Uiso   1.00
O6     O     0.83670   0.88520   0.26730   0.01267  Uiso   1.00
O7     O     0.52270   0.01150   0.16135   0.01267  Uiso   1.00
O8     O     0.50640   0.87040   0.21333   0.01267  Uiso   1.00
O9     O     0.79020   0.39240   0.78298   0.01267  Uiso   1.00
O10    O     0.87270   0.52280   0.84357   0.01267  Uiso   1.00
O11    O     0.74190   0.14570   0.10808   0.01267  Uiso   1.00
O12    O     0.91810   0.24290   0.14930   0.01267  Uiso   1.00
O13    O     0.65380   0.51930   0.67132   0.01267  Uiso   1.00
O14    O     0.66330   0.61480   0.76730   0.01267  Uiso   1.00
O15    O     0.97730   0.48850   0.66135   0.01267  Uiso   1.00
O16    O     0.99360   0.62960   0.71333   0.01267  Uiso   1.00
O17    O     0.29020   0.89240   0.71702   0.01267  Uiso   1.00
O18    O     0.37270   0.02280   0.65643   0.01267  Uiso   1.00
O19    O     0.24190   0.64570   0.39192   0.01267  Uiso   1.00
O20    O     0.41810   0.74290   0.35070   0.01267  Uiso   1.00
O21    O     0.15380   0.01930   0.82868   0.01267  Uiso   1.00
O22    O     0.16330   0.11480   0.73270   0.01267  Uiso   1.00
O23    O     0.47730   0.98850   0.83865   0.01267  Uiso   1.00
O24    O     0.49360   0.12960   0.78667   0.01267  Uiso   1.00
O25    O     0.20980   0.60760   0.21702   0.01267  Uiso   1.00
O26    O     0.12730   0.47720   0.15643   0.01267  Uiso   1.00
O27    O     0.25810   0.85430   0.89192   0.01267  Uiso   1.00
O28    O     0.08190   0.75710   0.85070   0.01267  Uiso   1.00
O29    O     0.34620   0.48070   0.32868   0.01267  Uiso   1.00
O30    O     0.33670   0.38520   0.23270   0.01267  Uiso   1.00
O31    O     0.02270   0.51150   0.33865   0.01267  Uiso   1.00
O32    O     0.00640   0.37040   0.28667   0.01267  Uiso   1.00
