data_GAXWEJ_clean
_audit_creation_date              2014-07-02
_audit_creation_method            'Materials Studio'
_symmetry_space_group_name_H-M    'P1'
_symmetry_Int_Tables_number       1
_symmetry_cell_setting            triclinic
loop_
_symmetry_equiv_pos_as_xyz
  x,y,z
_cell_length_a                    12.1798
_cell_length_b                    12.1798
_cell_length_c                    12.6634
_cell_angle_alpha                 103.9390
_cell_angle_beta                  103.9390
_cell_angle_gamma                 103.0030
loop_
_atom_site_label
_atom_site_type_symbol
_atom_site_fract_x
_atom_site_fract_y
_atom_site_fract_z
_atom_site_U_iso_or_equiv
_atom_site_adp_type
_atom_site_occupancy
Ba1    Ba    0.81972   0.18028   0.75000   0.01267  Uiso   1.00
Ba2    Ba    0.18028   0.81972   0.25000   0.01267  Uiso   1.00
Zn1    Zn    0.82682   0.41400   0.03827   0.01267  Uiso   1.00
Zn2    Zn    0.58600   0.17318   0.46173   0.01267  Uiso   1.00
Zn3    Zn    0.17318   0.58600   0.96173   0.01267  Uiso   1.00
Zn4    Zn    0.41400   0.82682   0.53827   0.01267  Uiso   1.00
H1     H     0.06130   0.10850   0.01630   0.01267  Uiso   1.00
H2     H     0.20480   0.04720   0.12070   0.01267  Uiso   1.00
H3     H     0.31530   0.35810   0.36900   0.01267  Uiso   1.00
H4     H     0.16860   0.41920   0.26730   0.01267  Uiso   1.00
H5     H     0.59170   0.17270   0.15090   0.01267  Uiso   1.00
H6     H     0.52690   0.98810   0.82380   0.01267  Uiso   1.00
H7     H     0.87330   0.47970   0.87720   0.01267  Uiso   1.00
H8     H     0.75930   0.41390   0.83360   0.01267  Uiso   1.00
H9     H     0.89150   0.93870   0.48370   0.01267  Uiso   1.00
H10    H     0.95280   0.79520   0.37930   0.01267  Uiso   1.00
H11    H     0.64190   0.68470   0.13100   0.01267  Uiso   1.00
H12    H     0.58080   0.83140   0.23270   0.01267  Uiso   1.00
H13    H     0.82730   0.40830   0.34910   0.01267  Uiso   1.00
H14    H     0.01190   0.47310   0.67620   0.01267  Uiso   1.00
H15    H     0.52030   0.12670   0.62280   0.01267  Uiso   1.00
H16    H     0.58610   0.24070   0.66640   0.01267  Uiso   1.00
H17    H     0.93870   0.89150   0.98370   0.01267  Uiso   1.00
H18    H     0.79520   0.95280   0.87930   0.01267  Uiso   1.00
H19    H     0.68470   0.64190   0.63100   0.01267  Uiso   1.00
H20    H     0.83140   0.58080   0.73270   0.01267  Uiso   1.00
H21    H     0.40830   0.82730   0.84910   0.01267  Uiso   1.00
H22    H     0.47310   0.01190   0.17620   0.01267  Uiso   1.00
H23    H     0.12670   0.52030   0.12280   0.01267  Uiso   1.00
H24    H     0.24070   0.58610   0.16640   0.01267  Uiso   1.00
H25    H     0.10850   0.06130   0.51630   0.01267  Uiso   1.00
H26    H     0.04720   0.20480   0.62070   0.01267  Uiso   1.00
H27    H     0.35810   0.31530   0.86900   0.01267  Uiso   1.00
H28    H     0.41920   0.16860   0.76730   0.01267  Uiso   1.00
H29    H     0.17270   0.59170   0.65090   0.01267  Uiso   1.00
H30    H     0.98810   0.52690   0.32380   0.01267  Uiso   1.00
H31    H     0.47970   0.87330   0.37720   0.01267  Uiso   1.00
H32    H     0.41390   0.75930   0.33360   0.01267  Uiso   1.00
C1     C     0.99508   0.29932   0.06660   0.01267  Uiso   1.00
C2     C     0.09722   0.26898   0.13250   0.01267  Uiso   1.00
C3     C     0.11080   0.15820   0.08820   0.01267  Uiso   1.00
C4     C     0.19710   0.12170   0.15050   0.01267  Uiso   1.00
C5     C     0.27254   0.19526   0.25720   0.01267  Uiso   1.00
C6     C     0.26260   0.30700   0.29900   0.01267  Uiso   1.00
C7     C     0.17509   0.34411   0.23770   0.01267  Uiso   1.00
C8     C     0.36058   0.14962   0.32610   0.01267  Uiso   1.00
C9     C     0.65277   0.19963   0.96710   0.01267  Uiso   1.00
C10    C     0.57270   0.09610   0.98460   0.01267  Uiso   1.00
C11    C     0.55500   0.10280   0.09010   0.01267  Uiso   1.00
C12    C     0.51650   0.99310   0.89500   0.01267  Uiso   1.00
C13    C     0.70068   0.00492   0.43340   0.01267  Uiso   1.00
C14    C     0.73102   0.90278   0.36750   0.01267  Uiso   1.00
C15    C     0.84180   0.88920   0.41180   0.01267  Uiso   1.00
C16    C     0.87830   0.80290   0.34950   0.01267  Uiso   1.00
C17    C     0.80474   0.72746   0.24280   0.01267  Uiso   1.00
C18    C     0.69300   0.73740   0.20100   0.01267  Uiso   1.00
C19    C     0.65589   0.82491   0.26230   0.01267  Uiso   1.00
C20    C     0.85038   0.63942   0.17390   0.01267  Uiso   1.00
C21    C     0.80037   0.34723   0.53290   0.01267  Uiso   1.00
C22    C     0.90390   0.42730   0.51540   0.01267  Uiso   1.00
C23    C     0.89720   0.44500   0.40990   0.01267  Uiso   1.00
C24    C     0.00690   0.48350   0.60500   0.01267  Uiso   1.00
C25    C     0.00492   0.70068   0.93340   0.01267  Uiso   1.00
C26    C     0.90278   0.73102   0.86750   0.01267  Uiso   1.00
C27    C     0.88920   0.84180   0.91180   0.01267  Uiso   1.00
C28    C     0.80290   0.87830   0.84950   0.01267  Uiso   1.00
C29    C     0.72746   0.80474   0.74280   0.01267  Uiso   1.00
C30    C     0.73740   0.69300   0.70100   0.01267  Uiso   1.00
C31    C     0.82491   0.65589   0.76230   0.01267  Uiso   1.00
C32    C     0.63942   0.85038   0.67390   0.01267  Uiso   1.00
C33    C     0.34723   0.80037   0.03290   0.01267  Uiso   1.00
C34    C     0.42730   0.90390   0.01540   0.01267  Uiso   1.00
C35    C     0.44500   0.89720   0.90990   0.01267  Uiso   1.00
C36    C     0.48350   0.00690   0.10500   0.01267  Uiso   1.00
C37    C     0.29932   0.99508   0.56660   0.01267  Uiso   1.00
C38    C     0.26898   0.09722   0.63250   0.01267  Uiso   1.00
C39    C     0.15820   0.11080   0.58820   0.01267  Uiso   1.00
C40    C     0.12170   0.19710   0.65050   0.01267  Uiso   1.00
C41    C     0.19526   0.27254   0.75720   0.01267  Uiso   1.00
C42    C     0.30700   0.26260   0.79900   0.01267  Uiso   1.00
C43    C     0.34411   0.17509   0.73770   0.01267  Uiso   1.00
C44    C     0.14962   0.36058   0.82610   0.01267  Uiso   1.00
C45    C     0.19963   0.65277   0.46710   0.01267  Uiso   1.00
C46    C     0.09610   0.57270   0.48460   0.01267  Uiso   1.00
C47    C     0.10280   0.55500   0.59010   0.01267  Uiso   1.00
C48    C     0.99310   0.51650   0.39500   0.01267  Uiso   1.00
O1     O     0.92153   0.22427   0.98010   0.01267  Uiso   1.00
O2     O     0.98682   0.40404   0.10650   0.01267  Uiso   1.00
O3     O     0.33947   0.04333   0.31320   0.01267  Uiso   1.00
O4     O     0.45425   0.22759   0.39470   0.01267  Uiso   1.00
O5     O     0.71145   0.28769   0.05700   0.01267  Uiso   1.00
O6     O     0.65935   0.19403   0.87030   0.01267  Uiso   1.00
O7     O     0.82483   0.41923   0.88040   0.01267  Uiso   1.00
O8     O     0.77573   0.07847   0.51990   0.01267  Uiso   1.00
O9     O     0.59596   0.01318   0.39350   0.01267  Uiso   1.00
O10    O     0.95667   0.66053   0.18680   0.01267  Uiso   1.00
O11    O     0.77241   0.54575   0.10530   0.01267  Uiso   1.00
O12    O     0.71231   0.28855   0.44300   0.01267  Uiso   1.00
O13    O     0.80597   0.34065   0.62970   0.01267  Uiso   1.00
O14    O     0.58077   0.17517   0.61960   0.01267  Uiso   1.00
O15    O     0.07847   0.77573   0.01990   0.01267  Uiso   1.00
O16    O     0.01318   0.59596   0.89350   0.01267  Uiso   1.00
O17    O     0.66053   0.95667   0.68680   0.01267  Uiso   1.00
O18    O     0.54575   0.77241   0.60530   0.01267  Uiso   1.00
O19    O     0.28855   0.71231   0.94300   0.01267  Uiso   1.00
O20    O     0.34065   0.80597   0.12970   0.01267  Uiso   1.00
O21    O     0.17517   0.58077   0.11960   0.01267  Uiso   1.00
O22    O     0.22427   0.92153   0.48010   0.01267  Uiso   1.00
O23    O     0.40404   0.98682   0.60650   0.01267  Uiso   1.00
O24    O     0.04333   0.33947   0.81320   0.01267  Uiso   1.00
O25    O     0.22759   0.45425   0.89470   0.01267  Uiso   1.00
O26    O     0.28769   0.71145   0.55700   0.01267  Uiso   1.00
O27    O     0.19403   0.65935   0.37030   0.01267  Uiso   1.00
O28    O     0.41923   0.82483   0.38040   0.01267  Uiso   1.00
