data_GAYGAQ_clean_h
_audit_creation_date              2014-07-02
_audit_creation_method            'Materials Studio'
_symmetry_space_group_name_H-M    'P1'
_symmetry_Int_Tables_number       1
_symmetry_cell_setting            triclinic
loop_
_symmetry_equiv_pos_as_xyz
  x,y,z
_cell_length_a                    7.1328
_cell_length_b                    8.7207
_cell_length_c                    9.6984
_cell_angle_alpha                 116.7180
_cell_angle_beta                  111.5760
_cell_angle_gamma                 90.0000
loop_
_atom_site_label
_atom_site_type_symbol
_atom_site_fract_x
_atom_site_fract_y
_atom_site_fract_z
_atom_site_U_iso_or_equiv
_atom_site_adp_type
_atom_site_occupancy
Cu1    Cu    0.00000   0.00000   0.00000   0.01267  Uiso   1.00
Cu2    Cu    0.50000   0.00000   0.00000   0.01267  Uiso   1.00
C1     C     0.92988   0.67207   0.66828   0.01267  Uiso   1.00
C2     C     0.57012   0.00379   0.33172   0.01267  Uiso   1.00
C3     C     0.76160   0.32793   0.33172   0.01267  Uiso   1.00
C4     C     0.73840   0.99621   0.66828   0.01267  Uiso   1.00
C5     C     0.07012   0.32793   0.33172   0.01267  Uiso   1.00
C6     C     0.42988   0.99621   0.66828   0.01267  Uiso   1.00
C7     C     0.23840   0.67207   0.66828   0.01267  Uiso   1.00
C8     C     0.26160   0.00379   0.33172   0.01267  Uiso   1.00
C9     C     0.03911   0.58516   0.57822   0.01267  Uiso   1.00
C10    C     0.46089   0.00694   0.42178   0.01267  Uiso   1.00
C11    C     0.96089   0.41484   0.42178   0.01267  Uiso   1.00
C12    C     0.53911   0.99306   0.57822   0.01267  Uiso   1.00
N1     N     0.06168   0.81272   0.81402   0.01267  Uiso   1.00
N2     N     0.43832   0.99870   0.18598   0.01267  Uiso   1.00
N3     N     0.74766   0.18728   0.18598   0.01267  Uiso   1.00
N4     N     0.75234   0.00130   0.81402   0.01267  Uiso   1.00
N5     N     0.93832   0.18728   0.18598   0.01267  Uiso   1.00
N6     N     0.56168   0.00130   0.81402   0.01267  Uiso   1.00
N7     N     0.25234   0.81272   0.81402   0.01267  Uiso   1.00
N8     N     0.24766   0.99870   0.18598   0.01267  Uiso   1.00
H1     H     0.75775   0.62164   0.61603   0.01267  Uiso   1.00
H2     H     0.74225   0.00561   0.38397   0.01267  Uiso   1.00
H3     H     0.64172   0.37836   0.38397   0.01267  Uiso   1.00
H4     H     0.85828   0.99439   0.61603   0.01267  Uiso   1.00
H5     H     0.24225   0.37836   0.38397   0.01267  Uiso   1.00
H6     H     0.25775   0.99439   0.61603   0.01267  Uiso   1.00
H7     H     0.35828   0.62164   0.61603   0.01267  Uiso   1.00
H8     H     0.14172   0.00561   0.38397   0.01267  Uiso   1.00
