data_GAZZIS_charged
_audit_creation_date              2014-07-02
_audit_creation_method            'Materials Studio'
_symmetry_space_group_name_H-M    'P1'
_symmetry_Int_Tables_number       1
_symmetry_cell_setting            triclinic
loop_
_symmetry_equiv_pos_as_xyz
  x,y,z
_cell_length_a                    17.2857
_cell_length_b                    17.2857
_cell_length_c                    26.2190
_cell_angle_alpha                 94.4987
_cell_angle_beta                  94.4987
_cell_angle_gamma                 110.0620
loop_
_atom_site_label
_atom_site_type_symbol
_atom_site_fract_x
_atom_site_fract_y
_atom_site_fract_z
_atom_site_U_iso_or_equiv
_atom_site_adp_type
_atom_site_occupancy
In1    In    0.36637   0.86201   0.88429   0.01267  Uiso   1.00
In2    In    0.86201   0.36637   0.38429   0.01267  Uiso   1.00
H1     H     0.21240   0.76900   0.02400   0.01267  Uiso   1.00
H2     H     0.09630   0.68670   0.05990   0.01267  Uiso   1.00
H3     H     0.96590   0.63010   0.91980   0.01267  Uiso   1.00
H4     H     0.08000   0.71260   0.88480   0.01267  Uiso   1.00
H5     H     0.81090   0.34390   0.20880   0.01267  Uiso   1.00
H6     H     0.80150   0.37650   0.12560   0.01267  Uiso   1.00
H7     H     0.99660   0.59100   0.16670   0.01267  Uiso   1.00
H8     H     0.99950   0.56090   0.25040   0.01267  Uiso   1.00
H9     H     0.38220   0.14220   0.87080   0.01267  Uiso   1.00
H10    H     0.45330   0.28510   0.88500   0.01267  Uiso   1.00
H11    H     0.60230   0.25150   0.00120   0.01267  Uiso   1.00
H12    H     0.53340   0.10760   0.98570   0.01267  Uiso   1.00
H13    H     0.59710   0.76490   0.89650   0.01267  Uiso   1.00
H14    H     0.66070   0.66970   0.91420   0.01267  Uiso   1.00
H15    H     0.43780   0.49880   0.92930   0.01267  Uiso   1.00
H16    H     0.37620   0.59520   0.91180   0.01267  Uiso   1.00
H17    H     0.76390   0.44950   0.06960   0.01267  Uiso   1.00
H18    H     0.85820   0.58940   0.95720   0.01267  Uiso   1.00
H19    H     0.00930   0.58090   0.08080   0.01267  Uiso   1.00
H20    H     0.71130   0.60050   0.96840   0.01267  Uiso   1.00
H21    H     0.69130   0.36490   0.98560   0.01267  Uiso   1.00
H22    H     0.49430   0.41090   0.92270   0.01267  Uiso   1.00
H23    H     0.76900   0.21240   0.52400   0.01267  Uiso   1.00
H24    H     0.68670   0.09630   0.55990   0.01267  Uiso   1.00
H25    H     0.63010   0.96590   0.41980   0.01267  Uiso   1.00
H26    H     0.71260   0.08000   0.38480   0.01267  Uiso   1.00
H27    H     0.34390   0.81090   0.70880   0.01267  Uiso   1.00
H28    H     0.37650   0.80150   0.62560   0.01267  Uiso   1.00
H29    H     0.59100   0.99660   0.66670   0.01267  Uiso   1.00
H30    H     0.56090   0.99950   0.75040   0.01267  Uiso   1.00
H31    H     0.14220   0.38220   0.37080   0.01267  Uiso   1.00
H32    H     0.28510   0.45330   0.38500   0.01267  Uiso   1.00
H33    H     0.25150   0.60230   0.50120   0.01267  Uiso   1.00
H34    H     0.10760   0.53340   0.48570   0.01267  Uiso   1.00
H35    H     0.76490   0.59710   0.39650   0.01267  Uiso   1.00
H36    H     0.66970   0.66070   0.41420   0.01267  Uiso   1.00
H37    H     0.49880   0.43780   0.42930   0.01267  Uiso   1.00
H38    H     0.59520   0.37620   0.41180   0.01267  Uiso   1.00
H39    H     0.44950   0.76390   0.56960   0.01267  Uiso   1.00
H40    H     0.58940   0.85820   0.45720   0.01267  Uiso   1.00
H41    H     0.58090   0.00930   0.58080   0.01267  Uiso   1.00
H42    H     0.60050   0.71130   0.46840   0.01267  Uiso   1.00
H43    H     0.36490   0.69130   0.48560   0.01267  Uiso   1.00
H44    H     0.41090   0.49430   0.42270   0.01267  Uiso   1.00
C1     C     0.15854   0.74784   0.95095   0.01267  Uiso   1.00
C2     C     0.16224   0.74036   0.00245   0.01267  Uiso   1.00
C3     C     0.09289   0.69097   0.02397   0.01267  Uiso   1.00
C4     C     0.01896   0.64812   0.99281   0.01267  Uiso   1.00
C5     C     0.01621   0.65789   0.94157   0.01267  Uiso   1.00
C6     C     0.08420   0.70688   0.92059   0.01267  Uiso   1.00
C7     C     0.90473   0.44905   0.23825   0.01267  Uiso   1.00
C8     C     0.84735   0.39519   0.20033   0.01267  Uiso   1.00
C9     C     0.84203   0.41419   0.15084   0.01267  Uiso   1.00
C10    C     0.89625   0.48915   0.13702   0.01267  Uiso   1.00
C11    C     0.95695   0.54175   0.17538   0.01267  Uiso   1.00
C12    C     0.95969   0.52309   0.22471   0.01267  Uiso   1.00
C13    C     0.45284   0.11180   0.92631   0.01267  Uiso   1.00
C14    C     0.42801   0.16443   0.89672   0.01267  Uiso   1.00
C15    C     0.47037   0.24939   0.90524   0.01267  Uiso   1.00
C16    C     0.53761   0.28281   0.94305   0.01267  Uiso   1.00
C17    C     0.55885   0.22933   0.97379   0.01267  Uiso   1.00
C18    C     0.51725   0.14353   0.96506   0.01267  Uiso   1.00
C19    C     0.47810   0.68914   0.90499   0.01267  Uiso   1.00
C20    C     0.55514   0.57510   0.92869   0.01267  Uiso   1.00
C21    C     0.56500   0.71140   0.90440   0.01267  Uiso   1.00
C22    C     0.60260   0.65520   0.91540   0.01267  Uiso   1.00
C23    C     0.47150   0.55350   0.92460   0.01267  Uiso   1.00
C24    C     0.43490   0.61150   0.91350   0.01267  Uiso   1.00
C25    C     0.88818   0.51316   0.08441   0.01267  Uiso   1.00
C26    C     0.80985   0.48699   0.05617   0.01267  Uiso   1.00
C27    C     0.79766   0.51486   0.00840   0.01267  Uiso   1.00
C28    C     0.86570   0.56868   0.98903   0.01267  Uiso   1.00
C29    C     0.94562   0.59306   0.01582   0.01267  Uiso   1.00
C30    C     0.95533   0.56475   0.06279   0.01267  Uiso   1.00
C31    C     0.59467   0.51613   0.94319   0.01267  Uiso   1.00
C32    C     0.67852   0.54322   0.96492   0.01267  Uiso   1.00
C33    C     0.71319   0.48619   0.98130   0.01267  Uiso   1.00
C34    C     0.66703   0.40327   0.97443   0.01267  Uiso   1.00
C35    C     0.58586   0.37410   0.95152   0.01267  Uiso   1.00
C36    C     0.55059   0.43063   0.93718   0.01267  Uiso   1.00
C37    C     0.23323   0.79541   0.92771   0.01267  Uiso   1.00
C38    C     0.90687   0.43241   0.29365   0.01267  Uiso   1.00
C39    C     0.41273   0.01983   0.91411   0.01267  Uiso   1.00
C40    C     0.43632   0.74906   0.89450   0.01267  Uiso   1.00
C41    C     0.74784   0.15854   0.45095   0.01267  Uiso   1.00
C42    C     0.74036   0.16224   0.50245   0.01267  Uiso   1.00
C43    C     0.69097   0.09289   0.52397   0.01267  Uiso   1.00
C44    C     0.64812   0.01896   0.49281   0.01267  Uiso   1.00
C45    C     0.65789   0.01621   0.44157   0.01267  Uiso   1.00
C46    C     0.70688   0.08420   0.42059   0.01267  Uiso   1.00
C47    C     0.44905   0.90473   0.73825   0.01267  Uiso   1.00
C48    C     0.39519   0.84735   0.70033   0.01267  Uiso   1.00
C49    C     0.41419   0.84203   0.65084   0.01267  Uiso   1.00
C50    C     0.48915   0.89625   0.63702   0.01267  Uiso   1.00
C51    C     0.54175   0.95695   0.67538   0.01267  Uiso   1.00
C52    C     0.52309   0.95969   0.72471   0.01267  Uiso   1.00
C53    C     0.11180   0.45284   0.42631   0.01267  Uiso   1.00
C54    C     0.16443   0.42801   0.39672   0.01267  Uiso   1.00
C55    C     0.24939   0.47037   0.40524   0.01267  Uiso   1.00
C56    C     0.28281   0.53761   0.44305   0.01267  Uiso   1.00
C57    C     0.22933   0.55885   0.47379   0.01267  Uiso   1.00
C58    C     0.14353   0.51725   0.46506   0.01267  Uiso   1.00
C59    C     0.68914   0.47810   0.40499   0.01267  Uiso   1.00
C60    C     0.57510   0.55514   0.42869   0.01267  Uiso   1.00
C61    C     0.71140   0.56500   0.40440   0.01267  Uiso   1.00
C62    C     0.65520   0.60260   0.41540   0.01267  Uiso   1.00
C63    C     0.55350   0.47150   0.42460   0.01267  Uiso   1.00
C64    C     0.61150   0.43490   0.41350   0.01267  Uiso   1.00
C65    C     0.51316   0.88818   0.58441   0.01267  Uiso   1.00
C66    C     0.48699   0.80985   0.55617   0.01267  Uiso   1.00
C67    C     0.51486   0.79766   0.50840   0.01267  Uiso   1.00
C68    C     0.56868   0.86570   0.48903   0.01267  Uiso   1.00
C69    C     0.59306   0.94562   0.51582   0.01267  Uiso   1.00
C70    C     0.56475   0.95533   0.56279   0.01267  Uiso   1.00
C71    C     0.51613   0.59467   0.44319   0.01267  Uiso   1.00
C72    C     0.54322   0.67852   0.46492   0.01267  Uiso   1.00
C73    C     0.48619   0.71319   0.48130   0.01267  Uiso   1.00
C74    C     0.40327   0.66703   0.47443   0.01267  Uiso   1.00
C75    C     0.37410   0.58586   0.45152   0.01267  Uiso   1.00
C76    C     0.43063   0.55059   0.43718   0.01267  Uiso   1.00
C77    C     0.79541   0.23323   0.42771   0.01267  Uiso   1.00
C78    C     0.43241   0.90687   0.79365   0.01267  Uiso   1.00
C79    C     0.01983   0.41273   0.41411   0.01267  Uiso   1.00
C80    C     0.74906   0.43632   0.39450   0.01267  Uiso   1.00
O1     O     0.22898   0.80222   0.87963   0.01267  Uiso   1.00
O2     O     0.30260   0.82786   0.95552   0.01267  Uiso   1.00
O3     O     0.85197   0.36541   0.30354   0.01267  Uiso   1.00
O4     O     0.95894   0.48294   0.32681   0.01267  Uiso   1.00
O5     O     0.34688   0.98752   0.88390   0.01267  Uiso   1.00
O6     O     0.44920   0.97466   0.93392   0.01267  Uiso   1.00
O7     O     0.47724   0.82646   0.90060   0.01267  Uiso   1.00
O8     O     0.35991   0.72483   0.88154   0.01267  Uiso   1.00
O9     O     0.80222   0.22898   0.37963   0.01267  Uiso   1.00
O10    O     0.82786   0.30260   0.45552   0.01267  Uiso   1.00
O11    O     0.36541   0.85197   0.80354   0.01267  Uiso   1.00
O12    O     0.48294   0.95894   0.82681   0.01267  Uiso   1.00
O13    O     0.98752   0.34688   0.38390   0.01267  Uiso   1.00
O14    O     0.97466   0.44920   0.43392   0.01267  Uiso   1.00
O15    O     0.82646   0.47724   0.40060   0.01267  Uiso   1.00
O16    O     0.72483   0.35991   0.38154   0.01267  Uiso   1.00
In3    In    0.13799   0.63363   0.61571   0.01267  Uiso   1.00
In4    In    0.63363   0.13799   0.11571   0.01267  Uiso   1.00
H45    H     0.23100   0.78760   0.47600   0.01267  Uiso   1.00
H46    H     0.31330   0.90370   0.44010   0.01267  Uiso   1.00
H47    H     0.36990   0.03410   0.58020   0.01267  Uiso   1.00
H48    H     0.28740   0.92000   0.61520   0.01267  Uiso   1.00
H49    H     0.65610   0.18910   0.29120   0.01267  Uiso   1.00
H50    H     0.62350   0.19850   0.37440   0.01267  Uiso   1.00
H51    H     0.40900   0.00340   0.33330   0.01267  Uiso   1.00
H52    H     0.43910   0.00050   0.24960   0.01267  Uiso   1.00
H53    H     0.85780   0.61780   0.62920   0.01267  Uiso   1.00
H54    H     0.71490   0.54670   0.61500   0.01267  Uiso   1.00
H55    H     0.74850   0.39770   0.49880   0.01267  Uiso   1.00
H56    H     0.89240   0.46660   0.51430   0.01267  Uiso   1.00
H57    H     0.23510   0.40290   0.60350   0.01267  Uiso   1.00
H58    H     0.33030   0.33930   0.58580   0.01267  Uiso   1.00
H59    H     0.50120   0.56220   0.57070   0.01267  Uiso   1.00
H60    H     0.40480   0.62380   0.58820   0.01267  Uiso   1.00
H61    H     0.55050   0.23610   0.43040   0.01267  Uiso   1.00
H62    H     0.41060   0.14180   0.54280   0.01267  Uiso   1.00
H63    H     0.41910   0.99070   0.41920   0.01267  Uiso   1.00
H64    H     0.39950   0.28870   0.53160   0.01267  Uiso   1.00
H65    H     0.63510   0.30870   0.51440   0.01267  Uiso   1.00
H66    H     0.58910   0.50570   0.57730   0.01267  Uiso   1.00
H67    H     0.78760   0.23100   0.97600   0.01267  Uiso   1.00
H68    H     0.90370   0.31330   0.94010   0.01267  Uiso   1.00
H69    H     0.03410   0.36990   0.08020   0.01267  Uiso   1.00
H70    H     0.92000   0.28740   0.11520   0.01267  Uiso   1.00
H71    H     0.18910   0.65610   0.79120   0.01267  Uiso   1.00
H72    H     0.19850   0.62350   0.87440   0.01267  Uiso   1.00
H73    H     0.00340   0.40900   0.83330   0.01267  Uiso   1.00
H74    H     0.00050   0.43910   0.74960   0.01267  Uiso   1.00
H75    H     0.61780   0.85780   0.12920   0.01267  Uiso   1.00
H76    H     0.54670   0.71490   0.11500   0.01267  Uiso   1.00
H77    H     0.39770   0.74850   0.99880   0.01267  Uiso   1.00
H78    H     0.46660   0.89240   0.01430   0.01267  Uiso   1.00
H79    H     0.40290   0.23510   0.10350   0.01267  Uiso   1.00
H80    H     0.33930   0.33030   0.08580   0.01267  Uiso   1.00
H81    H     0.56220   0.50120   0.07070   0.01267  Uiso   1.00
H82    H     0.62380   0.40480   0.08820   0.01267  Uiso   1.00
H83    H     0.23610   0.55050   0.93040   0.01267  Uiso   1.00
H84    H     0.14180   0.41060   0.04280   0.01267  Uiso   1.00
H85    H     0.99070   0.41910   0.91920   0.01267  Uiso   1.00
H86    H     0.28870   0.39950   0.03160   0.01267  Uiso   1.00
H87    H     0.30870   0.63510   0.01440   0.01267  Uiso   1.00
H88    H     0.50570   0.58910   0.07730   0.01267  Uiso   1.00
C81    C     0.25216   0.84146   0.54905   0.01267  Uiso   1.00
C82    C     0.25964   0.83776   0.49755   0.01267  Uiso   1.00
C83    C     0.30903   0.90711   0.47603   0.01267  Uiso   1.00
C84    C     0.35188   0.98104   0.50719   0.01267  Uiso   1.00
C85    C     0.34211   0.98379   0.55843   0.01267  Uiso   1.00
C86    C     0.29312   0.91580   0.57941   0.01267  Uiso   1.00
C87    C     0.55095   0.09527   0.26175   0.01267  Uiso   1.00
C88    C     0.60481   0.15265   0.29967   0.01267  Uiso   1.00
C89    C     0.58581   0.15797   0.34916   0.01267  Uiso   1.00
C90    C     0.51085   0.10375   0.36298   0.01267  Uiso   1.00
C91    C     0.45825   0.04305   0.32462   0.01267  Uiso   1.00
C92    C     0.47691   0.04031   0.27529   0.01267  Uiso   1.00
C93    C     0.88820   0.54716   0.57369   0.01267  Uiso   1.00
C94    C     0.83557   0.57199   0.60328   0.01267  Uiso   1.00
C95    C     0.75061   0.52963   0.59476   0.01267  Uiso   1.00
C96    C     0.71719   0.46239   0.55695   0.01267  Uiso   1.00
C97    C     0.77067   0.44115   0.52621   0.01267  Uiso   1.00
C98    C     0.85647   0.48275   0.53494   0.01267  Uiso   1.00
C99    C     0.31086   0.52190   0.59501   0.01267  Uiso   1.00
C100   C     0.42490   0.44486   0.57131   0.01267  Uiso   1.00
C101   C     0.28860   0.43500   0.59560   0.01267  Uiso   1.00
C102   C     0.34480   0.39740   0.58460   0.01267  Uiso   1.00
C103   C     0.44650   0.52850   0.57540   0.01267  Uiso   1.00
C104   C     0.38850   0.56510   0.58650   0.01267  Uiso   1.00
C105   C     0.48684   0.11182   0.41559   0.01267  Uiso   1.00
C106   C     0.51301   0.19015   0.44383   0.01267  Uiso   1.00
C107   C     0.48514   0.20234   0.49160   0.01267  Uiso   1.00
C108   C     0.43132   0.13430   0.51097   0.01267  Uiso   1.00
C109   C     0.40694   0.05438   0.48418   0.01267  Uiso   1.00
C110   C     0.43525   0.04467   0.43721   0.01267  Uiso   1.00
C111   C     0.48387   0.40533   0.55681   0.01267  Uiso   1.00
C112   C     0.45678   0.32148   0.53508   0.01267  Uiso   1.00
C113   C     0.51381   0.28681   0.51870   0.01267  Uiso   1.00
C114   C     0.59673   0.33297   0.52557   0.01267  Uiso   1.00
C115   C     0.62590   0.41414   0.54848   0.01267  Uiso   1.00
C116   C     0.56937   0.44941   0.56282   0.01267  Uiso   1.00
C117   C     0.20459   0.76677   0.57229   0.01267  Uiso   1.00
C118   C     0.56759   0.09313   0.20635   0.01267  Uiso   1.00
C119   C     0.98017   0.58727   0.58589   0.01267  Uiso   1.00
C120   C     0.25094   0.56368   0.60550   0.01267  Uiso   1.00
C121   C     0.84146   0.25216   0.04905   0.01267  Uiso   1.00
C122   C     0.83776   0.25964   0.99755   0.01267  Uiso   1.00
C123   C     0.90711   0.30903   0.97603   0.01267  Uiso   1.00
C124   C     0.98104   0.35188   0.00719   0.01267  Uiso   1.00
C125   C     0.98379   0.34211   0.05843   0.01267  Uiso   1.00
C126   C     0.91580   0.29312   0.07941   0.01267  Uiso   1.00
C127   C     0.09527   0.55095   0.76175   0.01267  Uiso   1.00
C128   C     0.15265   0.60481   0.79967   0.01267  Uiso   1.00
C129   C     0.15797   0.58581   0.84916   0.01267  Uiso   1.00
C130   C     0.10375   0.51085   0.86298   0.01267  Uiso   1.00
C131   C     0.04305   0.45825   0.82462   0.01267  Uiso   1.00
C132   C     0.04031   0.47691   0.77529   0.01267  Uiso   1.00
C133   C     0.54716   0.88820   0.07369   0.01267  Uiso   1.00
C134   C     0.57199   0.83557   0.10328   0.01267  Uiso   1.00
C135   C     0.52963   0.75061   0.09476   0.01267  Uiso   1.00
C136   C     0.46239   0.71719   0.05695   0.01267  Uiso   1.00
C137   C     0.44115   0.77067   0.02621   0.01267  Uiso   1.00
C138   C     0.48275   0.85647   0.03494   0.01267  Uiso   1.00
C139   C     0.52190   0.31086   0.09501   0.01267  Uiso   1.00
C140   C     0.44486   0.42490   0.07131   0.01267  Uiso   1.00
C141   C     0.43500   0.28860   0.09560   0.01267  Uiso   1.00
C142   C     0.39740   0.34480   0.08460   0.01267  Uiso   1.00
C143   C     0.52850   0.44650   0.07540   0.01267  Uiso   1.00
C144   C     0.56510   0.38850   0.08650   0.01267  Uiso   1.00
C145   C     0.11182   0.48684   0.91559   0.01267  Uiso   1.00
C146   C     0.19015   0.51301   0.94383   0.01267  Uiso   1.00
C147   C     0.20234   0.48514   0.99160   0.01267  Uiso   1.00
C148   C     0.13430   0.43132   0.01097   0.01267  Uiso   1.00
C149   C     0.05438   0.40694   0.98418   0.01267  Uiso   1.00
C150   C     0.04467   0.43525   0.93721   0.01267  Uiso   1.00
C151   C     0.40533   0.48387   0.05681   0.01267  Uiso   1.00
C152   C     0.32148   0.45678   0.03508   0.01267  Uiso   1.00
C153   C     0.28681   0.51381   0.01870   0.01267  Uiso   1.00
C154   C     0.33297   0.59673   0.02557   0.01267  Uiso   1.00
C155   C     0.41414   0.62590   0.04848   0.01267  Uiso   1.00
C156   C     0.44941   0.56937   0.06282   0.01267  Uiso   1.00
C157   C     0.76677   0.20459   0.07229   0.01267  Uiso   1.00
C158   C     0.09313   0.56759   0.70635   0.01267  Uiso   1.00
C159   C     0.58727   0.98017   0.08589   0.01267  Uiso   1.00
C160   C     0.56368   0.25094   0.10550   0.01267  Uiso   1.00
O17    O     0.19778   0.77102   0.62037   0.01267  Uiso   1.00
O18    O     0.17214   0.69740   0.54448   0.01267  Uiso   1.00
O19    O     0.63459   0.14803   0.19646   0.01267  Uiso   1.00
O20    O     0.51706   0.04106   0.17319   0.01267  Uiso   1.00
O21    O     0.01248   0.65312   0.61610   0.01267  Uiso   1.00
O22    O     0.02534   0.55080   0.56608   0.01267  Uiso   1.00
O23    O     0.17354   0.52276   0.59940   0.01267  Uiso   1.00
O24    O     0.27517   0.64009   0.61846   0.01267  Uiso   1.00
O25    O     0.77102   0.19778   0.12037   0.01267  Uiso   1.00
O26    O     0.69740   0.17214   0.04448   0.01267  Uiso   1.00
O27    O     0.14803   0.63459   0.69646   0.01267  Uiso   1.00
O28    O     0.04106   0.51706   0.67319   0.01267  Uiso   1.00
O29    O     0.65312   0.01248   0.11610   0.01267  Uiso   1.00
O30    O     0.55080   0.02534   0.06608   0.01267  Uiso   1.00
O31    O     0.52276   0.17354   0.09940   0.01267  Uiso   1.00
O32    O     0.64009   0.27517   0.11846   0.01267  Uiso   1.00
H89    H     0.62920   0.95400   0.88320   0.01267  Uiso   1.00
H90    H     0.56100   0.97680   0.90380   0.01267  Uiso   1.00
H91    H     0.62450   0.92770   0.96700   0.01267  Uiso   1.00
H92    H     0.71000   0.99940   0.96090   0.01267  Uiso   1.00
H93    H     0.63620   0.02260   0.98300   0.01267  Uiso   1.00
H94    H     0.63520   0.08140   0.85790   0.01267  Uiso   1.00
H95    H     0.64460   0.11620   0.91730   0.01267  Uiso   1.00
H96    H     0.71730   0.09150   0.89460   0.01267  Uiso   1.00
C161   C     0.64979   0.98461   0.95863   0.01267  Uiso   1.00
C162   C     0.65710   0.07750   0.89280   0.01267  Uiso   1.00
N1     N     0.61764   0.99056   0.90609   0.01267  Uiso   1.00
H97    H     0.04600   0.37080   0.61680   0.01267  Uiso   1.00
H98    H     0.02320   0.43900   0.59620   0.01267  Uiso   1.00
H99    H     0.07230   0.37550   0.53300   0.01267  Uiso   1.00
H100   H     0.00060   0.29000   0.53910   0.01267  Uiso   1.00
H101   H     0.97740   0.36380   0.51700   0.01267  Uiso   1.00
H102   H     0.91860   0.36480   0.64210   0.01267  Uiso   1.00
H103   H     0.88380   0.35540   0.58270   0.01267  Uiso   1.00
H104   H     0.90850   0.28270   0.60540   0.01267  Uiso   1.00
C163   C     0.01539   0.35021   0.54137   0.01267  Uiso   1.00
C164   C     0.92250   0.34290   0.60720   0.01267  Uiso   1.00
N2     N     0.00944   0.38236   0.59391   0.01267  Uiso   1.00
H105   H     0.37080   0.04600   0.11680   0.01267  Uiso   1.00
H106   H     0.43900   0.02320   0.09620   0.01267  Uiso   1.00
H107   H     0.37550   0.07230   0.03300   0.01267  Uiso   1.00
H108   H     0.29000   0.00060   0.03910   0.01267  Uiso   1.00
H109   H     0.36380   0.97740   0.01700   0.01267  Uiso   1.00
H110   H     0.36480   0.91860   0.14210   0.01267  Uiso   1.00
H111   H     0.35540   0.88380   0.08270   0.01267  Uiso   1.00
H112   H     0.28270   0.90850   0.10540   0.01267  Uiso   1.00
C165   C     0.35021   0.01539   0.04137   0.01267  Uiso   1.00
C166   C     0.34290   0.92250   0.10720   0.01267  Uiso   1.00
N3     N     0.38236   0.00944   0.09391   0.01267  Uiso   1.00
H113   H     0.95400   0.62920   0.38320   0.01267  Uiso   1.00
H114   H     0.97680   0.56100   0.40380   0.01267  Uiso   1.00
H115   H     0.92770   0.62450   0.46700   0.01267  Uiso   1.00
H116   H     0.99940   0.71000   0.46090   0.01267  Uiso   1.00
H117   H     0.02260   0.63620   0.48300   0.01267  Uiso   1.00
H118   H     0.08140   0.63520   0.35790   0.01267  Uiso   1.00
H119   H     0.11620   0.64460   0.41730   0.01267  Uiso   1.00
H120   H     0.09150   0.71730   0.39460   0.01267  Uiso   1.00
C167   C     0.98461   0.64979   0.45863   0.01267  Uiso   1.00
C168   C     0.07750   0.65710   0.39280   0.01267  Uiso   1.00
N4     N     0.99056   0.61764   0.40609   0.01267  Uiso   1.00
