data_GAZZIS02_charged
_audit_creation_date              2014-07-02
_audit_creation_method            'Materials Studio'
_symmetry_space_group_name_H-M    'P1'
_symmetry_Int_Tables_number       1
_symmetry_cell_setting            triclinic
loop_
_symmetry_equiv_pos_as_xyz
  x,y,z
_cell_length_a                    17.3440
_cell_length_b                    17.3440
_cell_length_c                    26.4430
_cell_angle_alpha                 94.1191
_cell_angle_beta                  94.1191
_cell_angle_gamma                 110.4400
loop_
_atom_site_label
_atom_site_type_symbol
_atom_site_fract_x
_atom_site_fract_y
_atom_site_fract_z
_atom_site_U_iso_or_equiv
_atom_site_adp_type
_atom_site_occupancy
In1    In    0.36905   0.85945   0.88456   0.01267  Uiso   1.00
In2    In    0.85945   0.36905   0.38456   0.01267  Uiso   1.00
H1     H     0.21410   0.76590   0.02360   0.01267  Uiso   1.00
H2     H     0.09570   0.68630   0.05980   0.01267  Uiso   1.00
H3     H     0.96830   0.62810   0.92110   0.01267  Uiso   1.00
H4     H     0.08240   0.70820   0.88590   0.01267  Uiso   1.00
H5     H     0.80740   0.34560   0.21080   0.01267  Uiso   1.00
H6     H     0.79960   0.37660   0.12710   0.01267  Uiso   1.00
H7     H     0.99080   0.59320   0.16600   0.01267  Uiso   1.00
H8     H     0.99430   0.56310   0.25010   0.01267  Uiso   1.00
H9     H     0.38770   0.14010   0.86930   0.01267  Uiso   1.00
H10    H     0.45780   0.28260   0.88330   0.01267  Uiso   1.00
H11    H     0.60190   0.24790   0.00040   0.01267  Uiso   1.00
H12    H     0.53350   0.10590   0.98490   0.01267  Uiso   1.00
H13    H     0.59860   0.76420   0.90230   0.01267  Uiso   1.00
H14    H     0.66220   0.66680   0.91530   0.01267  Uiso   1.00
H15    H     0.44030   0.49710   0.93330   0.01267  Uiso   1.00
H16    H     0.37730   0.58970   0.91150   0.01267  Uiso   1.00
H17    H     0.76200   0.44960   0.07040   0.01267  Uiso   1.00
H18    H     0.86000   0.58660   0.95790   0.01267  Uiso   1.00
H19    H     0.00770   0.58030   0.08190   0.01267  Uiso   1.00
H20    H     0.71030   0.59790   0.96980   0.01267  Uiso   1.00
H21    H     0.69140   0.36280   0.98560   0.01267  Uiso   1.00
H22    H     0.49590   0.40890   0.92140   0.01267  Uiso   1.00
H23    H     0.76590   0.21410   0.52360   0.01267  Uiso   1.00
H24    H     0.68630   0.09570   0.55980   0.01267  Uiso   1.00
H25    H     0.62810   0.96830   0.42110   0.01267  Uiso   1.00
H26    H     0.70820   0.08240   0.38590   0.01267  Uiso   1.00
H27    H     0.34560   0.80740   0.71080   0.01267  Uiso   1.00
H28    H     0.37660   0.79960   0.62710   0.01267  Uiso   1.00
H29    H     0.59320   0.99080   0.66600   0.01267  Uiso   1.00
H30    H     0.56310   0.99430   0.75010   0.01267  Uiso   1.00
H31    H     0.14010   0.38770   0.36930   0.01267  Uiso   1.00
H32    H     0.28260   0.45780   0.38330   0.01267  Uiso   1.00
H33    H     0.24790   0.60190   0.50040   0.01267  Uiso   1.00
H34    H     0.10590   0.53350   0.48490   0.01267  Uiso   1.00
H35    H     0.76420   0.59860   0.40230   0.01267  Uiso   1.00
H36    H     0.66680   0.66220   0.41530   0.01267  Uiso   1.00
H37    H     0.49710   0.44030   0.43330   0.01267  Uiso   1.00
H38    H     0.58970   0.37730   0.41150   0.01267  Uiso   1.00
H39    H     0.44960   0.76200   0.57040   0.01267  Uiso   1.00
H40    H     0.58660   0.86000   0.45790   0.01267  Uiso   1.00
H41    H     0.58030   0.00770   0.58190   0.01267  Uiso   1.00
H42    H     0.59790   0.71030   0.46980   0.01267  Uiso   1.00
H43    H     0.36280   0.69140   0.48560   0.01267  Uiso   1.00
H44    H     0.40890   0.49590   0.42140   0.01267  Uiso   1.00
C1     C     0.15949   0.74549   0.95100   0.01267  Uiso   1.00
C2     C     0.16373   0.73817   0.00260   0.01267  Uiso   1.00
C3     C     0.09323   0.68959   0.02406   0.01267  Uiso   1.00
C4     C     0.01942   0.64610   0.99335   0.01267  Uiso   1.00
C5     C     0.01824   0.65580   0.94256   0.01267  Uiso   1.00
C6     C     0.08600   0.70368   0.92149   0.01267  Uiso   1.00
C7     C     0.90050   0.45180   0.23881   0.01267  Uiso   1.00
C8     C     0.84387   0.39673   0.20177   0.01267  Uiso   1.00
C9     C     0.83954   0.41484   0.15189   0.01267  Uiso   1.00
C10    C     0.89337   0.48867   0.13774   0.01267  Uiso   1.00
C11    C     0.95231   0.54323   0.17508   0.01267  Uiso   1.00
C12    C     0.95485   0.52501   0.22498   0.01267  Uiso   1.00
C13    C     0.45475   0.10941   0.92503   0.01267  Uiso   1.00
C14    C     0.43216   0.16220   0.89557   0.01267  Uiso   1.00
C15    C     0.47375   0.24707   0.90399   0.01267  Uiso   1.00
C16    C     0.53861   0.28049   0.94237   0.01267  Uiso   1.00
C17    C     0.55919   0.22615   0.97311   0.01267  Uiso   1.00
C18    C     0.51820   0.14180   0.96419   0.01267  Uiso   1.00
C19    C     0.47947   0.68667   0.90694   0.01267  Uiso   1.00
C20    C     0.55615   0.57331   0.92993   0.01267  Uiso   1.00
C21    C     0.56600   0.70940   0.90800   0.01267  Uiso   1.00
C22    C     0.60450   0.65250   0.91730   0.01267  Uiso   1.00
C23    C     0.47340   0.55140   0.92690   0.01267  Uiso   1.00
C24    C     0.43590   0.60750   0.91470   0.01267  Uiso   1.00
C25    C     0.88660   0.51270   0.08516   0.01267  Uiso   1.00
C26    C     0.80853   0.48637   0.05679   0.01267  Uiso   1.00
C27    C     0.79796   0.51282   0.00953   0.01267  Uiso   1.00
C28    C     0.86695   0.56663   0.98980   0.01267  Uiso   1.00
C29    C     0.94595   0.59165   0.01622   0.01267  Uiso   1.00
C30    C     0.95421   0.56383   0.06367   0.01267  Uiso   1.00
C31    C     0.59606   0.51332   0.94373   0.01267  Uiso   1.00
C32    C     0.67820   0.54046   0.96587   0.01267  Uiso   1.00
C33    C     0.71316   0.48456   0.98219   0.01267  Uiso   1.00
C34    C     0.66724   0.40100   0.97460   0.01267  Uiso   1.00
C35    C     0.58642   0.37144   0.95126   0.01267  Uiso   1.00
C36    C     0.55152   0.42828   0.93662   0.01267  Uiso   1.00
C37    C     0.23552   0.79376   0.92807   0.01267  Uiso   1.00
C38    C     0.90187   0.43493   0.29384   0.01267  Uiso   1.00
C39    C     0.41552   0.01816   0.91293   0.01267  Uiso   1.00
C40    C     0.43775   0.74657   0.89675   0.01267  Uiso   1.00
C41    C     0.74549   0.15949   0.45100   0.01267  Uiso   1.00
C42    C     0.73817   0.16373   0.50260   0.01267  Uiso   1.00
C43    C     0.68959   0.09323   0.52406   0.01267  Uiso   1.00
C44    C     0.64610   0.01942   0.49335   0.01267  Uiso   1.00
C45    C     0.65580   0.01824   0.44256   0.01267  Uiso   1.00
C46    C     0.70368   0.08600   0.42149   0.01267  Uiso   1.00
C47    C     0.45180   0.90050   0.73881   0.01267  Uiso   1.00
C48    C     0.39673   0.84387   0.70177   0.01267  Uiso   1.00
C49    C     0.41484   0.83954   0.65189   0.01267  Uiso   1.00
C50    C     0.48867   0.89337   0.63774   0.01267  Uiso   1.00
C51    C     0.54323   0.95231   0.67508   0.01267  Uiso   1.00
C52    C     0.52501   0.95485   0.72498   0.01267  Uiso   1.00
C53    C     0.10941   0.45475   0.42503   0.01267  Uiso   1.00
C54    C     0.16220   0.43216   0.39557   0.01267  Uiso   1.00
C55    C     0.24707   0.47375   0.40399   0.01267  Uiso   1.00
C56    C     0.28049   0.53861   0.44237   0.01267  Uiso   1.00
C57    C     0.22615   0.55919   0.47311   0.01267  Uiso   1.00
C58    C     0.14180   0.51820   0.46419   0.01267  Uiso   1.00
C59    C     0.68667   0.47947   0.40694   0.01267  Uiso   1.00
C60    C     0.57331   0.55615   0.42993   0.01267  Uiso   1.00
C61    C     0.70940   0.56600   0.40800   0.01267  Uiso   1.00
C62    C     0.65250   0.60450   0.41730   0.01267  Uiso   1.00
C63    C     0.55140   0.47340   0.42690   0.01267  Uiso   1.00
C64    C     0.60750   0.43590   0.41470   0.01267  Uiso   1.00
C65    C     0.51270   0.88660   0.58516   0.01267  Uiso   1.00
C66    C     0.48637   0.80853   0.55679   0.01267  Uiso   1.00
C67    C     0.51282   0.79796   0.50953   0.01267  Uiso   1.00
C68    C     0.56663   0.86695   0.48980   0.01267  Uiso   1.00
C69    C     0.59165   0.94595   0.51622   0.01267  Uiso   1.00
C70    C     0.56383   0.95421   0.56367   0.01267  Uiso   1.00
C71    C     0.51332   0.59606   0.44373   0.01267  Uiso   1.00
C72    C     0.54046   0.67820   0.46587   0.01267  Uiso   1.00
C73    C     0.48456   0.71316   0.48219   0.01267  Uiso   1.00
C74    C     0.40100   0.66724   0.47460   0.01267  Uiso   1.00
C75    C     0.37144   0.58642   0.45126   0.01267  Uiso   1.00
C76    C     0.42828   0.55152   0.43662   0.01267  Uiso   1.00
C77    C     0.79376   0.23552   0.42807   0.01267  Uiso   1.00
C78    C     0.43493   0.90187   0.79384   0.01267  Uiso   1.00
C79    C     0.01816   0.41552   0.41293   0.01267  Uiso   1.00
C80    C     0.74657   0.43775   0.39675   0.01267  Uiso   1.00
O1     O     0.23197   0.79943   0.88049   0.01267  Uiso   1.00
O2     O     0.30356   0.82622   0.95540   0.01267  Uiso   1.00
O3     O     0.84749   0.36757   0.30442   0.01267  Uiso   1.00
O4     O     0.95275   0.48579   0.32677   0.01267  Uiso   1.00
O5     O     0.35069   0.98523   0.88249   0.01267  Uiso   1.00
O6     O     0.45116   0.97264   0.93286   0.01267  Uiso   1.00
O7     O     0.47902   0.82360   0.90260   0.01267  Uiso   1.00
O8     O     0.36184   0.72198   0.88341   0.01267  Uiso   1.00
O9     O     0.79943   0.23197   0.38049   0.01267  Uiso   1.00
O10    O     0.82622   0.30356   0.45540   0.01267  Uiso   1.00
O11    O     0.36757   0.84749   0.80442   0.01267  Uiso   1.00
O12    O     0.48579   0.95275   0.82677   0.01267  Uiso   1.00
O13    O     0.98523   0.35069   0.38249   0.01267  Uiso   1.00
O14    O     0.97264   0.45116   0.43286   0.01267  Uiso   1.00
O15    O     0.82360   0.47902   0.40260   0.01267  Uiso   1.00
O16    O     0.72198   0.36184   0.38341   0.01267  Uiso   1.00
In3    In    0.14055   0.63095   0.61544   0.01267  Uiso   1.00
In4    In    0.63095   0.14055   0.11544   0.01267  Uiso   1.00
H45    H     0.23410   0.78590   0.47640   0.01267  Uiso   1.00
H46    H     0.31370   0.90430   0.44020   0.01267  Uiso   1.00
H47    H     0.37190   0.03170   0.57890   0.01267  Uiso   1.00
H48    H     0.29180   0.91760   0.61410   0.01267  Uiso   1.00
H49    H     0.65440   0.19260   0.28920   0.01267  Uiso   1.00
H50    H     0.62340   0.20040   0.37290   0.01267  Uiso   1.00
H51    H     0.40680   0.00920   0.33400   0.01267  Uiso   1.00
H52    H     0.43690   0.00570   0.24990   0.01267  Uiso   1.00
H53    H     0.85990   0.61230   0.63070   0.01267  Uiso   1.00
H54    H     0.71740   0.54220   0.61670   0.01267  Uiso   1.00
H55    H     0.75210   0.39810   0.49960   0.01267  Uiso   1.00
H56    H     0.89410   0.46650   0.51510   0.01267  Uiso   1.00
H57    H     0.23580   0.40140   0.59770   0.01267  Uiso   1.00
H58    H     0.33320   0.33780   0.58470   0.01267  Uiso   1.00
H59    H     0.50290   0.55970   0.56670   0.01267  Uiso   1.00
H60    H     0.41030   0.62270   0.58850   0.01267  Uiso   1.00
H61    H     0.55040   0.23800   0.42960   0.01267  Uiso   1.00
H62    H     0.41340   0.14000   0.54210   0.01267  Uiso   1.00
H63    H     0.41970   0.99230   0.41810   0.01267  Uiso   1.00
H64    H     0.40210   0.28970   0.53020   0.01267  Uiso   1.00
H65    H     0.63720   0.30860   0.51440   0.01267  Uiso   1.00
H66    H     0.59110   0.50410   0.57860   0.01267  Uiso   1.00
H67    H     0.78590   0.23410   0.97640   0.01267  Uiso   1.00
H68    H     0.90430   0.31370   0.94020   0.01267  Uiso   1.00
H69    H     0.03170   0.37190   0.07890   0.01267  Uiso   1.00
H70    H     0.91760   0.29180   0.11410   0.01267  Uiso   1.00
H71    H     0.19260   0.65440   0.78920   0.01267  Uiso   1.00
H72    H     0.20040   0.62340   0.87290   0.01267  Uiso   1.00
H73    H     0.00920   0.40680   0.83400   0.01267  Uiso   1.00
H74    H     0.00570   0.43690   0.74990   0.01267  Uiso   1.00
H75    H     0.61230   0.85990   0.13070   0.01267  Uiso   1.00
H76    H     0.54220   0.71740   0.11670   0.01267  Uiso   1.00
H77    H     0.39810   0.75210   0.99960   0.01267  Uiso   1.00
H78    H     0.46650   0.89410   0.01510   0.01267  Uiso   1.00
H79    H     0.40140   0.23580   0.09770   0.01267  Uiso   1.00
H80    H     0.33780   0.33320   0.08470   0.01267  Uiso   1.00
H81    H     0.55970   0.50290   0.06670   0.01267  Uiso   1.00
H82    H     0.62270   0.41030   0.08850   0.01267  Uiso   1.00
H83    H     0.23800   0.55040   0.92960   0.01267  Uiso   1.00
H84    H     0.14000   0.41340   0.04210   0.01267  Uiso   1.00
H85    H     0.99230   0.41970   0.91810   0.01267  Uiso   1.00
H86    H     0.28970   0.40210   0.03020   0.01267  Uiso   1.00
H87    H     0.30860   0.63720   0.01440   0.01267  Uiso   1.00
H88    H     0.50410   0.59110   0.07860   0.01267  Uiso   1.00
C81    C     0.25451   0.84051   0.54900   0.01267  Uiso   1.00
C82    C     0.26183   0.83627   0.49740   0.01267  Uiso   1.00
C83    C     0.31041   0.90677   0.47594   0.01267  Uiso   1.00
C84    C     0.35390   0.98058   0.50665   0.01267  Uiso   1.00
C85    C     0.34420   0.98176   0.55744   0.01267  Uiso   1.00
C86    C     0.29632   0.91400   0.57851   0.01267  Uiso   1.00
C87    C     0.54820   0.09950   0.26119   0.01267  Uiso   1.00
C88    C     0.60327   0.15613   0.29823   0.01267  Uiso   1.00
C89    C     0.58516   0.16046   0.34811   0.01267  Uiso   1.00
C90    C     0.51133   0.10663   0.36226   0.01267  Uiso   1.00
C91    C     0.45677   0.04769   0.32492   0.01267  Uiso   1.00
C92    C     0.47499   0.04515   0.27502   0.01267  Uiso   1.00
C93    C     0.89059   0.54525   0.57497   0.01267  Uiso   1.00
C94    C     0.83780   0.56784   0.60443   0.01267  Uiso   1.00
C95    C     0.75293   0.52625   0.59601   0.01267  Uiso   1.00
C96    C     0.71951   0.46139   0.55763   0.01267  Uiso   1.00
C97    C     0.77385   0.44081   0.52689   0.01267  Uiso   1.00
C98    C     0.85820   0.48180   0.53581   0.01267  Uiso   1.00
C99    C     0.31333   0.52053   0.59306   0.01267  Uiso   1.00
C100   C     0.42669   0.44385   0.57007   0.01267  Uiso   1.00
C101   C     0.29060   0.43400   0.59200   0.01267  Uiso   1.00
C102   C     0.34750   0.39550   0.58270   0.01267  Uiso   1.00
C103   C     0.44860   0.52660   0.57310   0.01267  Uiso   1.00
C104   C     0.39250   0.56410   0.58530   0.01267  Uiso   1.00
C105   C     0.48730   0.11340   0.41484   0.01267  Uiso   1.00
C106   C     0.51363   0.19147   0.44321   0.01267  Uiso   1.00
C107   C     0.48718   0.20204   0.49047   0.01267  Uiso   1.00
C108   C     0.43337   0.13305   0.51020   0.01267  Uiso   1.00
C109   C     0.40835   0.05405   0.48378   0.01267  Uiso   1.00
C110   C     0.43617   0.04579   0.43633   0.01267  Uiso   1.00
C111   C     0.48668   0.40394   0.55627   0.01267  Uiso   1.00
C112   C     0.45954   0.32180   0.53413   0.01267  Uiso   1.00
C113   C     0.51544   0.28684   0.51781   0.01267  Uiso   1.00
C114   C     0.59900   0.33276   0.52540   0.01267  Uiso   1.00
C115   C     0.62856   0.41358   0.54874   0.01267  Uiso   1.00
C116   C     0.57172   0.44848   0.56338   0.01267  Uiso   1.00
C117   C     0.20624   0.76448   0.57193   0.01267  Uiso   1.00
C118   C     0.56507   0.09813   0.20616   0.01267  Uiso   1.00
C119   C     0.98184   0.58448   0.58707   0.01267  Uiso   1.00
C120   C     0.25343   0.56225   0.60325   0.01267  Uiso   1.00
C121   C     0.84051   0.25451   0.04900   0.01267  Uiso   1.00
C122   C     0.83627   0.26183   0.99740   0.01267  Uiso   1.00
C123   C     0.90677   0.31041   0.97594   0.01267  Uiso   1.00
C124   C     0.98058   0.35390   0.00665   0.01267  Uiso   1.00
C125   C     0.98176   0.34420   0.05744   0.01267  Uiso   1.00
C126   C     0.91400   0.29632   0.07851   0.01267  Uiso   1.00
C127   C     0.09950   0.54820   0.76119   0.01267  Uiso   1.00
C128   C     0.15613   0.60327   0.79823   0.01267  Uiso   1.00
C129   C     0.16046   0.58516   0.84811   0.01267  Uiso   1.00
C130   C     0.10663   0.51133   0.86226   0.01267  Uiso   1.00
C131   C     0.04769   0.45677   0.82492   0.01267  Uiso   1.00
C132   C     0.04515   0.47499   0.77502   0.01267  Uiso   1.00
C133   C     0.54525   0.89059   0.07497   0.01267  Uiso   1.00
C134   C     0.56784   0.83780   0.10443   0.01267  Uiso   1.00
C135   C     0.52625   0.75293   0.09601   0.01267  Uiso   1.00
C136   C     0.46139   0.71951   0.05763   0.01267  Uiso   1.00
C137   C     0.44081   0.77385   0.02689   0.01267  Uiso   1.00
C138   C     0.48180   0.85820   0.03581   0.01267  Uiso   1.00
C139   C     0.52053   0.31333   0.09306   0.01267  Uiso   1.00
C140   C     0.44385   0.42669   0.07007   0.01267  Uiso   1.00
C141   C     0.43400   0.29060   0.09200   0.01267  Uiso   1.00
C142   C     0.39550   0.34750   0.08270   0.01267  Uiso   1.00
C143   C     0.52660   0.44860   0.07310   0.01267  Uiso   1.00
C144   C     0.56410   0.39250   0.08530   0.01267  Uiso   1.00
C145   C     0.11340   0.48730   0.91484   0.01267  Uiso   1.00
C146   C     0.19147   0.51363   0.94321   0.01267  Uiso   1.00
C147   C     0.20204   0.48718   0.99047   0.01267  Uiso   1.00
C148   C     0.13305   0.43337   0.01020   0.01267  Uiso   1.00
C149   C     0.05405   0.40835   0.98378   0.01267  Uiso   1.00
C150   C     0.04579   0.43617   0.93633   0.01267  Uiso   1.00
C151   C     0.40394   0.48668   0.05627   0.01267  Uiso   1.00
C152   C     0.32180   0.45954   0.03413   0.01267  Uiso   1.00
C153   C     0.28684   0.51544   0.01781   0.01267  Uiso   1.00
C154   C     0.33276   0.59900   0.02540   0.01267  Uiso   1.00
C155   C     0.41358   0.62856   0.04874   0.01267  Uiso   1.00
C156   C     0.44848   0.57172   0.06338   0.01267  Uiso   1.00
C157   C     0.76448   0.20624   0.07193   0.01267  Uiso   1.00
C158   C     0.09813   0.56507   0.70616   0.01267  Uiso   1.00
C159   C     0.58448   0.98184   0.08707   0.01267  Uiso   1.00
C160   C     0.56225   0.25343   0.10325   0.01267  Uiso   1.00
O17    O     0.20057   0.76803   0.61951   0.01267  Uiso   1.00
O18    O     0.17378   0.69644   0.54460   0.01267  Uiso   1.00
O19    O     0.63243   0.15251   0.19558   0.01267  Uiso   1.00
O20    O     0.51421   0.04725   0.17323   0.01267  Uiso   1.00
O21    O     0.01477   0.64931   0.61751   0.01267  Uiso   1.00
O22    O     0.02736   0.54884   0.56714   0.01267  Uiso   1.00
O23    O     0.17640   0.52098   0.59740   0.01267  Uiso   1.00
O24    O     0.27802   0.63816   0.61659   0.01267  Uiso   1.00
O25    O     0.76803   0.20057   0.11951   0.01267  Uiso   1.00
O26    O     0.69644   0.17378   0.04460   0.01267  Uiso   1.00
O27    O     0.15251   0.63243   0.69558   0.01267  Uiso   1.00
O28    O     0.04725   0.51421   0.67323   0.01267  Uiso   1.00
O29    O     0.64931   0.01477   0.11751   0.01267  Uiso   1.00
O30    O     0.54884   0.02736   0.06714   0.01267  Uiso   1.00
O31    O     0.52098   0.17640   0.09740   0.01267  Uiso   1.00
O32    O     0.63816   0.27802   0.11659   0.01267  Uiso   1.00
H89    H     0.63310   0.95190   0.88470   0.01267  Uiso   1.00
H90    H     0.56350   0.97330   0.90400   0.01267  Uiso   1.00
H91    H     0.62590   0.92650   0.96810   0.01267  Uiso   1.00
H92    H     0.71110   0.99930   0.96210   0.01267  Uiso   1.00
H93    H     0.63570   0.02090   0.98270   0.01267  Uiso   1.00
H94    H     0.63720   0.07840   0.85820   0.01267  Uiso   1.00
H95    H     0.64640   0.11340   0.91680   0.01267  Uiso   1.00
H96    H     0.71930   0.08950   0.89430   0.01267  Uiso   1.00
C161   C     0.65075   0.98325   0.95929   0.01267  Uiso   1.00
C162   C     0.65910   0.07490   0.89280   0.01267  Uiso   1.00
N1     N     0.62017   0.98807   0.90677   0.01267  Uiso   1.00
H97    H     0.04810   0.36690   0.61530   0.01267  Uiso   1.00
H98    H     0.02670   0.43650   0.59600   0.01267  Uiso   1.00
H99    H     0.07350   0.37410   0.53190   0.01267  Uiso   1.00
H100   H     0.00070   0.28890   0.53790   0.01267  Uiso   1.00
H101   H     0.97910   0.36430   0.51730   0.01267  Uiso   1.00
H102   H     0.92160   0.36280   0.64180   0.01267  Uiso   1.00
H103   H     0.88660   0.35360   0.58320   0.01267  Uiso   1.00
H104   H     0.91050   0.28070   0.60570   0.01267  Uiso   1.00
C163   C     0.01675   0.34925   0.54071   0.01267  Uiso   1.00
C164   C     0.92510   0.34090   0.60720   0.01267  Uiso   1.00
N2     N     0.01193   0.37983   0.59323   0.01267  Uiso   1.00
H105   H     0.36690   0.04810   0.11530   0.01267  Uiso   1.00
H106   H     0.43650   0.02670   0.09600   0.01267  Uiso   1.00
H107   H     0.37410   0.07350   0.03190   0.01267  Uiso   1.00
H108   H     0.28890   0.00070   0.03790   0.01267  Uiso   1.00
H109   H     0.36430   0.97910   0.01730   0.01267  Uiso   1.00
H110   H     0.36280   0.92160   0.14180   0.01267  Uiso   1.00
H111   H     0.35360   0.88660   0.08320   0.01267  Uiso   1.00
H112   H     0.28070   0.91050   0.10570   0.01267  Uiso   1.00
C165   C     0.34925   0.01675   0.04071   0.01267  Uiso   1.00
C166   C     0.34090   0.92510   0.10720   0.01267  Uiso   1.00
N3     N     0.37983   0.01193   0.09323   0.01267  Uiso   1.00
H113   H     0.95190   0.63310   0.38470   0.01267  Uiso   1.00
H114   H     0.97330   0.56350   0.40400   0.01267  Uiso   1.00
H115   H     0.92650   0.62590   0.46810   0.01267  Uiso   1.00
H116   H     0.99930   0.71110   0.46210   0.01267  Uiso   1.00
H117   H     0.02090   0.63570   0.48270   0.01267  Uiso   1.00
H118   H     0.07840   0.63720   0.35820   0.01267  Uiso   1.00
H119   H     0.11340   0.64640   0.41680   0.01267  Uiso   1.00
H120   H     0.08950   0.71930   0.39430   0.01267  Uiso   1.00
C167   C     0.98325   0.65075   0.45929   0.01267  Uiso   1.00
C168   C     0.07490   0.65910   0.39280   0.01267  Uiso   1.00
N4     N     0.98807   0.62017   0.40677   0.01267  Uiso   1.00
