data_GAZZIS04_charged
_audit_creation_date              2014-07-02
_audit_creation_method            'Materials Studio'
_symmetry_space_group_name_H-M    'P1'
_symmetry_Int_Tables_number       1
_symmetry_cell_setting            triclinic
loop_
_symmetry_equiv_pos_as_xyz
  x,y,z
_cell_length_a                    17.3712
_cell_length_b                    17.3712
_cell_length_c                    26.7850
_cell_angle_alpha                 93.3913
_cell_angle_beta                  93.3913
_cell_angle_gamma                 111.1330
loop_
_atom_site_label
_atom_site_type_symbol
_atom_site_fract_x
_atom_site_fract_y
_atom_site_fract_z
_atom_site_U_iso_or_equiv
_atom_site_adp_type
_atom_site_occupancy
In1    In    0.37202   0.85578   0.88457   0.01267  Uiso   1.00
In2    In    0.85578   0.37202   0.38457   0.01267  Uiso   1.00
H1     H     0.21140   0.76280   0.02360   0.01267  Uiso   1.00
H2     H     0.09420   0.68380   0.05980   0.01267  Uiso   1.00
H3     H     0.96990   0.62090   0.92370   0.01267  Uiso   1.00
H4     H     0.08640   0.70180   0.88800   0.01267  Uiso   1.00
H5     H     0.79800   0.34220   0.21150   0.01267  Uiso   1.00
H6     H     0.79410   0.37430   0.12960   0.01267  Uiso   1.00
H7     H     0.98150   0.59190   0.16740   0.01267  Uiso   1.00
H8     H     0.98390   0.56090   0.24990   0.01267  Uiso   1.00
H9     H     0.39150   0.13950   0.86900   0.01267  Uiso   1.00
H10    H     0.46250   0.28110   0.88320   0.01267  Uiso   1.00
H11    H     0.59760   0.24180   0.99950   0.01267  Uiso   1.00
H12    H     0.53060   0.10200   0.98310   0.01267  Uiso   1.00
H13    H     0.57620   0.76360   0.95590   0.01267  Uiso   1.00
H14    H     0.63330   0.67010   0.97810   0.01267  Uiso   1.00
H15    H     0.45400   0.48960   0.89260   0.01267  Uiso   1.00
H16    H     0.39390   0.58530   0.86840   0.01267  Uiso   1.00
H17    H     0.75780   0.44680   0.07290   0.01267  Uiso   1.00
H18    H     0.85990   0.58330   0.96030   0.01267  Uiso   1.00
H19    H     0.00200   0.57820   0.08350   0.01267  Uiso   1.00
H20    H     0.70910   0.59490   0.97310   0.01267  Uiso   1.00
H21    H     0.68980   0.35940   0.98650   0.01267  Uiso   1.00
H22    H     0.49730   0.40650   0.92260   0.01267  Uiso   1.00
H23    H     0.76280   0.21140   0.52360   0.01267  Uiso   1.00
H24    H     0.68380   0.09420   0.55980   0.01267  Uiso   1.00
H25    H     0.62090   0.96990   0.42370   0.01267  Uiso   1.00
H26    H     0.70180   0.08640   0.38800   0.01267  Uiso   1.00
H27    H     0.34220   0.79800   0.71150   0.01267  Uiso   1.00
H28    H     0.37430   0.79410   0.62960   0.01267  Uiso   1.00
H29    H     0.59190   0.98150   0.66740   0.01267  Uiso   1.00
H30    H     0.56090   0.98390   0.74990   0.01267  Uiso   1.00
H31    H     0.13950   0.39150   0.36900   0.01267  Uiso   1.00
H32    H     0.28110   0.46250   0.38320   0.01267  Uiso   1.00
H33    H     0.24180   0.59760   0.49950   0.01267  Uiso   1.00
H34    H     0.10200   0.53060   0.48310   0.01267  Uiso   1.00
H35    H     0.76360   0.57620   0.45590   0.01267  Uiso   1.00
H36    H     0.67010   0.63330   0.47810   0.01267  Uiso   1.00
H37    H     0.48960   0.45400   0.39260   0.01267  Uiso   1.00
H38    H     0.58530   0.39390   0.36840   0.01267  Uiso   1.00
H39    H     0.44680   0.75780   0.57290   0.01267  Uiso   1.00
H40    H     0.58330   0.85990   0.46030   0.01267  Uiso   1.00
H41    H     0.57820   0.00200   0.58350   0.01267  Uiso   1.00
H42    H     0.59490   0.70910   0.47310   0.01267  Uiso   1.00
H43    H     0.35940   0.68980   0.48650   0.01267  Uiso   1.00
H44    H     0.40650   0.49730   0.42260   0.01267  Uiso   1.00
C1     C     0.16093   0.74093   0.95270   0.01267  Uiso   1.00
C2     C     0.16220   0.73440   0.00315   0.01267  Uiso   1.00
C3     C     0.09213   0.68667   0.02487   0.01267  Uiso   1.00
C4     C     0.01847   0.64281   0.99525   0.01267  Uiso   1.00
C5     C     0.01875   0.64985   0.94445   0.01267  Uiso   1.00
C6     C     0.08834   0.69806   0.92284   0.01267  Uiso   1.00
C7     C     0.89048   0.44892   0.23904   0.01267  Uiso   1.00
C8     C     0.83461   0.39325   0.20259   0.01267  Uiso   1.00
C9     C     0.83256   0.41244   0.15378   0.01267  Uiso   1.00
C10    C     0.88665   0.48779   0.13928   0.01267  Uiso   1.00
C11    C     0.94346   0.54164   0.17630   0.01267  Uiso   1.00
C12    C     0.94542   0.52318   0.22551   0.01267  Uiso   1.00
C13    C     0.45629   0.10623   0.92390   0.01267  Uiso   1.00
C14    C     0.43462   0.16052   0.89477   0.01267  Uiso   1.00
C15    C     0.47627   0.24505   0.90364   0.01267  Uiso   1.00
C16    C     0.53891   0.27747   0.94291   0.01267  Uiso   1.00
C17    C     0.55680   0.22148   0.97237   0.01267  Uiso   1.00
C18    C     0.51667   0.13809   0.96279   0.01267  Uiso   1.00
C19    C     0.48146   0.68402   0.90960   0.01267  Uiso   1.00
C20    C     0.55685   0.57097   0.93289   0.01267  Uiso   1.00
C21    C     0.55210   0.70830   0.94210   0.01267  Uiso   1.00
C22    C     0.58700   0.65280   0.95430   0.01267  Uiso   1.00
C23    C     0.48080   0.54600   0.90350   0.01267  Uiso   1.00
C24    C     0.44280   0.60240   0.88980   0.01267  Uiso   1.00
C25    C     0.88080   0.51092   0.08742   0.01267  Uiso   1.00
C26    C     0.80447   0.48369   0.05949   0.01267  Uiso   1.00
C27    C     0.79584   0.51002   0.01199   0.01267  Uiso   1.00
C28    C     0.86562   0.56386   0.99177   0.01267  Uiso   1.00
C29    C     0.94386   0.58886   0.01818   0.01267  Uiso   1.00
C30    C     0.94971   0.56169   0.06560   0.01267  Uiso   1.00
C31    C     0.59618   0.51066   0.94636   0.01267  Uiso   1.00
C32    C     0.67743   0.53785   0.96866   0.01267  Uiso   1.00
C33    C     0.71165   0.48143   0.98430   0.01267  Uiso   1.00
C34    C     0.66605   0.39723   0.97601   0.01267  Uiso   1.00
C35    C     0.58629   0.36757   0.95262   0.01267  Uiso   1.00
C36    C     0.55154   0.42552   0.93812   0.01267  Uiso   1.00
C37    C     0.23714   0.78934   0.92907   0.01267  Uiso   1.00
C38    C     0.89023   0.43137   0.29406   0.01267  Uiso   1.00
C39    C     0.41742   0.01478   0.91143   0.01267  Uiso   1.00
C40    C     0.44043   0.74403   0.89911   0.01267  Uiso   1.00
C41    C     0.74093   0.16093   0.45270   0.01267  Uiso   1.00
C42    C     0.73440   0.16220   0.50315   0.01267  Uiso   1.00
C43    C     0.68667   0.09213   0.52487   0.01267  Uiso   1.00
C44    C     0.64281   0.01847   0.49525   0.01267  Uiso   1.00
C45    C     0.64985   0.01875   0.44445   0.01267  Uiso   1.00
C46    C     0.69806   0.08834   0.42284   0.01267  Uiso   1.00
C47    C     0.44892   0.89048   0.73904   0.01267  Uiso   1.00
C48    C     0.39325   0.83461   0.70259   0.01267  Uiso   1.00
C49    C     0.41244   0.83256   0.65378   0.01267  Uiso   1.00
C50    C     0.48779   0.88665   0.63928   0.01267  Uiso   1.00
C51    C     0.54164   0.94346   0.67630   0.01267  Uiso   1.00
C52    C     0.52318   0.94542   0.72551   0.01267  Uiso   1.00
C53    C     0.10623   0.45629   0.42390   0.01267  Uiso   1.00
C54    C     0.16052   0.43462   0.39477   0.01267  Uiso   1.00
C55    C     0.24505   0.47627   0.40364   0.01267  Uiso   1.00
C56    C     0.27747   0.53891   0.44291   0.01267  Uiso   1.00
C57    C     0.22148   0.55680   0.47237   0.01267  Uiso   1.00
C58    C     0.13809   0.51667   0.46279   0.01267  Uiso   1.00
C59    C     0.68402   0.48146   0.40960   0.01267  Uiso   1.00
C60    C     0.57097   0.55685   0.43289   0.01267  Uiso   1.00
C61    C     0.70830   0.55210   0.44210   0.01267  Uiso   1.00
C62    C     0.65280   0.58700   0.45430   0.01267  Uiso   1.00
C63    C     0.54600   0.48080   0.40350   0.01267  Uiso   1.00
C64    C     0.60240   0.44280   0.38980   0.01267  Uiso   1.00
C65    C     0.51092   0.88080   0.58742   0.01267  Uiso   1.00
C66    C     0.48369   0.80447   0.55949   0.01267  Uiso   1.00
C67    C     0.51002   0.79584   0.51199   0.01267  Uiso   1.00
C68    C     0.56386   0.86562   0.49177   0.01267  Uiso   1.00
C69    C     0.58886   0.94386   0.51818   0.01267  Uiso   1.00
C70    C     0.56169   0.94971   0.56560   0.01267  Uiso   1.00
C71    C     0.51066   0.59618   0.44636   0.01267  Uiso   1.00
C72    C     0.53785   0.67743   0.46866   0.01267  Uiso   1.00
C73    C     0.48143   0.71165   0.48430   0.01267  Uiso   1.00
C74    C     0.39723   0.66605   0.47601   0.01267  Uiso   1.00
C75    C     0.36757   0.58629   0.45262   0.01267  Uiso   1.00
C76    C     0.42552   0.55154   0.43812   0.01267  Uiso   1.00
C77    C     0.78934   0.23714   0.42907   0.01267  Uiso   1.00
C78    C     0.43137   0.89023   0.79406   0.01267  Uiso   1.00
C79    C     0.01478   0.41742   0.41143   0.01267  Uiso   1.00
C80    C     0.74403   0.44043   0.39911   0.01267  Uiso   1.00
O1     O     0.23477   0.79599   0.88268   0.01267  Uiso   1.00
O2     O     0.30530   0.82186   0.95554   0.01267  Uiso   1.00
O3     O     0.83925   0.36249   0.30437   0.01267  Uiso   1.00
O4     O     0.93858   0.48382   0.32607   0.01267  Uiso   1.00
O5     O     0.35452   0.98296   0.88055   0.01267  Uiso   1.00
O6     O     0.45174   0.96932   0.93112   0.01267  Uiso   1.00
O7     O     0.48105   0.82049   0.90587   0.01267  Uiso   1.00
O8     O     0.36558   0.71894   0.88428   0.01267  Uiso   1.00
O9     O     0.79599   0.23477   0.38268   0.01267  Uiso   1.00
O10    O     0.82186   0.30530   0.45554   0.01267  Uiso   1.00
O11    O     0.36249   0.83925   0.80437   0.01267  Uiso   1.00
O12    O     0.48382   0.93858   0.82607   0.01267  Uiso   1.00
O13    O     0.98296   0.35452   0.38055   0.01267  Uiso   1.00
O14    O     0.96932   0.45174   0.43112   0.01267  Uiso   1.00
O15    O     0.82049   0.48105   0.40587   0.01267  Uiso   1.00
O16    O     0.71894   0.36558   0.38428   0.01267  Uiso   1.00
In3    In    0.14422   0.62798   0.61543   0.01267  Uiso   1.00
In4    In    0.62798   0.14422   0.11543   0.01267  Uiso   1.00
H45    H     0.23720   0.78860   0.47640   0.01267  Uiso   1.00
H46    H     0.31620   0.90580   0.44020   0.01267  Uiso   1.00
H47    H     0.37910   0.03010   0.57630   0.01267  Uiso   1.00
H48    H     0.29820   0.91360   0.61200   0.01267  Uiso   1.00
H49    H     0.65780   0.20200   0.28850   0.01267  Uiso   1.00
H50    H     0.62570   0.20590   0.37040   0.01267  Uiso   1.00
H51    H     0.40810   0.01850   0.33260   0.01267  Uiso   1.00
H52    H     0.43910   0.01610   0.25010   0.01267  Uiso   1.00
H53    H     0.86050   0.60850   0.63100   0.01267  Uiso   1.00
H54    H     0.71890   0.53750   0.61680   0.01267  Uiso   1.00
H55    H     0.75820   0.40240   0.50050   0.01267  Uiso   1.00
H56    H     0.89800   0.46940   0.51690   0.01267  Uiso   1.00
H57    H     0.23640   0.42380   0.54410   0.01267  Uiso   1.00
H58    H     0.32990   0.36670   0.52190   0.01267  Uiso   1.00
H59    H     0.51040   0.54600   0.60740   0.01267  Uiso   1.00
H60    H     0.41470   0.60610   0.63160   0.01267  Uiso   1.00
H61    H     0.55320   0.24220   0.42710   0.01267  Uiso   1.00
H62    H     0.41670   0.14010   0.53970   0.01267  Uiso   1.00
H63    H     0.42180   0.99800   0.41650   0.01267  Uiso   1.00
H64    H     0.40510   0.29090   0.52690   0.01267  Uiso   1.00
H65    H     0.64060   0.31020   0.51350   0.01267  Uiso   1.00
H66    H     0.59350   0.50270   0.57740   0.01267  Uiso   1.00
H67    H     0.78860   0.23720   0.97640   0.01267  Uiso   1.00
H68    H     0.90580   0.31620   0.94020   0.01267  Uiso   1.00
H69    H     0.03010   0.37910   0.07630   0.01267  Uiso   1.00
H70    H     0.91360   0.29820   0.11200   0.01267  Uiso   1.00
H71    H     0.20200   0.65780   0.78850   0.01267  Uiso   1.00
H72    H     0.20590   0.62570   0.87040   0.01267  Uiso   1.00
H73    H     0.01850   0.40810   0.83260   0.01267  Uiso   1.00
H74    H     0.01610   0.43910   0.75010   0.01267  Uiso   1.00
H75    H     0.60850   0.86050   0.13100   0.01267  Uiso   1.00
H76    H     0.53750   0.71890   0.11680   0.01267  Uiso   1.00
H77    H     0.40240   0.75820   0.00050   0.01267  Uiso   1.00
H78    H     0.46940   0.89800   0.01690   0.01267  Uiso   1.00
H79    H     0.42380   0.23640   0.04410   0.01267  Uiso   1.00
H80    H     0.36670   0.32990   0.02190   0.01267  Uiso   1.00
H81    H     0.54600   0.51040   0.10740   0.01267  Uiso   1.00
H82    H     0.60610   0.41470   0.13160   0.01267  Uiso   1.00
H83    H     0.24220   0.55320   0.92710   0.01267  Uiso   1.00
H84    H     0.14010   0.41670   0.03970   0.01267  Uiso   1.00
H85    H     0.99800   0.42180   0.91650   0.01267  Uiso   1.00
H86    H     0.29090   0.40510   0.02690   0.01267  Uiso   1.00
H87    H     0.31020   0.64060   0.01350   0.01267  Uiso   1.00
H88    H     0.50270   0.59350   0.07740   0.01267  Uiso   1.00
C81    C     0.25907   0.83907   0.54730   0.01267  Uiso   1.00
C82    C     0.26560   0.83780   0.49685   0.01267  Uiso   1.00
C83    C     0.31333   0.90787   0.47513   0.01267  Uiso   1.00
C84    C     0.35719   0.98153   0.50475   0.01267  Uiso   1.00
C85    C     0.35015   0.98125   0.55555   0.01267  Uiso   1.00
C86    C     0.30194   0.91166   0.57716   0.01267  Uiso   1.00
C87    C     0.55108   0.10952   0.26096   0.01267  Uiso   1.00
C88    C     0.60675   0.16539   0.29741   0.01267  Uiso   1.00
C89    C     0.58756   0.16744   0.34622   0.01267  Uiso   1.00
C90    C     0.51221   0.11335   0.36072   0.01267  Uiso   1.00
C91    C     0.45836   0.05654   0.32370   0.01267  Uiso   1.00
C92    C     0.47682   0.05458   0.27449   0.01267  Uiso   1.00
C93    C     0.89377   0.54371   0.57610   0.01267  Uiso   1.00
C94    C     0.83948   0.56538   0.60523   0.01267  Uiso   1.00
C95    C     0.75495   0.52373   0.59636   0.01267  Uiso   1.00
C96    C     0.72253   0.46109   0.55709   0.01267  Uiso   1.00
C97    C     0.77852   0.44320   0.52763   0.01267  Uiso   1.00
C98    C     0.86191   0.48333   0.53721   0.01267  Uiso   1.00
C99    C     0.31598   0.51854   0.59040   0.01267  Uiso   1.00
C100   C     0.42903   0.44315   0.56711   0.01267  Uiso   1.00
C101   C     0.29170   0.44790   0.55790   0.01267  Uiso   1.00
C102   C     0.34720   0.41300   0.54570   0.01267  Uiso   1.00
C103   C     0.45400   0.51920   0.59650   0.01267  Uiso   1.00
C104   C     0.39760   0.55720   0.61020   0.01267  Uiso   1.00
C105   C     0.48908   0.11920   0.41258   0.01267  Uiso   1.00
C106   C     0.51631   0.19553   0.44051   0.01267  Uiso   1.00
C107   C     0.48998   0.20416   0.48801   0.01267  Uiso   1.00
C108   C     0.43614   0.13438   0.50823   0.01267  Uiso   1.00
C109   C     0.41114   0.05614   0.48182   0.01267  Uiso   1.00
C110   C     0.43831   0.05029   0.43440   0.01267  Uiso   1.00
C111   C     0.48934   0.40382   0.55364   0.01267  Uiso   1.00
C112   C     0.46215   0.32257   0.53134   0.01267  Uiso   1.00
C113   C     0.51857   0.28835   0.51570   0.01267  Uiso   1.00
C114   C     0.60277   0.33395   0.52399   0.01267  Uiso   1.00
C115   C     0.63243   0.41371   0.54738   0.01267  Uiso   1.00
C116   C     0.57448   0.44846   0.56188   0.01267  Uiso   1.00
C117   C     0.21066   0.76286   0.57093   0.01267  Uiso   1.00
C118   C     0.56863   0.10977   0.20594   0.01267  Uiso   1.00
C119   C     0.98522   0.58258   0.58857   0.01267  Uiso   1.00
C120   C     0.25597   0.55957   0.60089   0.01267  Uiso   1.00
C121   C     0.83907   0.25907   0.04730   0.01267  Uiso   1.00
C122   C     0.83780   0.26560   0.99685   0.01267  Uiso   1.00
C123   C     0.90787   0.31333   0.97513   0.01267  Uiso   1.00
C124   C     0.98153   0.35719   0.00475   0.01267  Uiso   1.00
C125   C     0.98125   0.35015   0.05555   0.01267  Uiso   1.00
C126   C     0.91166   0.30194   0.07716   0.01267  Uiso   1.00
C127   C     0.10952   0.55108   0.76096   0.01267  Uiso   1.00
C128   C     0.16539   0.60675   0.79741   0.01267  Uiso   1.00
C129   C     0.16744   0.58756   0.84622   0.01267  Uiso   1.00
C130   C     0.11335   0.51221   0.86072   0.01267  Uiso   1.00
C131   C     0.05654   0.45836   0.82370   0.01267  Uiso   1.00
C132   C     0.05458   0.47682   0.77449   0.01267  Uiso   1.00
C133   C     0.54371   0.89377   0.07610   0.01267  Uiso   1.00
C134   C     0.56538   0.83948   0.10523   0.01267  Uiso   1.00
C135   C     0.52373   0.75495   0.09636   0.01267  Uiso   1.00
C136   C     0.46109   0.72253   0.05709   0.01267  Uiso   1.00
C137   C     0.44320   0.77852   0.02763   0.01267  Uiso   1.00
C138   C     0.48333   0.86191   0.03721   0.01267  Uiso   1.00
C139   C     0.51854   0.31598   0.09040   0.01267  Uiso   1.00
C140   C     0.44315   0.42903   0.06711   0.01267  Uiso   1.00
C141   C     0.44790   0.29170   0.05790   0.01267  Uiso   1.00
C142   C     0.41300   0.34720   0.04570   0.01267  Uiso   1.00
C143   C     0.51920   0.45400   0.09650   0.01267  Uiso   1.00
C144   C     0.55720   0.39760   0.11020   0.01267  Uiso   1.00
C145   C     0.11920   0.48908   0.91258   0.01267  Uiso   1.00
C146   C     0.19553   0.51631   0.94051   0.01267  Uiso   1.00
C147   C     0.20416   0.48998   0.98801   0.01267  Uiso   1.00
C148   C     0.13438   0.43614   0.00823   0.01267  Uiso   1.00
C149   C     0.05614   0.41114   0.98182   0.01267  Uiso   1.00
C150   C     0.05029   0.43831   0.93440   0.01267  Uiso   1.00
C151   C     0.40382   0.48934   0.05364   0.01267  Uiso   1.00
C152   C     0.32257   0.46215   0.03134   0.01267  Uiso   1.00
C153   C     0.28835   0.51857   0.01570   0.01267  Uiso   1.00
C154   C     0.33395   0.60277   0.02399   0.01267  Uiso   1.00
C155   C     0.41371   0.63243   0.04738   0.01267  Uiso   1.00
C156   C     0.44846   0.57448   0.06188   0.01267  Uiso   1.00
C157   C     0.76286   0.21066   0.07093   0.01267  Uiso   1.00
C158   C     0.10977   0.56863   0.70594   0.01267  Uiso   1.00
C159   C     0.58258   0.98522   0.08857   0.01267  Uiso   1.00
C160   C     0.55957   0.25597   0.10089   0.01267  Uiso   1.00
O17    O     0.20401   0.76523   0.61732   0.01267  Uiso   1.00
O18    O     0.17814   0.69470   0.54446   0.01267  Uiso   1.00
O19    O     0.63751   0.16075   0.19563   0.01267  Uiso   1.00
O20    O     0.51618   0.06142   0.17393   0.01267  Uiso   1.00
O21    O     0.01704   0.64548   0.61945   0.01267  Uiso   1.00
O22    O     0.03068   0.54826   0.56888   0.01267  Uiso   1.00
O23    O     0.17951   0.51895   0.59413   0.01267  Uiso   1.00
O24    O     0.28106   0.63442   0.61572   0.01267  Uiso   1.00
O25    O     0.76523   0.20401   0.11732   0.01267  Uiso   1.00
O26    O     0.69470   0.17814   0.04446   0.01267  Uiso   1.00
O27    O     0.16075   0.63751   0.69563   0.01267  Uiso   1.00
O28    O     0.06142   0.51618   0.67393   0.01267  Uiso   1.00
O29    O     0.64548   0.01704   0.11945   0.01267  Uiso   1.00
O30    O     0.54826   0.03068   0.06888   0.01267  Uiso   1.00
O31    O     0.51895   0.17951   0.09413   0.01267  Uiso   1.00
O32    O     0.63442   0.28106   0.11572   0.01267  Uiso   1.00
H89    H     0.63680   0.95100   0.88700   0.01267  Uiso   1.00
H90    H     0.56600   0.96880   0.90500   0.01267  Uiso   1.00
H91    H     0.63040   0.93160   0.96940   0.01267  Uiso   1.00
H92    H     0.71340   0.00520   0.96060   0.01267  Uiso   1.00
H93    H     0.63720   0.02460   0.97990   0.01267  Uiso   1.00
H94    H     0.63230   0.06890   0.85640   0.01267  Uiso   1.00
H95    H     0.64210   0.10770   0.91250   0.01267  Uiso   1.00
H96    H     0.71560   0.08660   0.89040   0.01267  Uiso   1.00
C161   C     0.65340   0.98700   0.95850   0.01267  Uiso   1.00
C162   C     0.65590   0.06930   0.89020   0.01267  Uiso   1.00
N1     N     0.62222   0.98658   0.90717   0.01267  Uiso   1.00
H97    H     0.04900   0.36320   0.61300   0.01267  Uiso   1.00
H98    H     0.03120   0.43400   0.59500   0.01267  Uiso   1.00
H99    H     0.06840   0.36960   0.53060   0.01267  Uiso   1.00
H100   H     0.99480   0.28660   0.53940   0.01267  Uiso   1.00
H101   H     0.97540   0.36280   0.52010   0.01267  Uiso   1.00
H102   H     0.93110   0.36770   0.64360   0.01267  Uiso   1.00
H103   H     0.89230   0.35790   0.58750   0.01267  Uiso   1.00
H104   H     0.91340   0.28440   0.60960   0.01267  Uiso   1.00
C163   C     0.01300   0.34660   0.54150   0.01267  Uiso   1.00
C164   C     0.93070   0.34410   0.60980   0.01267  Uiso   1.00
N2     N     0.01342   0.37778   0.59283   0.01267  Uiso   1.00
H105   H     0.36320   0.04900   0.11300   0.01267  Uiso   1.00
H106   H     0.43400   0.03120   0.09500   0.01267  Uiso   1.00
H107   H     0.36960   0.06840   0.03060   0.01267  Uiso   1.00
H108   H     0.28660   0.99480   0.03940   0.01267  Uiso   1.00
H109   H     0.36280   0.97540   0.02010   0.01267  Uiso   1.00
H110   H     0.36770   0.93110   0.14360   0.01267  Uiso   1.00
H111   H     0.35790   0.89230   0.08750   0.01267  Uiso   1.00
H112   H     0.28440   0.91340   0.10960   0.01267  Uiso   1.00
C165   C     0.34660   0.01300   0.04150   0.01267  Uiso   1.00
C166   C     0.34410   0.93070   0.10980   0.01267  Uiso   1.00
N3     N     0.37778   0.01342   0.09283   0.01267  Uiso   1.00
H113   H     0.95100   0.63680   0.38700   0.01267  Uiso   1.00
H114   H     0.96880   0.56600   0.40500   0.01267  Uiso   1.00
H115   H     0.93160   0.63040   0.46940   0.01267  Uiso   1.00
H116   H     0.00520   0.71340   0.46060   0.01267  Uiso   1.00
H117   H     0.02460   0.63720   0.47990   0.01267  Uiso   1.00
H118   H     0.06890   0.63230   0.35640   0.01267  Uiso   1.00
H119   H     0.10770   0.64210   0.41250   0.01267  Uiso   1.00
H120   H     0.08660   0.71560   0.39040   0.01267  Uiso   1.00
C167   C     0.98700   0.65340   0.45850   0.01267  Uiso   1.00
C168   C     0.06930   0.65590   0.39020   0.01267  Uiso   1.00
N4     N     0.98658   0.62222   0.40717   0.01267  Uiso   1.00
