data_GEDQOX_clean
_audit_creation_date              2014-07-02
_audit_creation_method            'Materials Studio'
_symmetry_space_group_name_H-M    'P1'
_symmetry_Int_Tables_number       1
_symmetry_cell_setting            triclinic
loop_
_symmetry_equiv_pos_as_xyz
  x,y,z
_cell_length_a                    13.2796
_cell_length_b                    14.9992
_cell_length_c                    16.1213
_cell_angle_alpha                 117.7230
_cell_angle_beta                  99.1245
_cell_angle_gamma                 90.0000
loop_
_atom_site_label
_atom_site_type_symbol
_atom_site_fract_x
_atom_site_fract_y
_atom_site_fract_z
_atom_site_U_iso_or_equiv
_atom_site_adp_type
_atom_site_occupancy
Nd1    Nd    0.95766   0.96710   0.36284   0.01267  Uiso   1.00
Nd2    Nd    0.54234   0.60426   0.63716   0.01267  Uiso   1.00
Nd3    Nd    0.04234   0.03290   0.63716   0.01267  Uiso   1.00
Nd4    Nd    0.45766   0.39574   0.36284   0.01267  Uiso   1.00
H1     H     0.04620   0.63590   0.11440   0.01267  Uiso   1.00
H2     H     0.09550   0.52640   0.97160   0.01267  Uiso   1.00
H3     H     0.13740   0.75760   0.91900   0.01267  Uiso   1.00
H4     H     0.09160   0.86730   0.06220   0.01267  Uiso   1.00
H5     H     0.19400   0.60200   0.82400   0.01267  Uiso   1.00
H6     H     0.27730   0.51350   0.71340   0.01267  Uiso   1.00
H7     H     0.08380   0.28910   0.67960   0.01267  Uiso   1.00
H8     H     0.20610   0.26560   0.45980   0.01267  Uiso   1.00
H9     H     0.45380   0.52150   0.88560   0.01267  Uiso   1.00
H10    H     0.40450   0.55480   0.02840   0.01267  Uiso   1.00
H11    H     0.36260   0.83860   0.08100   0.01267  Uiso   1.00
H12    H     0.40840   0.80510   0.93780   0.01267  Uiso   1.00
H13    H     0.30600   0.77800   0.17600   0.01267  Uiso   1.00
H14    H     0.22270   0.80010   0.28660   0.01267  Uiso   1.00
H15    H     0.41620   0.60950   0.32040   0.01267  Uiso   1.00
H16    H     0.29390   0.80580   0.54020   0.01267  Uiso   1.00
H17    H     0.95380   0.36410   0.88560   0.01267  Uiso   1.00
H18    H     0.90450   0.47360   0.02840   0.01267  Uiso   1.00
H19    H     0.86260   0.24240   0.08100   0.01267  Uiso   1.00
H20    H     0.90840   0.13270   0.93780   0.01267  Uiso   1.00
H21    H     0.80600   0.39800   0.17600   0.01267  Uiso   1.00
H22    H     0.72270   0.48650   0.28660   0.01267  Uiso   1.00
H23    H     0.91620   0.71090   0.32040   0.01267  Uiso   1.00
H24    H     0.79390   0.73440   0.54020   0.01267  Uiso   1.00
H25    H     0.54620   0.47850   0.11440   0.01267  Uiso   1.00
H26    H     0.59550   0.44520   0.97160   0.01267  Uiso   1.00
H27    H     0.63740   0.16140   0.91900   0.01267  Uiso   1.00
H28    H     0.59160   0.19490   0.06220   0.01267  Uiso   1.00
H29    H     0.69400   0.22200   0.82400   0.01267  Uiso   1.00
H30    H     0.77730   0.19990   0.71340   0.01267  Uiso   1.00
H31    H     0.58380   0.39050   0.67960   0.01267  Uiso   1.00
H32    H     0.70610   0.19420   0.45980   0.01267  Uiso   1.00
C1     C     0.01940   0.83180   0.18960   0.01267  Uiso   1.00
C2     C     0.05760   0.76100   0.10100   0.01267  Uiso   1.00
C3     C     0.06290   0.66060   0.07460   0.01267  Uiso   1.00
C4     C     0.09290   0.59470   0.98920   0.01267  Uiso   1.00
C5     C     0.11900   0.63260   0.93020   0.01267  Uiso   1.00
C6     C     0.11830   0.73260   0.95780   0.01267  Uiso   1.00
C7     C     0.08970   0.79850   0.04320   0.01267  Uiso   1.00
C8     C     0.14690   0.56450   0.83760   0.01267  Uiso   1.00
C9     C     0.32770   0.43770   0.54200   0.01267  Uiso   1.00
C10    C     0.25470   0.39550   0.57980   0.01267  Uiso   1.00
C11    C     0.24090   0.45100   0.67440   0.01267  Uiso   1.00
C12    C     0.17320   0.41340   0.71040   0.01267  Uiso   1.00
C13    C     0.12430   0.31710   0.65420   0.01267  Uiso   1.00
C14    C     0.13630   0.26290   0.56000   0.01267  Uiso   1.00
C15    C     0.19980   0.30220   0.52340   0.01267  Uiso   1.00
C16    C     0.08000   0.15980   0.49720   0.01267  Uiso   1.00
C17    C     0.48060   0.64220   0.81040   0.01267  Uiso   1.00
C18    C     0.44240   0.66000   0.89900   0.01267  Uiso   1.00
C19    C     0.43710   0.58600   0.92540   0.01267  Uiso   1.00
C20    C     0.40710   0.60550   0.01080   0.01267  Uiso   1.00
C21    C     0.38100   0.70240   0.06980   0.01267  Uiso   1.00
C22    C     0.38170   0.77480   0.04220   0.01267  Uiso   1.00
C23    C     0.41030   0.75530   0.95680   0.01267  Uiso   1.00
C24    C     0.35310   0.72690   0.16240   0.01267  Uiso   1.00
C25    C     0.17230   0.89570   0.45800   0.01267  Uiso   1.00
C26    C     0.24530   0.81570   0.42020   0.01267  Uiso   1.00
C27    C     0.25910   0.77660   0.32560   0.01267  Uiso   1.00
C28    C     0.32680   0.70300   0.28960   0.01267  Uiso   1.00
C29    C     0.37570   0.66290   0.34580   0.01267  Uiso   1.00
C30    C     0.36370   0.70290   0.44000   0.01267  Uiso   1.00
C31    C     0.30020   0.77880   0.47660   0.01267  Uiso   1.00
C32    C     0.42000   0.66260   0.50280   0.01267  Uiso   1.00
C33    C     0.98060   0.16820   0.81040   0.01267  Uiso   1.00
C34    C     0.94240   0.23900   0.89900   0.01267  Uiso   1.00
C35    C     0.93710   0.33940   0.92540   0.01267  Uiso   1.00
C36    C     0.90710   0.40530   0.01080   0.01267  Uiso   1.00
C37    C     0.88100   0.36740   0.06980   0.01267  Uiso   1.00
C38    C     0.88170   0.26740   0.04220   0.01267  Uiso   1.00
C39    C     0.91030   0.20150   0.95680   0.01267  Uiso   1.00
C40    C     0.85310   0.43550   0.16240   0.01267  Uiso   1.00
C41    C     0.67230   0.56230   0.45800   0.01267  Uiso   1.00
C42    C     0.74530   0.60450   0.42020   0.01267  Uiso   1.00
C43    C     0.75910   0.54900   0.32560   0.01267  Uiso   1.00
C44    C     0.82680   0.58660   0.28960   0.01267  Uiso   1.00
C45    C     0.87570   0.68290   0.34580   0.01267  Uiso   1.00
C46    C     0.86370   0.73710   0.44000   0.01267  Uiso   1.00
C47    C     0.80020   0.69780   0.47660   0.01267  Uiso   1.00
C48    C     0.92000   0.84020   0.50280   0.01267  Uiso   1.00
C49    C     0.51940   0.35780   0.18960   0.01267  Uiso   1.00
C50    C     0.55760   0.34000   0.10100   0.01267  Uiso   1.00
C51    C     0.56290   0.41400   0.07460   0.01267  Uiso   1.00
C52    C     0.59290   0.39450   0.98920   0.01267  Uiso   1.00
C53    C     0.61900   0.29760   0.93020   0.01267  Uiso   1.00
C54    C     0.61830   0.22520   0.95780   0.01267  Uiso   1.00
C55    C     0.58970   0.24470   0.04320   0.01267  Uiso   1.00
C56    C     0.64690   0.27310   0.83760   0.01267  Uiso   1.00
C57    C     0.82770   0.10430   0.54200   0.01267  Uiso   1.00
C58    C     0.75470   0.18430   0.57980   0.01267  Uiso   1.00
C59    C     0.74090   0.22340   0.67440   0.01267  Uiso   1.00
C60    C     0.67320   0.29700   0.71040   0.01267  Uiso   1.00
C61    C     0.62430   0.33710   0.65420   0.01267  Uiso   1.00
C62    C     0.63630   0.29710   0.56000   0.01267  Uiso   1.00
C63    C     0.69980   0.22120   0.52340   0.01267  Uiso   1.00
C64    C     0.58000   0.33740   0.49720   0.01267  Uiso   1.00
N1     N     0.15270   0.47070   0.80500   0.01267  Uiso   1.00
N2     N     0.34730   0.66570   0.19500   0.01267  Uiso   1.00
N3     N     0.84730   0.52930   0.19500   0.01267  Uiso   1.00
N4     N     0.65270   0.33430   0.80500   0.01267  Uiso   1.00
O1     O     0.97530   0.79525   0.23190   0.01267  Uiso   1.00
O2     O     0.03290   0.92385   0.21790   0.01267  Uiso   1.00
O3     O     0.37220   0.52339   0.59758   0.01267  Uiso   1.00
O4     O     0.33650   0.38375   0.45570   0.01267  Uiso   1.00
O5     O     0.06620   0.12383   0.40926   0.01267  Uiso   1.00
O6     O     0.04960   0.10963   0.53546   0.01267  Uiso   1.00
O7     O     0.52470   0.56335   0.76810   0.01267  Uiso   1.00
O8     O     0.46710   0.70595   0.78210   0.01267  Uiso   1.00
O9     O     0.12780   0.92581   0.40242   0.01267  Uiso   1.00
O10    O     0.16350   0.92805   0.54430   0.01267  Uiso   1.00
O11    O     0.43380   0.71457   0.59074   0.01267  Uiso   1.00
O12    O     0.45040   0.57417   0.46454   0.01267  Uiso   1.00
O13    O     0.02470   0.20475   0.76810   0.01267  Uiso   1.00
O14    O     0.96710   0.07615   0.78210   0.01267  Uiso   1.00
O15    O     0.62780   0.47661   0.40242   0.01267  Uiso   1.00
O16    O     0.66350   0.61625   0.54430   0.01267  Uiso   1.00
O17    O     0.93380   0.87617   0.59074   0.01267  Uiso   1.00
O18    O     0.95040   0.89037   0.46454   0.01267  Uiso   1.00
O19    O     0.47530   0.43665   0.23190   0.01267  Uiso   1.00
O20    O     0.53290   0.29405   0.21790   0.01267  Uiso   1.00
O21    O     0.87220   0.07419   0.59758   0.01267  Uiso   1.00
O22    O     0.83650   0.07195   0.45570   0.01267  Uiso   1.00
O23    O     0.56620   0.28543   0.40926   0.01267  Uiso   1.00
O24    O     0.54960   0.42583   0.53546   0.01267  Uiso   1.00
