data_GEDROY_clean
_audit_creation_date              2014-07-02
_audit_creation_method            'Materials Studio'
_symmetry_space_group_name_H-M    'P1'
_symmetry_Int_Tables_number       1
_symmetry_cell_setting            triclinic
loop_
_symmetry_equiv_pos_as_xyz
  x,y,z
_cell_length_a                    12.3002
_cell_length_b                    14.5232
_cell_length_c                    15.9860
_cell_angle_alpha                 117.0170
_cell_angle_beta                  104.8900
_cell_angle_gamma                 90.0000
loop_
_atom_site_label
_atom_site_type_symbol
_atom_site_fract_x
_atom_site_fract_y
_atom_site_fract_z
_atom_site_U_iso_or_equiv
_atom_site_adp_type
_atom_site_occupancy
Nd1    Nd    0.92960   0.89556   0.35592   0.01267  Uiso   1.00
Nd2    Nd    0.57040   0.53964   0.64408   0.01267  Uiso   1.00
Nd3    Nd    0.07040   0.10444   0.64408   0.01267  Uiso   1.00
Nd4    Nd    0.42960   0.46036   0.35592   0.01267  Uiso   1.00
H1     H     0.03770   0.96370   0.10960   0.01267  Uiso   1.00
H2     H     0.09640   0.92960   0.97160   0.01267  Uiso   1.00
H3     H     0.12050   0.63330   0.92260   0.01267  Uiso   1.00
H4     H     0.06280   0.67060   0.06080   0.01267  Uiso   1.00
H5     H     0.07110   0.87690   0.68260   0.01267  Uiso   1.00
H6     H     0.26830   0.66800   0.71540   0.01267  Uiso   1.00
H7     H     0.17200   0.66870   0.45620   0.01267  Uiso   1.00
H8     H     0.11200   0.67600   0.79600   0.01267  Uiso   1.00
H9     H     0.46230   0.85410   0.89040   0.01267  Uiso   1.00
H10    H     0.40360   0.95800   0.02840   0.01267  Uiso   1.00
H11    H     0.37950   0.71070   0.07740   0.01267  Uiso   1.00
H12    H     0.43720   0.60980   0.93920   0.01267  Uiso   1.00
H13    H     0.42890   0.19430   0.31740   0.01267  Uiso   1.00
H14    H     0.23170   0.95260   0.28460   0.01267  Uiso   1.00
H15    H     0.32800   0.21250   0.54380   0.01267  Uiso   1.00
H16    H     0.38800   0.88000   0.20400   0.01267  Uiso   1.00
H17    H     0.96230   0.03630   0.89040   0.01267  Uiso   1.00
H18    H     0.90360   0.07040   0.02840   0.01267  Uiso   1.00
H19    H     0.87950   0.36670   0.07740   0.01267  Uiso   1.00
H20    H     0.93720   0.32940   0.93920   0.01267  Uiso   1.00
H21    H     0.92890   0.12310   0.31740   0.01267  Uiso   1.00
H22    H     0.73170   0.33200   0.28460   0.01267  Uiso   1.00
H23    H     0.82800   0.33130   0.54380   0.01267  Uiso   1.00
H24    H     0.88800   0.32400   0.20400   0.01267  Uiso   1.00
H25    H     0.53770   0.14590   0.10960   0.01267  Uiso   1.00
H26    H     0.59640   0.04200   0.97160   0.01267  Uiso   1.00
H27    H     0.62050   0.28930   0.92260   0.01267  Uiso   1.00
H28    H     0.56280   0.39020   0.06080   0.01267  Uiso   1.00
H29    H     0.57110   0.80570   0.68260   0.01267  Uiso   1.00
H30    H     0.76830   0.04740   0.71540   0.01267  Uiso   1.00
H31    H     0.67200   0.78750   0.45620   0.01267  Uiso   1.00
H32    H     0.61200   0.12000   0.79600   0.01267  Uiso   1.00
C1     C     0.00160   0.84480   0.18440   0.01267  Uiso   1.00
C2     C     0.04540   0.81960   0.09840   0.01267  Uiso   1.00
C3     C     0.05430   0.89760   0.07180   0.01267  Uiso   1.00
C4     C     0.08820   0.87700   0.98840   0.01267  Uiso   1.00
C5     C     0.10910   0.77750   0.93160   0.01267  Uiso   1.00
C6     C     0.10270   0.69930   0.95940   0.01267  Uiso   1.00
C7     C     0.06910   0.72230   0.04260   0.01267  Uiso   1.00
C8     C     0.13570   0.74720   0.83800   0.01267  Uiso   1.00
C9     C     0.05040   0.82460   0.49620   0.01267  Uiso   1.00
C10    C     0.11230   0.77980   0.55920   0.01267  Uiso   1.00
C11    C     0.10910   0.82000   0.65600   0.01267  Uiso   1.00
C12    C     0.16320   0.77420   0.71240   0.01267  Uiso   1.00
C13    C     0.22820   0.69510   0.67580   0.01267  Uiso   1.00
C14    C     0.23310   0.65630   0.57940   0.01267  Uiso   1.00
C15    C     0.17250   0.69710   0.52140   0.01267  Uiso   1.00
C16    C     0.30560   0.57210   0.53940   0.01267  Uiso   1.00
C17    C     0.49840   0.66040   0.81560   0.01267  Uiso   1.00
C18    C     0.45460   0.72120   0.90160   0.01267  Uiso   1.00
C19    C     0.44570   0.82580   0.92820   0.01267  Uiso   1.00
C20    C     0.41180   0.88860   0.01160   0.01267  Uiso   1.00
C21    C     0.39090   0.84590   0.06840   0.01267  Uiso   1.00
C22    C     0.39730   0.73990   0.04060   0.01267  Uiso   1.00
C23    C     0.43090   0.67970   0.95740   0.01267  Uiso   1.00
C24    C     0.36430   0.90920   0.16200   0.01267  Uiso   1.00
C25    C     0.44960   0.32840   0.50380   0.01267  Uiso   1.00
C26    C     0.38770   0.22060   0.44080   0.01267  Uiso   1.00
C27    C     0.39090   0.16400   0.34400   0.01267  Uiso   1.00
C28    C     0.33680   0.06180   0.28760   0.01267  Uiso   1.00
C29    C     0.27180   0.01930   0.32420   0.01267  Uiso   1.00
C30    C     0.26690   0.07690   0.42060   0.01267  Uiso   1.00
C31    C     0.32750   0.17570   0.47860   0.01267  Uiso   1.00
C32    C     0.19440   0.03270   0.46060   0.01267  Uiso   1.00
C33    C     0.99840   0.15520   0.81560   0.01267  Uiso   1.00
C34    C     0.95460   0.18040   0.90160   0.01267  Uiso   1.00
C35    C     0.94570   0.10240   0.92820   0.01267  Uiso   1.00
C36    C     0.91180   0.12300   0.01160   0.01267  Uiso   1.00
C37    C     0.89090   0.22250   0.06840   0.01267  Uiso   1.00
C38    C     0.89730   0.30070   0.04060   0.01267  Uiso   1.00
C39    C     0.93090   0.27770   0.95740   0.01267  Uiso   1.00
C40    C     0.86430   0.25280   0.16200   0.01267  Uiso   1.00
C41    C     0.94960   0.17540   0.50380   0.01267  Uiso   1.00
C42    C     0.88770   0.22020   0.44080   0.01267  Uiso   1.00
C43    C     0.89090   0.18000   0.34400   0.01267  Uiso   1.00
C44    C     0.83680   0.22580   0.28760   0.01267  Uiso   1.00
C45    C     0.77180   0.30490   0.32420   0.01267  Uiso   1.00
C46    C     0.76690   0.34370   0.42060   0.01267  Uiso   1.00
C47    C     0.82750   0.30290   0.47860   0.01267  Uiso   1.00
C48    C     0.69440   0.42790   0.46060   0.01267  Uiso   1.00
C49    C     0.50160   0.33960   0.18440   0.01267  Uiso   1.00
C50    C     0.54540   0.27880   0.09840   0.01267  Uiso   1.00
C51    C     0.55430   0.17420   0.07180   0.01267  Uiso   1.00
C52    C     0.58820   0.11140   0.98840   0.01267  Uiso   1.00
C53    C     0.60910   0.15410   0.93160   0.01267  Uiso   1.00
C54    C     0.60270   0.26010   0.95940   0.01267  Uiso   1.00
C55    C     0.56910   0.32030   0.04260   0.01267  Uiso   1.00
C56    C     0.63570   0.09080   0.83800   0.01267  Uiso   1.00
C57    C     0.55040   0.67160   0.49620   0.01267  Uiso   1.00
C58    C     0.61230   0.77940   0.55920   0.01267  Uiso   1.00
C59    C     0.60910   0.83600   0.65600   0.01267  Uiso   1.00
C60    C     0.66320   0.93820   0.71240   0.01267  Uiso   1.00
C61    C     0.72820   0.98070   0.67580   0.01267  Uiso   1.00
C62    C     0.73310   0.92310   0.57940   0.01267  Uiso   1.00
C63    C     0.67250   0.82430   0.52140   0.01267  Uiso   1.00
C64    C     0.80560   0.96730   0.53940   0.01267  Uiso   1.00
N1     N     0.14900   0.81330   0.80800   0.01267  Uiso   1.00
N2     N     0.35100   0.00530   0.19200   0.01267  Uiso   1.00
N3     N     0.85100   0.18670   0.19200   0.01267  Uiso   1.00
N4     N     0.64900   0.99470   0.80800   0.01267  Uiso   1.00
O1     O     0.99660   0.77370   0.21100   0.01267  Uiso   1.00
O2     O     0.96620   0.93040   0.22600   0.01267  Uiso   1.00
O3     O     0.01760   0.76710   0.40400   0.01267  Uiso   1.00
O4     O     0.03010   0.91820   0.53600   0.01267  Uiso   1.00
O5     O     0.29770   0.53390   0.44880   0.01267  Uiso   1.00
O6     O     0.36710   0.54480   0.59780   0.01267  Uiso   1.00
O7     O     0.50340   0.56270   0.78900   0.01267  Uiso   1.00
O8     O     0.53380   0.70440   0.77400   0.01267  Uiso   1.00
O9     O     0.48240   0.36310   0.59600   0.01267  Uiso   1.00
O10    O     0.46990   0.38220   0.46400   0.01267  Uiso   1.00
O11    O     0.20230   0.08510   0.55120   0.01267  Uiso   1.00
O12    O     0.13290   0.94700   0.40220   0.01267  Uiso   1.00
O13    O     0.00340   0.22630   0.78900   0.01267  Uiso   1.00
O14    O     0.03380   0.06960   0.77400   0.01267  Uiso   1.00
O15    O     0.98240   0.23290   0.59600   0.01267  Uiso   1.00
O16    O     0.96990   0.08180   0.46400   0.01267  Uiso   1.00
O17    O     0.70230   0.46610   0.55120   0.01267  Uiso   1.00
O18    O     0.63290   0.45520   0.40220   0.01267  Uiso   1.00
O19    O     0.49660   0.43730   0.21100   0.01267  Uiso   1.00
O20    O     0.46620   0.29560   0.22600   0.01267  Uiso   1.00
O21    O     0.51760   0.63690   0.40400   0.01267  Uiso   1.00
O22    O     0.53010   0.61780   0.53600   0.01267  Uiso   1.00
O23    O     0.79770   0.91490   0.44880   0.01267  Uiso   1.00
O24    O     0.86710   0.05300   0.59780   0.01267  Uiso   1.00
