data_GEDREO_clean
_audit_creation_date              2014-07-02
_audit_creation_method            'Materials Studio'
_symmetry_space_group_name_H-M    'P1'
_symmetry_Int_Tables_number       1
_symmetry_cell_setting            triclinic
loop_
_symmetry_equiv_pos_as_xyz
  x,y,z
_cell_length_a                    12.5843
_cell_length_b                    14.1180
_cell_length_c                    16.1952
_cell_angle_alpha                 95.1837
_cell_angle_beta                  112.8620
_cell_angle_gamma                 90.0000
loop_
_atom_site_label
_atom_site_type_symbol
_atom_site_fract_x
_atom_site_fract_y
_atom_site_fract_z
_atom_site_U_iso_or_equiv
_atom_site_adp_type
_atom_site_occupancy
Nd1    Nd    0.48712   0.46127   0.37159   0.01267  Uiso   1.00
Nd2    Nd    0.11553   0.03873   0.62841   0.01267  Uiso   1.00
Nd3    Nd    0.51288   0.53873   0.62841   0.01267  Uiso   1.00
Nd4    Nd    0.88447   0.96127   0.37159   0.01267  Uiso   1.00
H1     H     0.15550   0.59240   0.12320   0.01267  Uiso   1.00
H2     H     0.05490   0.63670   0.98160   0.01267  Uiso   1.00
H3     H     0.33390   0.60190   0.92420   0.01267  Uiso   1.00
H4     H     0.43740   0.55840   0.06680   0.01267  Uiso   1.00
H5     H     0.82600   0.55970   0.68760   0.01267  Uiso   1.00
H6     H     0.05570   0.77070   0.71440   0.01267  Uiso   1.00
H7     H     0.81460   0.68550   0.47080   0.01267  Uiso   1.00
H8     H     0.74660   0.33190   0.42120   0.01267  Uiso   1.00
H9     H     0.64860   0.19770   0.17660   0.01267  Uiso   1.00
H10    H     0.51980   0.32870   0.17460   0.01267  Uiso   1.00
H11    H     0.16100   0.64500   0.80600   0.01267  Uiso   1.00
H12    H     0.03230   0.90760   0.87680   0.01267  Uiso   1.00
H13    H     0.07330   0.86330   0.01840   0.01267  Uiso   1.00
H14    H     0.40970   0.89810   0.07580   0.01267  Uiso   1.00
H15    H     0.37060   0.94160   0.93320   0.01267  Uiso   1.00
H16    H     0.13840   0.94030   0.31240   0.01267  Uiso   1.00
H17    H     0.34130   0.72930   0.28560   0.01267  Uiso   1.00
H18    H     0.34380   0.81450   0.52920   0.01267  Uiso   1.00
H19    H     0.32540   0.16810   0.57880   0.01267  Uiso   1.00
H20    H     0.47200   0.30230   0.82340   0.01267  Uiso   1.00
H21    H     0.34520   0.17130   0.82540   0.01267  Uiso   1.00
H22    H     0.35500   0.85500   0.19400   0.01267  Uiso   1.00
H23    H     0.84450   0.40760   0.87680   0.01267  Uiso   1.00
H24    H     0.94510   0.36330   0.01840   0.01267  Uiso   1.00
H25    H     0.66610   0.39810   0.07580   0.01267  Uiso   1.00
H26    H     0.56260   0.44160   0.93320   0.01267  Uiso   1.00
H27    H     0.17400   0.44030   0.31240   0.01267  Uiso   1.00
H28    H     0.94430   0.22930   0.28560   0.01267  Uiso   1.00
H29    H     0.18540   0.31450   0.52920   0.01267  Uiso   1.00
H30    H     0.25340   0.66810   0.57880   0.01267  Uiso   1.00
H31    H     0.35140   0.80230   0.82340   0.01267  Uiso   1.00
H32    H     0.48020   0.67130   0.82540   0.01267  Uiso   1.00
H33    H     0.83900   0.35500   0.19400   0.01267  Uiso   1.00
H34    H     0.96770   0.09240   0.12320   0.01267  Uiso   1.00
H35    H     0.92670   0.13670   0.98160   0.01267  Uiso   1.00
H36    H     0.59030   0.10190   0.92420   0.01267  Uiso   1.00
H37    H     0.62940   0.05840   0.06680   0.01267  Uiso   1.00
H38    H     0.86160   0.05970   0.68760   0.01267  Uiso   1.00
H39    H     0.65870   0.27070   0.71440   0.01267  Uiso   1.00
H40    H     0.65620   0.18550   0.47080   0.01267  Uiso   1.00
H41    H     0.67460   0.83190   0.42120   0.01267  Uiso   1.00
H42    H     0.52800   0.69770   0.17660   0.01267  Uiso   1.00
H43    H     0.65480   0.82870   0.17460   0.01267  Uiso   1.00
H44    H     0.64500   0.14500   0.80600   0.01267  Uiso   1.00
C1     C     0.36884   0.53740   0.20148   0.01267  Uiso   1.00
C2     C     0.30565   0.57010   0.10990   0.01267  Uiso   1.00
C3     C     0.19190   0.59380   0.08320   0.01267  Uiso   1.00
C4     C     0.13130   0.61970   0.99800   0.01267  Uiso   1.00
C5     C     0.18250   0.62070   0.93600   0.01267  Uiso   1.00
C6     C     0.29740   0.59910   0.96400   0.01267  Uiso   1.00
C7     C     0.36025   0.57330   0.04970   0.01267  Uiso   1.00
C8     C     0.11870   0.63950   0.84220   0.01267  Uiso   1.00
C9     C     0.70283   0.55150   0.51126   0.01267  Uiso   1.00
C10    C     0.80543   0.61290   0.57046   0.01267  Uiso   1.00
C11    C     0.85680   0.60320   0.66220   0.01267  Uiso   1.00
C12    C     0.95538   0.65960   0.71616   0.01267  Uiso   1.00
C13    C     0.99378   0.73010   0.67796   0.01267  Uiso   1.00
C14    C     0.94192   0.74060   0.58764   0.01267  Uiso   1.00
C15    C     0.84819   0.68050   0.53238   0.01267  Uiso   1.00
C16    C     0.98072   0.81750   0.54564   0.01267  Uiso   1.00
C17    C     0.70570   0.31500   0.36000   0.01267  Uiso   1.00
C18    C     0.65300   0.24010   0.22540   0.01267  Uiso   1.00
C19    C     0.58193   0.31290   0.22506   0.01267  Uiso   1.00
C20    C     0.16736   0.96260   0.79852   0.01267  Uiso   1.00
C21    C     0.19575   0.92990   0.89010   0.01267  Uiso   1.00
C22    C     0.10870   0.90620   0.91680   0.01267  Uiso   1.00
C23    C     0.13330   0.88030   0.00200   0.01267  Uiso   1.00
C24    C     0.24650   0.87930   0.06400   0.01267  Uiso   1.00
C25    C     0.33340   0.90090   0.03600   0.01267  Uiso   1.00
C26    C     0.31055   0.92670   0.95030   0.01267  Uiso   1.00
C27    C     0.27650   0.86050   0.15780   0.01267  Uiso   1.00
C28    C     0.19157   0.94850   0.48874   0.01267  Uiso   1.00
C29    C     0.23497   0.88710   0.42954   0.01267  Uiso   1.00
C30    C     0.19460   0.89680   0.33780   0.01267  Uiso   1.00
C31    C     0.23922   0.84040   0.28384   0.01267  Uiso   1.00
C32    C     0.31582   0.76990   0.32204   0.01267  Uiso   1.00
C33    C     0.35428   0.75940   0.41236   0.01267  Uiso   1.00
C34    C     0.31581   0.81950   0.46762   0.01267  Uiso   1.00
C35    C     0.43508   0.68250   0.45436   0.01267  Uiso   1.00
C36    C     0.34570   0.18500   0.64000   0.01267  Uiso   1.00
C37    C     0.42760   0.25990   0.77460   0.01267  Uiso   1.00
C38    C     0.35687   0.18710   0.77494   0.01267  Uiso   1.00
C39    C     0.63116   0.46260   0.79852   0.01267  Uiso   1.00
C40    C     0.69435   0.42990   0.89010   0.01267  Uiso   1.00
C41    C     0.80810   0.40620   0.91680   0.01267  Uiso   1.00
C42    C     0.86870   0.38030   0.00200   0.01267  Uiso   1.00
C43    C     0.81750   0.37930   0.06400   0.01267  Uiso   1.00
C44    C     0.70260   0.40090   0.03600   0.01267  Uiso   1.00
C45    C     0.63975   0.42670   0.95030   0.01267  Uiso   1.00
C46    C     0.88130   0.36050   0.15780   0.01267  Uiso   1.00
C47    C     0.29717   0.44850   0.48874   0.01267  Uiso   1.00
C48    C     0.19457   0.38710   0.42954   0.01267  Uiso   1.00
C49    C     0.14320   0.39680   0.33780   0.01267  Uiso   1.00
C50    C     0.04462   0.34040   0.28384   0.01267  Uiso   1.00
C51    C     0.00622   0.26990   0.32204   0.01267  Uiso   1.00
C52    C     0.05808   0.25940   0.41236   0.01267  Uiso   1.00
C53    C     0.15181   0.31950   0.46762   0.01267  Uiso   1.00
C54    C     0.01928   0.18250   0.45436   0.01267  Uiso   1.00
C55    C     0.29430   0.68500   0.64000   0.01267  Uiso   1.00
C56    C     0.34700   0.75990   0.77460   0.01267  Uiso   1.00
C57    C     0.41807   0.68710   0.77494   0.01267  Uiso   1.00
C58    C     0.83264   0.03740   0.20148   0.01267  Uiso   1.00
C59    C     0.80425   0.07010   0.10990   0.01267  Uiso   1.00
C60    C     0.89130   0.09380   0.08320   0.01267  Uiso   1.00
C61    C     0.86670   0.11970   0.99800   0.01267  Uiso   1.00
C62    C     0.75350   0.12070   0.93600   0.01267  Uiso   1.00
C63    C     0.66660   0.09910   0.96400   0.01267  Uiso   1.00
C64    C     0.68945   0.07330   0.04970   0.01267  Uiso   1.00
C65    C     0.72350   0.13950   0.84220   0.01267  Uiso   1.00
C66    C     0.80843   0.05150   0.51126   0.01267  Uiso   1.00
C67    C     0.76503   0.11290   0.57046   0.01267  Uiso   1.00
C68    C     0.80540   0.10320   0.66220   0.01267  Uiso   1.00
C69    C     0.76078   0.15960   0.71616   0.01267  Uiso   1.00
C70    C     0.68418   0.23010   0.67796   0.01267  Uiso   1.00
C71    C     0.64572   0.24060   0.58764   0.01267  Uiso   1.00
C72    C     0.68419   0.18050   0.53238   0.01267  Uiso   1.00
C73    C     0.56492   0.31750   0.54564   0.01267  Uiso   1.00
C74    C     0.65430   0.81500   0.36000   0.01267  Uiso   1.00
C75    C     0.57240   0.74010   0.22540   0.01267  Uiso   1.00
C76    C     0.64313   0.81290   0.22506   0.01267  Uiso   1.00
N1     N     0.00930   0.64350   0.80780   0.01267  Uiso   1.00
N2     N     0.61448   0.35900   0.30876   0.01267  Uiso   1.00
N3     N     0.73175   0.24200   0.31190   0.01267  Uiso   1.00
N4     N     0.20150   0.85650   0.19220   0.01267  Uiso   1.00
N5     N     0.30572   0.14100   0.69124   0.01267  Uiso   1.00
N6     N     0.41985   0.25800   0.68810   0.01267  Uiso   1.00
N7     N     0.99070   0.35650   0.19220   0.01267  Uiso   1.00
N8     N     0.38552   0.64100   0.69124   0.01267  Uiso   1.00
N9     N     0.26825   0.75800   0.68810   0.01267  Uiso   1.00
N10    N     0.79850   0.14350   0.80780   0.01267  Uiso   1.00
N11    N     0.69428   0.85900   0.30876   0.01267  Uiso   1.00
N12    N     0.58015   0.74200   0.31190   0.01267  Uiso   1.00
O1     O     0.47660   0.52980   0.23060   0.01267  Uiso   1.00
O2     O     0.31128   0.51650   0.24716   0.01267  Uiso   1.00
O3     O     0.63380   0.51910   0.54280   0.01267  Uiso   1.00
O4     O     0.68682   0.53320   0.42964   0.01267  Uiso   1.00
O5     O     0.92310   0.82990   0.46580   0.01267  Uiso   1.00
O6     O     0.07264   0.86530   0.59608   0.01267  Uiso   1.00
O7     O     0.24600   0.97020   0.76940   0.01267  Uiso   1.00
O8     O     0.06412   0.98350   0.75284   0.01267  Uiso   1.00
O9     O     0.09100   0.98090   0.45720   0.01267  Uiso   1.00
O10    O     0.25718   0.96680   0.57036   0.01267  Uiso   1.00
O11    O     0.45730   0.67010   0.53420   0.01267  Uiso   1.00
O12    O     0.47656   0.63470   0.40392   0.01267  Uiso   1.00
O13    O     0.52340   0.47020   0.76940   0.01267  Uiso   1.00
O14    O     0.68872   0.48350   0.75284   0.01267  Uiso   1.00
O15    O     0.36620   0.48090   0.45720   0.01267  Uiso   1.00
O16    O     0.31318   0.46680   0.57036   0.01267  Uiso   1.00
O17    O     0.07690   0.17010   0.53420   0.01267  Uiso   1.00
O18    O     0.92736   0.13470   0.40392   0.01267  Uiso   1.00
O19    O     0.75400   0.02980   0.23060   0.01267  Uiso   1.00
O20    O     0.93588   0.01650   0.24716   0.01267  Uiso   1.00
O21    O     0.90900   0.01910   0.54280   0.01267  Uiso   1.00
O22    O     0.74282   0.03320   0.42964   0.01267  Uiso   1.00
O23    O     0.54270   0.32990   0.46580   0.01267  Uiso   1.00
O24    O     0.52344   0.36530   0.59608   0.01267  Uiso   1.00
