data_GEDSEP_clean
_audit_creation_date              2014-07-02
_audit_creation_method            'Materials Studio'
_symmetry_space_group_name_H-M    'P1'
_symmetry_Int_Tables_number       1
_symmetry_cell_setting            triclinic
loop_
_symmetry_equiv_pos_as_xyz
  x,y,z
_cell_length_a                    13.1654
_cell_length_b                    13.8282
_cell_length_c                    16.0313
_cell_angle_alpha                 115.5490
_cell_angle_beta                  101.1170
_cell_angle_gamma                 90.0000
loop_
_atom_site_label
_atom_site_type_symbol
_atom_site_fract_x
_atom_site_fract_y
_atom_site_fract_z
_atom_site_U_iso_or_equiv
_atom_site_adp_type
_atom_site_occupancy
Nd1    Nd    0.94067   0.47501   0.36375   0.01267  Uiso   1.00
Nd2    Nd    0.55933   0.11126   0.63625   0.01267  Uiso   1.00
Nd3    Nd    0.05933   0.52499   0.63625   0.01267  Uiso   1.00
Nd4    Nd    0.44067   0.88874   0.36375   0.01267  Uiso   1.00
H1     H     0.03650   0.15110   0.11000   0.01267  Uiso   1.00
H2     H     0.08560   0.04600   0.96860   0.01267  Uiso   1.00
H3     H     0.13090   0.30870   0.93140   0.01267  Uiso   1.00
H4     H     0.07830   0.41190   0.06920   0.01267  Uiso   1.00
H5     H     0.06960   0.81380   0.68800   0.01267  Uiso   1.00
H6     H     0.27120   0.05290   0.72200   0.01267  Uiso   1.00
H7     H     0.19290   0.79130   0.47080   0.01267  Uiso   1.00
H8     H     0.92280   0.63560   0.23520   0.01267  Uiso   1.00
H9     H     0.16200   0.13600   0.81400   0.01267  Uiso   1.00
H10    H     0.63600   0.70500   0.23800   0.01267  Uiso   1.00
H11    H     0.46350   0.04110   0.89000   0.01267  Uiso   1.00
H12    H     0.41440   0.07740   0.03140   0.01267  Uiso   1.00
H13    H     0.36910   0.37730   0.06860   0.01267  Uiso   1.00
H14    H     0.42170   0.34270   0.93080   0.01267  Uiso   1.00
H15    H     0.43040   0.12580   0.31200   0.01267  Uiso   1.00
H16    H     0.22880   0.33090   0.27800   0.01267  Uiso   1.00
H17    H     0.30710   0.32050   0.52920   0.01267  Uiso   1.00
H18    H     0.57720   0.40040   0.76480   0.01267  Uiso   1.00
H19    H     0.33800   0.32200   0.18600   0.01267  Uiso   1.00
H20    H     0.86400   0.46700   0.76200   0.01267  Uiso   1.00
H21    H     0.96350   0.84890   0.89000   0.01267  Uiso   1.00
H22    H     0.91440   0.95400   0.03140   0.01267  Uiso   1.00
H23    H     0.86910   0.69130   0.06860   0.01267  Uiso   1.00
H24    H     0.92170   0.58810   0.93080   0.01267  Uiso   1.00
H25    H     0.93040   0.18620   0.31200   0.01267  Uiso   1.00
H26    H     0.72880   0.94710   0.27800   0.01267  Uiso   1.00
H27    H     0.80710   0.20870   0.52920   0.01267  Uiso   1.00
H28    H     0.07720   0.36440   0.76480   0.01267  Uiso   1.00
H29    H     0.83800   0.86400   0.18600   0.01267  Uiso   1.00
H30    H     0.36400   0.29500   0.76200   0.01267  Uiso   1.00
H31    H     0.53650   0.95890   0.11000   0.01267  Uiso   1.00
H32    H     0.58560   0.92260   0.96860   0.01267  Uiso   1.00
H33    H     0.63090   0.62270   0.93140   0.01267  Uiso   1.00
H34    H     0.57830   0.65730   0.06920   0.01267  Uiso   1.00
H35    H     0.56960   0.87420   0.68800   0.01267  Uiso   1.00
H36    H     0.77120   0.66910   0.72200   0.01267  Uiso   1.00
H37    H     0.69290   0.67950   0.47080   0.01267  Uiso   1.00
H38    H     0.42280   0.59960   0.23520   0.01267  Uiso   1.00
H39    H     0.66200   0.67800   0.81400   0.01267  Uiso   1.00
H40    H     0.13600   0.53300   0.23800   0.01267  Uiso   1.00
C1     C     0.00660   0.35700   0.18800   0.01267  Uiso   1.00
C2     C     0.04550   0.29200   0.10080   0.01267  Uiso   1.00
C3     C     0.05270   0.18250   0.07260   0.01267  Uiso   1.00
C4     C     0.08390   0.11980   0.98880   0.01267  Uiso   1.00
C5     C     0.11240   0.16700   0.93560   0.01267  Uiso   1.00
C6     C     0.11040   0.27630   0.96640   0.01267  Uiso   1.00
C7     C     0.07810   0.33790   0.04860   0.01267  Uiso   1.00
C8     C     0.14090   0.10270   0.84360   0.01267  Uiso   1.00
C9     C     0.05910   0.68079   0.50418   0.01267  Uiso   1.00
C10    C     0.12020   0.78646   0.56912   0.01267  Uiso   1.00
C11    C     0.11120   0.84370   0.66280   0.01267  Uiso   1.00
C12    C     0.16370   0.94490   0.71860   0.01267  Uiso   1.00
C13    C     0.23340   0.98640   0.68380   0.01267  Uiso   1.00
C14    C     0.24550   0.92725   0.59170   0.01267  Uiso   1.00
C15    C     0.18700   0.82872   0.53344   0.01267  Uiso   1.00
C16    C     0.32110   0.96870   0.55200   0.01267  Uiso   1.00
C17    C     0.72050   0.59630   0.27920   0.01267  Uiso   1.00
C18    C     0.85530   0.63600   0.24480   0.01267  Uiso   1.00
C19    C     0.49340   0.16900   0.81200   0.01267  Uiso   1.00
C20    C     0.45450   0.19120   0.89920   0.01267  Uiso   1.00
C21    C     0.44730   0.10990   0.92740   0.01267  Uiso   1.00
C22    C     0.41610   0.13100   0.01120   0.01267  Uiso   1.00
C23    C     0.38760   0.23140   0.06440   0.01267  Uiso   1.00
C24    C     0.38960   0.30990   0.03360   0.01267  Uiso   1.00
C25    C     0.42190   0.28930   0.95140   0.01267  Uiso   1.00
C26    C     0.35910   0.25910   0.15640   0.01267  Uiso   1.00
C27    C     0.44090   0.17661   0.49582   0.01267  Uiso   1.00
C28    C     0.37980   0.21734   0.43088   0.01267  Uiso   1.00
C29    C     0.38880   0.18090   0.33720   0.01267  Uiso   1.00
C30    C     0.33630   0.22630   0.28140   0.01267  Uiso   1.00
C31    C     0.26660   0.30260   0.31620   0.01267  Uiso   1.00
C32    C     0.25450   0.33555   0.40830   0.01267  Uiso   1.00
C33    C     0.31300   0.29528   0.46656   0.01267  Uiso   1.00
C34    C     0.17890   0.41670   0.44800   0.01267  Uiso   1.00
C35    C     0.77950   0.31710   0.72080   0.01267  Uiso   1.00
C36    C     0.64470   0.39120   0.75520   0.01267  Uiso   1.00
C37    C     0.99340   0.64300   0.81200   0.01267  Uiso   1.00
C38    C     0.95450   0.70800   0.89920   0.01267  Uiso   1.00
C39    C     0.94730   0.81750   0.92740   0.01267  Uiso   1.00
C40    C     0.91610   0.88020   0.01120   0.01267  Uiso   1.00
C41    C     0.88760   0.83300   0.06440   0.01267  Uiso   1.00
C42    C     0.88960   0.72370   0.03360   0.01267  Uiso   1.00
C43    C     0.92190   0.66210   0.95140   0.01267  Uiso   1.00
C44    C     0.85910   0.89730   0.15640   0.01267  Uiso   1.00
C45    C     0.94090   0.31921   0.49582   0.01267  Uiso   1.00
C46    C     0.87980   0.21354   0.43088   0.01267  Uiso   1.00
C47    C     0.88880   0.15630   0.33720   0.01267  Uiso   1.00
C48    C     0.83630   0.05510   0.28140   0.01267  Uiso   1.00
C49    C     0.76660   0.01360   0.31620   0.01267  Uiso   1.00
C50    C     0.75450   0.07275   0.40830   0.01267  Uiso   1.00
C51    C     0.81300   0.17128   0.46656   0.01267  Uiso   1.00
C52    C     0.67890   0.03130   0.44800   0.01267  Uiso   1.00
C53    C     0.27950   0.40370   0.72080   0.01267  Uiso   1.00
C54    C     0.14470   0.36400   0.75520   0.01267  Uiso   1.00
C55    C     0.50660   0.83100   0.18800   0.01267  Uiso   1.00
C56    C     0.54550   0.80880   0.10080   0.01267  Uiso   1.00
C57    C     0.55270   0.89010   0.07260   0.01267  Uiso   1.00
C58    C     0.58390   0.86900   0.98880   0.01267  Uiso   1.00
C59    C     0.61240   0.76860   0.93560   0.01267  Uiso   1.00
C60    C     0.61040   0.69010   0.96640   0.01267  Uiso   1.00
C61    C     0.57810   0.71070   0.04860   0.01267  Uiso   1.00
C62    C     0.64090   0.74090   0.84360   0.01267  Uiso   1.00
C63    C     0.55910   0.82339   0.50418   0.01267  Uiso   1.00
C64    C     0.62020   0.78266   0.56912   0.01267  Uiso   1.00
C65    C     0.61120   0.81910   0.66280   0.01267  Uiso   1.00
C66    C     0.66370   0.77370   0.71860   0.01267  Uiso   1.00
C67    C     0.73340   0.69740   0.68380   0.01267  Uiso   1.00
C68    C     0.74550   0.66445   0.59170   0.01267  Uiso   1.00
C69    C     0.68700   0.70472   0.53344   0.01267  Uiso   1.00
C70    C     0.82110   0.58330   0.55200   0.01267  Uiso   1.00
C71    C     0.22050   0.68290   0.27920   0.01267  Uiso   1.00
C72    C     0.35530   0.60880   0.24480   0.01267  Uiso   1.00
N1     N     0.14450   0.00153   0.81146   0.01267  Uiso   1.00
N2     N     0.81750   0.56892   0.27664   0.01267  Uiso   1.00
N3     N     0.79040   0.70080   0.22880   0.01267  Uiso   1.00
N4     N     0.70170   0.67384   0.25208   0.01267  Uiso   1.00
N5     N     0.64240   0.54760   0.29800   0.01267  Uiso   1.00
N6     N     0.35550   0.19007   0.18854   0.01267  Uiso   1.00
N7     N     0.68250   0.29228   0.72336   0.01267  Uiso   1.00
N8     N     0.70960   0.47200   0.77120   0.01267  Uiso   1.00
N9     N     0.79830   0.42176   0.74792   0.01267  Uiso   1.00
N10    N     0.85760   0.24960   0.70200   0.01267  Uiso   1.00
N11    N     0.85550   0.99847   0.18854   0.01267  Uiso   1.00
N12    N     0.18250   0.43108   0.72336   0.01267  Uiso   1.00
N13    N     0.20960   0.29920   0.77120   0.01267  Uiso   1.00
N14    N     0.29830   0.32616   0.74792   0.01267  Uiso   1.00
N15    N     0.35760   0.45240   0.70200   0.01267  Uiso   1.00
N16    N     0.64450   0.80993   0.81146   0.01267  Uiso   1.00
N17    N     0.31750   0.70772   0.27664   0.01267  Uiso   1.00
N18    N     0.29040   0.52800   0.22880   0.01267  Uiso   1.00
N19    N     0.20170   0.57824   0.25208   0.01267  Uiso   1.00
N20    N     0.14240   0.75040   0.29800   0.01267  Uiso   1.00
O1     O     0.96340   0.30850   0.22520   0.01267  Uiso   1.00
O2     O     0.01430   0.45759   0.22238   0.01267  Uiso   1.00
O3     O     0.03460   0.65446   0.41672   0.01267  Uiso   1.00
O4     O     0.03380   0.61924   0.53868   0.01267  Uiso   1.00
O5     O     0.31980   0.91378   0.46456   0.01267  Uiso   1.00
O6     O     0.37710   0.05384   0.60728   0.01267  Uiso   1.00
O7     O     0.53660   0.08330   0.77480   0.01267  Uiso   1.00
O8     O     0.48570   0.23521   0.77762   0.01267  Uiso   1.00
O9     O     0.46540   0.23774   0.58328   0.01267  Uiso   1.00
O10    O     0.46620   0.08056   0.46132   0.01267  Uiso   1.00
O11    O     0.18020   0.44922   0.53544   0.01267  Uiso   1.00
O12    O     0.12290   0.44656   0.39272   0.01267  Uiso   1.00
O13    O     0.03660   0.69150   0.77480   0.01267  Uiso   1.00
O14    O     0.98570   0.54241   0.77762   0.01267  Uiso   1.00
O15    O     0.96540   0.34554   0.58328   0.01267  Uiso   1.00
O16    O     0.96620   0.38076   0.46132   0.01267  Uiso   1.00
O17    O     0.68020   0.08622   0.53544   0.01267  Uiso   1.00
O18    O     0.62290   0.94616   0.39272   0.01267  Uiso   1.00
O19    O     0.46340   0.91670   0.22520   0.01267  Uiso   1.00
O20    O     0.51430   0.76479   0.22238   0.01267  Uiso   1.00
O21    O     0.53460   0.76226   0.41672   0.01267  Uiso   1.00
O22    O     0.53380   0.91944   0.53868   0.01267  Uiso   1.00
O23    O     0.81980   0.55078   0.46456   0.01267  Uiso   1.00
O24    O     0.87710   0.55344   0.60728   0.01267  Uiso   1.00
