data_GEDSOZ_clean
_audit_creation_date              2014-07-02
_audit_creation_method            'Materials Studio'
_symmetry_space_group_name_H-M    'P1'
_symmetry_Int_Tables_number       1
_symmetry_cell_setting            triclinic
loop_
_symmetry_equiv_pos_as_xyz
  x,y,z
_cell_length_a                    13.0926
_cell_length_b                    14.4488
_cell_length_c                    16.2751
_cell_angle_alpha                 116.3530
_cell_angle_beta                  97.8329
_cell_angle_gamma                 90.0000
loop_
_atom_site_label
_atom_site_type_symbol
_atom_site_fract_x
_atom_site_fract_y
_atom_site_fract_z
_atom_site_U_iso_or_equiv
_atom_site_adp_type
_atom_site_occupancy
Nd1    Nd    0.45587   0.97657   0.36782   0.01267  Uiso   1.00
Nd2    Nd    0.04413   0.60875   0.63218   0.01267  Uiso   1.00
Nd3    Nd    0.54413   0.02343   0.63218   0.01267  Uiso   1.00
Nd4    Nd    0.95587   0.39125   0.36782   0.01267  Uiso   1.00
H1     H     0.53510   0.64540   0.11380   0.01267  Uiso   1.00
H2     H     0.58880   0.53480   0.97660   0.01267  Uiso   1.00
H3     H     0.63970   0.77940   0.92720   0.01267  Uiso   1.00
H4     H     0.59150   0.88830   0.06840   0.01267  Uiso   1.00
H5     H     0.57050   0.29950   0.68580   0.01267  Uiso   1.00
H6     H     0.76860   0.53010   0.71600   0.01267  Uiso   1.00
H7     H     0.69320   0.28480   0.46840   0.01267  Uiso   1.00
H8     H     0.66000   0.61200   0.81600   0.01267  Uiso   1.00
H9     H     0.96490   0.53160   0.88620   0.01267  Uiso   1.00
H10    H     0.91120   0.55820   0.02340   0.01267  Uiso   1.00
H11    H     0.86030   0.85220   0.07280   0.01267  Uiso   1.00
H12    H     0.90850   0.81990   0.93160   0.01267  Uiso   1.00
H13    H     0.92950   0.61370   0.31420   0.01267  Uiso   1.00
H14    H     0.73140   0.81410   0.28400   0.01267  Uiso   1.00
H15    H     0.80680   0.81640   0.53160   0.01267  Uiso   1.00
H16    H     0.84000   0.79600   0.18400   0.01267  Uiso   1.00
H17    H     0.46490   0.35460   0.88620   0.01267  Uiso   1.00
H18    H     0.41120   0.46520   0.02340   0.01267  Uiso   1.00
H19    H     0.36030   0.22060   0.07280   0.01267  Uiso   1.00
H20    H     0.40850   0.11170   0.93160   0.01267  Uiso   1.00
H21    H     0.42950   0.70050   0.31420   0.01267  Uiso   1.00
H22    H     0.23140   0.46990   0.28400   0.01267  Uiso   1.00
H23    H     0.30680   0.71520   0.53160   0.01267  Uiso   1.00
H24    H     0.34000   0.38800   0.18400   0.01267  Uiso   1.00
H25    H     0.03510   0.46840   0.11380   0.01267  Uiso   1.00
H26    H     0.08880   0.44180   0.97660   0.01267  Uiso   1.00
H27    H     0.13970   0.14780   0.92720   0.01267  Uiso   1.00
H28    H     0.09150   0.18010   0.06840   0.01267  Uiso   1.00
H29    H     0.07050   0.38630   0.68580   0.01267  Uiso   1.00
H30    H     0.26860   0.18590   0.71600   0.01267  Uiso   1.00
H31    H     0.19320   0.18360   0.46840   0.01267  Uiso   1.00
H32    H     0.16000   0.20400   0.81600   0.01267  Uiso   1.00
C1     C     0.52250   0.84650   0.19320   0.01267  Uiso   1.00
C2     C     0.55830   0.77700   0.10540   0.01267  Uiso   1.00
C3     C     0.55750   0.67240   0.07660   0.01267  Uiso   1.00
C4     C     0.58870   0.60550   0.99400   0.01267  Uiso   1.00
C5     C     0.62040   0.64620   0.93620   0.01267  Uiso   1.00
C6     C     0.61990   0.75190   0.96500   0.01267  Uiso   1.00
C7     C     0.59010   0.81730   0.04940   0.01267  Uiso   1.00
C8     C     0.64530   0.57750   0.84380   0.01267  Uiso   1.00
C9     C     0.56720   0.17240   0.50600   0.01267  Uiso   1.00
C10    C     0.62160   0.27920   0.56740   0.01267  Uiso   1.00
C11    C     0.61090   0.33020   0.66060   0.01267  Uiso   1.00
C12    C     0.66130   0.42810   0.71640   0.01267  Uiso   1.00
C13    C     0.73070   0.46750   0.67860   0.01267  Uiso   1.00
C14    C     0.74250   0.41380   0.58640   0.01267  Uiso   1.00
C15    C     0.68670   0.32010   0.53080   0.01267  Uiso   1.00
C16    C     0.81910   0.45420   0.54800   0.01267  Uiso   1.00
C17    C     0.97750   0.65330   0.80680   0.01267  Uiso   1.00
C18    C     0.94170   0.67160   0.89460   0.01267  Uiso   1.00
C19    C     0.94250   0.59580   0.92340   0.01267  Uiso   1.00
C20    C     0.91130   0.61150   0.00600   0.01267  Uiso   1.00
C21    C     0.87960   0.71000   0.06380   0.01267  Uiso   1.00
C22    C     0.88010   0.78690   0.03500   0.01267  Uiso   1.00
C23    C     0.90990   0.76790   0.95060   0.01267  Uiso   1.00
C24    C     0.85470   0.73370   0.15620   0.01267  Uiso   1.00
C25    C     0.93280   0.66640   0.49400   0.01267  Uiso   1.00
C26    C     0.87840   0.71180   0.43260   0.01267  Uiso   1.00
C27    C     0.88910   0.66960   0.33940   0.01267  Uiso   1.00
C28    C     0.83870   0.71170   0.28360   0.01267  Uiso   1.00
C29    C     0.76930   0.78890   0.32140   0.01267  Uiso   1.00
C30    C     0.75750   0.82740   0.41360   0.01267  Uiso   1.00
C31    C     0.81330   0.78930   0.46920   0.01267  Uiso   1.00
C32    C     0.68090   0.90620   0.45200   0.01267  Uiso   1.00
C33    C     0.47750   0.15350   0.80680   0.01267  Uiso   1.00
C34    C     0.44170   0.22300   0.89460   0.01267  Uiso   1.00
C35    C     0.44250   0.32760   0.92340   0.01267  Uiso   1.00
C36    C     0.41130   0.39450   0.00600   0.01267  Uiso   1.00
C37    C     0.37960   0.35380   0.06380   0.01267  Uiso   1.00
C38    C     0.38010   0.24810   0.03500   0.01267  Uiso   1.00
C39    C     0.40990   0.18270   0.95060   0.01267  Uiso   1.00
C40    C     0.35470   0.42250   0.15620   0.01267  Uiso   1.00
C41    C     0.43280   0.82760   0.49400   0.01267  Uiso   1.00
C42    C     0.37840   0.72080   0.43260   0.01267  Uiso   1.00
C43    C     0.38910   0.66980   0.33940   0.01267  Uiso   1.00
C44    C     0.33870   0.57190   0.28360   0.01267  Uiso   1.00
C45    C     0.26930   0.53250   0.32140   0.01267  Uiso   1.00
C46    C     0.25750   0.58620   0.41360   0.01267  Uiso   1.00
C47    C     0.31330   0.67990   0.46920   0.01267  Uiso   1.00
C48    C     0.18090   0.54580   0.45200   0.01267  Uiso   1.00
C49    C     0.02250   0.34670   0.19320   0.01267  Uiso   1.00
C50    C     0.05830   0.32840   0.10540   0.01267  Uiso   1.00
C51    C     0.05750   0.40420   0.07660   0.01267  Uiso   1.00
C52    C     0.08870   0.38850   0.99400   0.01267  Uiso   1.00
C53    C     0.12040   0.29000   0.93620   0.01267  Uiso   1.00
C54    C     0.11990   0.21310   0.96500   0.01267  Uiso   1.00
C55    C     0.09010   0.23210   0.04940   0.01267  Uiso   1.00
C56    C     0.14530   0.26630   0.84380   0.01267  Uiso   1.00
C57    C     0.06720   0.33360   0.50600   0.01267  Uiso   1.00
C58    C     0.12160   0.28820   0.56740   0.01267  Uiso   1.00
C59    C     0.11090   0.33040   0.66060   0.01267  Uiso   1.00
C60    C     0.16130   0.28830   0.71640   0.01267  Uiso   1.00
C61    C     0.23070   0.21110   0.67860   0.01267  Uiso   1.00
C62    C     0.24250   0.17260   0.58640   0.01267  Uiso   1.00
C63    C     0.18670   0.21070   0.53080   0.01267  Uiso   1.00
C64    C     0.31910   0.09380   0.54800   0.01267  Uiso   1.00
N1     N     0.64230   0.48304   0.80888   0.01267  Uiso   1.00
N2     N     0.85770   0.67416   0.19112   0.01267  Uiso   1.00
N3     N     0.35770   0.51696   0.19112   0.01267  Uiso   1.00
N4     N     0.14230   0.32584   0.80888   0.01267  Uiso   1.00
O1     O     0.47340   0.80844   0.23328   0.01267  Uiso   1.00
O2     O     0.53960   0.94434   0.22588   0.01267  Uiso   1.00
O3     O     0.54280   0.11558   0.54116   0.01267  Uiso   1.00
O4     O     0.54730   0.14552   0.42084   0.01267  Uiso   1.00
O5     O     0.82990   0.40132   0.46484   0.01267  Uiso   1.00
O6     O     0.86840   0.53985   0.60150   0.01267  Uiso   1.00
O7     O     0.02660   0.57516   0.76672   0.01267  Uiso   1.00
O8     O     0.96040   0.71846   0.77412   0.01267  Uiso   1.00
O9     O     0.95720   0.57442   0.45884   0.01267  Uiso   1.00
O10    O     0.95270   0.72468   0.57916   0.01267  Uiso   1.00
O11    O     0.67010   0.93648   0.53516   0.01267  Uiso   1.00
O12    O     0.63160   0.93835   0.39850   0.01267  Uiso   1.00
O13    O     0.52660   0.19156   0.76672   0.01267  Uiso   1.00
O14    O     0.46040   0.05566   0.77412   0.01267  Uiso   1.00
O15    O     0.45720   0.88442   0.45884   0.01267  Uiso   1.00
O16    O     0.45270   0.85448   0.57916   0.01267  Uiso   1.00
O17    O     0.17010   0.59868   0.53516   0.01267  Uiso   1.00
O18    O     0.13160   0.46015   0.39850   0.01267  Uiso   1.00
O19    O     0.97340   0.42484   0.23328   0.01267  Uiso   1.00
O20    O     0.03960   0.28154   0.22588   0.01267  Uiso   1.00
O21    O     0.04280   0.42558   0.54116   0.01267  Uiso   1.00
O22    O     0.04730   0.27532   0.42084   0.01267  Uiso   1.00
O23    O     0.32990   0.06352   0.46484   0.01267  Uiso   1.00
O24    O     0.36840   0.06165   0.60150   0.01267  Uiso   1.00
