data_GEDSUF_clean
_audit_creation_date              2014-07-02
_audit_creation_method            'Materials Studio'
_symmetry_space_group_name_H-M    'P1'
_symmetry_Int_Tables_number       1
_symmetry_cell_setting            triclinic
loop_
_symmetry_equiv_pos_as_xyz
  x,y,z
_cell_length_a                    13.6824
_cell_length_b                    15.0012
_cell_length_c                    15.6490
_cell_angle_alpha                 95.7510
_cell_angle_beta                  113.1630
_cell_angle_gamma                 90.4930
loop_
_atom_site_label
_atom_site_type_symbol
_atom_site_fract_x
_atom_site_fract_y
_atom_site_fract_z
_atom_site_U_iso_or_equiv
_atom_site_adp_type
_atom_site_occupancy
Nd1    Nd    0.50699   0.52027   0.13396   0.01267  Uiso   1.00
Nd2    Nd    0.88967   0.96851   0.86894   0.01267  Uiso   1.00
Nd3    Nd    0.49301   0.47973   0.86604   0.01267  Uiso   1.00
Nd4    Nd    0.11033   0.03149   0.13106   0.01267  Uiso   1.00
H1     H     0.86900   0.46100   0.38380   0.01267  Uiso   1.00
H2     H     0.98040   0.40370   0.51670   0.01267  Uiso   1.00
H3     H     0.72930   0.29660   0.54740   0.01267  Uiso   1.00
H4     H     0.61800   0.35530   0.41500   0.01267  Uiso   1.00
H5     H     0.21320   0.39240   0.79760   0.01267  Uiso   1.00
H6     H     0.23320   0.26980   0.02150   0.01267  Uiso   1.00
H7     H     0.98620   0.20900   0.77510   0.01267  Uiso   1.00
H8     H     0.72960   0.06330   0.54630   0.01267  Uiso   1.00
H9     H     0.72670   0.11510   0.41180   0.01267  Uiso   1.00
H10    H     0.04550   0.11970   0.51620   0.01267  Uiso   1.00
H11    H     0.04630   0.06400   0.64870   0.01267  Uiso   1.00
H12    H     0.68610   0.29120   0.20740   0.01267  Uiso   1.00
H13    H     0.72240   0.23620   0.96570   0.01267  Uiso   1.00
H14    H     0.88320   0.10340   0.18590   0.01267  Uiso   1.00
H15    H     0.31540   0.66410   0.15870   0.01267  Uiso   1.00
H16    H     0.17420   0.69130   0.19900   0.01267  Uiso   1.00
H17    H     0.11560   0.55820   0.24220   0.01267  Uiso   1.00
H18    H     0.21060   0.43190   0.27730   0.01267  Uiso   1.00
H19    H     0.36430   0.43850   0.24430   0.01267  Uiso   1.00
H20    H     0.62310   0.02880   0.78410   0.01267  Uiso   1.00
H21    H     0.44630   0.98290   0.74390   0.01267  Uiso   1.00
H22    H     0.40330   0.83250   0.74350   0.01267  Uiso   1.00
H23    H     0.53710   0.73520   0.79080   0.01267  Uiso   1.00
H24    H     0.70910   0.78420   0.83040   0.01267  Uiso   1.00
H25    H     0.88900   0.26800   0.65700   0.01267  Uiso   1.00
H26    H     0.94000   0.16100   0.34700   0.01267  Uiso   1.00
H27    H     0.13100   0.53900   0.61620   0.01267  Uiso   1.00
H28    H     0.01960   0.59630   0.48330   0.01267  Uiso   1.00
H29    H     0.27070   0.70340   0.45260   0.01267  Uiso   1.00
H30    H     0.38200   0.64470   0.58500   0.01267  Uiso   1.00
H31    H     0.78680   0.60760   0.20240   0.01267  Uiso   1.00
H32    H     0.76680   0.73020   0.97850   0.01267  Uiso   1.00
H33    H     0.01380   0.79100   0.22490   0.01267  Uiso   1.00
H34    H     0.27040   0.93670   0.45370   0.01267  Uiso   1.00
H35    H     0.27330   0.88490   0.58820   0.01267  Uiso   1.00
H36    H     0.95450   0.88030   0.48380   0.01267  Uiso   1.00
H37    H     0.95370   0.93600   0.35130   0.01267  Uiso   1.00
H38    H     0.31390   0.70880   0.79260   0.01267  Uiso   1.00
H39    H     0.27760   0.76380   0.03430   0.01267  Uiso   1.00
H40    H     0.11680   0.89660   0.81410   0.01267  Uiso   1.00
H41    H     0.68460   0.33590   0.84130   0.01267  Uiso   1.00
H42    H     0.82580   0.30870   0.80100   0.01267  Uiso   1.00
H43    H     0.88440   0.44180   0.75780   0.01267  Uiso   1.00
H44    H     0.78940   0.56810   0.72270   0.01267  Uiso   1.00
H45    H     0.63570   0.56150   0.75570   0.01267  Uiso   1.00
H46    H     0.37690   0.97120   0.21590   0.01267  Uiso   1.00
H47    H     0.55370   0.01710   0.25610   0.01267  Uiso   1.00
H48    H     0.59670   0.16750   0.25650   0.01267  Uiso   1.00
H49    H     0.46290   0.26480   0.20920   0.01267  Uiso   1.00
H50    H     0.29090   0.21580   0.16960   0.01267  Uiso   1.00
H51    H     0.11100   0.73200   0.34300   0.01267  Uiso   1.00
H52    H     0.06000   0.83900   0.65300   0.01267  Uiso   1.00
C1     C     0.65720   0.45900   0.30380   0.01267  Uiso   1.00
C2     C     0.73100   0.41690   0.38640   0.01267  Uiso   1.00
C3     C     0.84030   0.42910   0.41710   0.01267  Uiso   1.00
C4     C     0.90720   0.39420   0.49680   0.01267  Uiso   1.00
C5     C     0.86750   0.34550   0.54780   0.01267  Uiso   1.00
C6     C     0.75790   0.33060   0.51540   0.01267  Uiso   1.00
C7     C     0.69120   0.36590   0.43590   0.01267  Uiso   1.00
C8     C     0.93470   0.31230   0.63660   0.01267  Uiso   1.00
C9     C     0.08830   0.30680   0.77250   0.01267  Uiso   1.00
C10    C     0.18420   0.35290   0.82470   0.01267  Uiso   1.00
C11    C     0.23790   0.33970   0.91940   0.01267  Uiso   1.00
C12    C     0.19770   0.27770   0.95870   0.01267  Uiso   1.00
C13    C     0.10400   0.22700   0.90410   0.01267  Uiso   1.00
C14    C     0.04920   0.24210   0.81150   0.01267  Uiso   1.00
C15    C     0.33410   0.39700   0.98200   0.01267  Uiso   1.00
C16    C     0.06260   0.15570   0.94430   0.01267  Uiso   1.00
C17    C     0.88920   0.01790   0.69670   0.01267  Uiso   1.00
C18    C     0.88840   0.05730   0.61180   0.01267  Uiso   1.00
C19    C     0.79340   0.07370   0.54000   0.01267  Uiso   1.00
C20    C     0.79140   0.10510   0.45930   0.01267  Uiso   1.00
C21    C     0.88610   0.12170   0.44930   0.01267  Uiso   1.00
C22    C     0.98140   0.10730   0.52140   0.01267  Uiso   1.00
C23    C     0.98180   0.07450   0.60130   0.01267  Uiso   1.00
C24    C     0.88220   0.15110   0.36120   0.01267  Uiso   1.00
C25    C     0.78660   0.19350   0.21080   0.01267  Uiso   1.00
C26    C     0.71750   0.25890   0.17200   0.01267  Uiso   1.00
C27    C     0.69420   0.27710   0.08100   0.01267  Uiso   1.00
C28    C     0.73850   0.22580   0.02730   0.01267  Uiso   1.00
C29    C     0.80680   0.15880   0.06560   0.01267  Uiso   1.00
C30    C     0.83360   0.14510   0.15880   0.01267  Uiso   1.00
C31    C     0.62100   0.35050   0.04270   0.01267  Uiso   1.00
C32    C     0.84260   0.09710   0.00340   0.01267  Uiso   1.00
C33    C     0.29680   0.61960   0.18770   0.01267  Uiso   1.00
C34    C     0.20890   0.63800   0.20510   0.01267  Uiso   1.00
C35    C     0.18000   0.55710   0.23520   0.01267  Uiso   1.00
C36    C     0.23140   0.48050   0.25470   0.01267  Uiso   1.00
C37    C     0.32260   0.48820   0.23420   0.01267  Uiso   1.00
C38    C     0.60580   0.96910   0.78590   0.01267  Uiso   1.00
C39    C     0.49920   0.94170   0.76080   0.01267  Uiso   1.00
C40    C     0.47380   0.85260   0.76140   0.01267  Uiso   1.00
C41    C     0.55280   0.79520   0.78860   0.01267  Uiso   1.00
C42    C     0.65590   0.82500   0.81280   0.01267  Uiso   1.00
C43    C     0.34280   0.54100   0.69620   0.01267  Uiso   1.00
C44    C     0.26900   0.58310   0.61360   0.01267  Uiso   1.00
C45    C     0.15970   0.57090   0.58290   0.01267  Uiso   1.00
C46    C     0.09280   0.60580   0.50320   0.01267  Uiso   1.00
C47    C     0.13250   0.65450   0.45220   0.01267  Uiso   1.00
C48    C     0.24210   0.66940   0.48460   0.01267  Uiso   1.00
C49    C     0.30880   0.63410   0.56410   0.01267  Uiso   1.00
C50    C     0.06530   0.68770   0.36340   0.01267  Uiso   1.00
C51    C     0.91170   0.69320   0.22750   0.01267  Uiso   1.00
C52    C     0.81580   0.64710   0.17530   0.01267  Uiso   1.00
C53    C     0.76210   0.66030   0.08060   0.01267  Uiso   1.00
C54    C     0.80230   0.72230   0.04130   0.01267  Uiso   1.00
C55    C     0.89600   0.77300   0.09590   0.01267  Uiso   1.00
C56    C     0.95080   0.75790   0.18850   0.01267  Uiso   1.00
C57    C     0.66590   0.60300   0.01800   0.01267  Uiso   1.00
C58    C     0.93740   0.84430   0.05570   0.01267  Uiso   1.00
C59    C     0.11080   0.98210   0.30330   0.01267  Uiso   1.00
C60    C     0.11160   0.94270   0.38820   0.01267  Uiso   1.00
C61    C     0.20660   0.92630   0.46000   0.01267  Uiso   1.00
C62    C     0.20860   0.89490   0.54070   0.01267  Uiso   1.00
C63    C     0.11390   0.87830   0.55070   0.01267  Uiso   1.00
C64    C     0.01860   0.89270   0.47860   0.01267  Uiso   1.00
C65    C     0.01820   0.92550   0.39870   0.01267  Uiso   1.00
C66    C     0.11780   0.84890   0.63880   0.01267  Uiso   1.00
C67    C     0.21340   0.80650   0.78920   0.01267  Uiso   1.00
C68    C     0.28250   0.74110   0.82800   0.01267  Uiso   1.00
C69    C     0.30580   0.72290   0.91900   0.01267  Uiso   1.00
C70    C     0.26150   0.77420   0.97270   0.01267  Uiso   1.00
C71    C     0.19320   0.84120   0.93440   0.01267  Uiso   1.00
C72    C     0.16640   0.85490   0.84120   0.01267  Uiso   1.00
C73    C     0.37900   0.64950   0.95730   0.01267  Uiso   1.00
C74    C     0.15740   0.90290   0.99660   0.01267  Uiso   1.00
C75    C     0.70320   0.38040   0.81230   0.01267  Uiso   1.00
C76    C     0.79110   0.36200   0.79490   0.01267  Uiso   1.00
C77    C     0.82000   0.44290   0.76480   0.01267  Uiso   1.00
C78    C     0.76860   0.51950   0.74530   0.01267  Uiso   1.00
C79    C     0.67740   0.51180   0.76580   0.01267  Uiso   1.00
C80    C     0.39420   0.03090   0.21410   0.01267  Uiso   1.00
C81    C     0.50080   0.05830   0.23920   0.01267  Uiso   1.00
C82    C     0.52620   0.14740   0.23860   0.01267  Uiso   1.00
C83    C     0.44720   0.20480   0.21140   0.01267  Uiso   1.00
C84    C     0.34410   0.17500   0.18720   0.01267  Uiso   1.00
N1     N     0.03230   0.33220   0.68030   0.01267  Uiso   1.00
N2     N     0.79650   0.17280   0.30050   0.01267  Uiso   1.00
N3     N     0.35880   0.55600   0.20220   0.01267  Uiso   1.00
N4     N     0.68350   0.91160   0.81230   0.01267  Uiso   1.00
N5     N     0.96770   0.66780   0.31970   0.01267  Uiso   1.00
N6     N     0.20350   0.82720   0.69950   0.01267  Uiso   1.00
N7     N     0.64120   0.44400   0.79780   0.01267  Uiso   1.00
N8     N     0.31650   0.08840   0.18770   0.01267  Uiso   1.00
O1     O     0.55640   0.44400   0.27800   0.01267  Uiso   1.00
O2     O     0.69370   0.50650   0.26100   0.01267  Uiso   1.00
O3     O     0.35720   0.40630   0.06920   0.01267  Uiso   1.00
O4     O     0.38900   0.43870   0.94750   0.01267  Uiso   1.00
O5     O     0.97720   0.11410   0.89230   0.01267  Uiso   1.00
O6     O     0.11730   0.14250   0.02920   0.01267  Uiso   1.00
O7     O     0.57790   0.38560   0.09460   0.01267  Uiso   1.00
O8     O     0.60680   0.37180   0.96340   0.01267  Uiso   1.00
O9     O     0.97170   0.98630   0.74940   0.01267  Uiso   1.00
O10    O     0.80350   0.01840   0.71080   0.01267  Uiso   1.00
O11    O     0.78680   0.08660   0.91690   0.01267  Uiso   1.00
O12    O     0.92490   0.05250   0.03890   0.01267  Uiso   1.00
O13    O     0.44360   0.55600   0.72200   0.01267  Uiso   1.00
O14    O     0.30630   0.49350   0.73900   0.01267  Uiso   1.00
O15    O     0.64280   0.59370   0.93080   0.01267  Uiso   1.00
O16    O     0.61100   0.56130   0.05250   0.01267  Uiso   1.00
O17    O     0.02280   0.88590   0.10770   0.01267  Uiso   1.00
O18    O     0.88270   0.85750   0.97080   0.01267  Uiso   1.00
O19    O     0.42210   0.61440   0.90540   0.01267  Uiso   1.00
O20    O     0.39320   0.62820   0.03660   0.01267  Uiso   1.00
O21    O     0.02830   0.01370   0.25060   0.01267  Uiso   1.00
O22    O     0.19650   0.98160   0.28920   0.01267  Uiso   1.00
O23    O     0.21320   0.91340   0.08310   0.01267  Uiso   1.00
O24    O     0.07510   0.94750   0.96110   0.01267  Uiso   1.00
