data_GEFFUT_clean
_audit_creation_date              2014-07-02
_audit_creation_method            'Materials Studio'
_symmetry_space_group_name_H-M    'P1'
_symmetry_Int_Tables_number       1
_symmetry_cell_setting            triclinic
loop_
_symmetry_equiv_pos_as_xyz
  x,y,z
_cell_length_a                    15.2861
_cell_length_b                    17.5096
_cell_length_c                    19.0033
_cell_angle_alpha                 62.5677
_cell_angle_beta                  86.2685
_cell_angle_gamma                 81.8789
loop_
_atom_site_label
_atom_site_type_symbol
_atom_site_fract_x
_atom_site_fract_y
_atom_site_fract_z
_atom_site_U_iso_or_equiv
_atom_site_adp_type
_atom_site_occupancy
Co1    Co    0.49918   0.34283   0.27250   0.01267  Uiso   1.00
Co2    Co    0.21829   0.31006   0.70824   0.01267  Uiso   1.00
Co3    Co    0.61093   0.19274   0.76468   0.01267  Uiso   1.00
Co4    Co    0.99918   0.61533   0.72750   0.01267  Uiso   1.00
Co5    Co    0.71829   0.01830   0.29176   0.01267  Uiso   1.00
Co6    Co    0.11093   0.95742   0.23532   0.01267  Uiso   1.00
H1     H     0.05920   0.47360   0.44100   0.01267  Uiso   1.00
H2     H     0.29930   0.33320   0.46740   0.01267  Uiso   1.00
H3     H     0.20180   0.49610   0.24880   0.01267  Uiso   1.00
H4     H     0.50970   0.34740   0.46780   0.01267  Uiso   1.00
H5     H     0.54010   0.39640   0.55720   0.01267  Uiso   1.00
H6     H     0.60960   0.51880   0.51640   0.01267  Uiso   1.00
H7     H     0.65080   0.59670   0.38480   0.01267  Uiso   1.00
H8     H     0.51070   0.36260   0.06400   0.01267  Uiso   1.00
H9     H     0.53070   0.42780   0.92840   0.01267  Uiso   1.00
H10    H     0.58770   0.55870   0.86360   0.01267  Uiso   1.00
H11    H     0.62230   0.62990   0.93180   0.01267  Uiso   1.00
H12    H     0.29280   0.33710   0.17520   0.01267  Uiso   1.00
H13    H     0.19900   0.27840   0.12740   0.01267  Uiso   1.00
H14    H     0.24480   0.15440   0.11400   0.01267  Uiso   1.00
H15    H     0.38650   0.07970   0.15380   0.01267  Uiso   1.00
H16    H     0.69170   0.30300   0.40540   0.01267  Uiso   1.00
H17    H     0.82580   0.23810   0.46700   0.01267  Uiso   1.00
H18    H     0.90170   0.12060   0.45580   0.01267  Uiso   1.00
H19    H     0.84380   0.06260   0.38460   0.01267  Uiso   1.00
H20    H     0.23340   0.32880   0.86020   0.01267  Uiso   1.00
H21    H     0.28560   0.33270   0.96900   0.01267  Uiso   1.00
H22    H     0.43300   0.28460   0.00660   0.01267  Uiso   1.00
H23    H     0.53600   0.24410   0.93020   0.01267  Uiso   1.00
H24    H     0.37290   0.16330   0.51340   0.01267  Uiso   1.00
H25    H     0.48900   0.10120   0.46600   0.01267  Uiso   1.00
H26    H     0.63030   0.08220   0.50880   0.01267  Uiso   1.00
H27    H     0.66230   0.12530   0.60120   0.01267  Uiso   1.00
H28    H     0.71530   0.98410   0.77040   0.01267  Uiso   1.00
H29    H     0.81430   0.89430   0.73180   0.01267  Uiso   1.00
H30    H     0.93530   0.94420   0.65620   0.01267  Uiso   1.00
H31    H     0.97020   0.08560   0.61540   0.01267  Uiso   1.00
H32    H     0.52500   0.42000   0.74020   0.01267  Uiso   1.00
H33    H     0.52720   0.56230   0.70520   0.01267  Uiso   1.00
H34    H     0.64900   0.63230   0.64280   0.01267  Uiso   1.00
H35    H     0.76850   0.56100   0.61020   0.01267  Uiso   1.00
H36    H     0.15670   0.11180   0.96260   0.01267  Uiso   1.00
H37    H     0.16960   0.00990   0.80940   0.01267  Uiso   1.00
H38    H     0.14120   0.85730   0.04260   0.01267  Uiso   1.00
H39    H     0.62430   0.60940   0.09060   0.01267  Uiso   1.00
H40    H     0.64190   0.59290   0.23660   0.01267  Uiso   1.00
H41    H     0.53870   0.08880   0.22400   0.01267  Uiso   1.00
H42    H     0.33880   0.22910   0.62560   0.01267  Uiso   1.00
H43    H     0.83060   0.39180   0.62660   0.01267  Uiso   1.00
H44    H     0.89280   0.24000   0.62220   0.01267  Uiso   1.00
H45    H     0.55920   0.91460   0.55900   0.01267  Uiso   1.00
H46    H     0.79930   0.80060   0.53260   0.01267  Uiso   1.00
H47    H     0.70180   0.74490   0.75120   0.01267  Uiso   1.00
H48    H     0.00970   0.81520   0.53220   0.01267  Uiso   1.00
H49    H     0.04010   0.95360   0.44280   0.01267  Uiso   1.00
H50    H     0.10960   0.03520   0.48360   0.01267  Uiso   1.00
H51    H     0.15080   0.98150   0.61520   0.01267  Uiso   1.00
H52    H     0.01070   0.42660   0.93600   0.01267  Uiso   1.00
H53    H     0.03070   0.35620   0.07160   0.01267  Uiso   1.00
H54    H     0.08770   0.42230   0.13640   0.01267  Uiso   1.00
H55    H     0.12230   0.56170   0.06820   0.01267  Uiso   1.00
H56    H     0.79280   0.51230   0.82480   0.01267  Uiso   1.00
H57    H     0.69900   0.40580   0.87260   0.01267  Uiso   1.00
H58    H     0.74480   0.26840   0.88600   0.01267  Uiso   1.00
H59    H     0.88650   0.23350   0.84620   0.01267  Uiso   1.00
H60    H     0.19170   0.70840   0.59460   0.01267  Uiso   1.00
H61    H     0.32580   0.70510   0.53300   0.01267  Uiso   1.00
H62    H     0.40170   0.57640   0.54420   0.01267  Uiso   1.00
H63    H     0.34380   0.44720   0.61540   0.01267  Uiso   1.00
H64    H     0.73340   0.18900   0.13980   0.01267  Uiso   1.00
H65    H     0.78560   0.30170   0.03100   0.01267  Uiso   1.00
H66    H     0.93300   0.29120   0.99340   0.01267  Uiso   1.00
H67    H     0.03600   0.17430   0.06980   0.01267  Uiso   1.00
H68    H     0.87290   0.67670   0.48660   0.01267  Uiso   1.00
H69    H     0.98900   0.56720   0.53400   0.01267  Uiso   1.00
H70    H     0.13030   0.59100   0.49120   0.01267  Uiso   1.00
H71    H     0.16230   0.72650   0.39880   0.01267  Uiso   1.00
H72    H     0.21530   0.75450   0.22960   0.01267  Uiso   1.00
H73    H     0.31430   0.62610   0.26820   0.01267  Uiso   1.00
H74    H     0.43530   0.60040   0.34380   0.01267  Uiso   1.00
H75    H     0.47020   0.70100   0.38460   0.01267  Uiso   1.00
H76    H     0.02500   0.16020   0.25980   0.01267  Uiso   1.00
H77    H     0.02720   0.26750   0.29480   0.01267  Uiso   1.00
H78    H     0.14900   0.27510   0.35720   0.01267  Uiso   1.00
H79    H     0.26850   0.17120   0.38980   0.01267  Uiso   1.00
H80    H     0.65670   0.07440   0.03740   0.01267  Uiso   1.00
H81    H     0.66960   0.81930   0.19060   0.01267  Uiso   1.00
H82    H     0.64120   0.89990   0.95740   0.01267  Uiso   1.00
H83    H     0.12430   0.70000   0.90940   0.01267  Uiso   1.00
H84    H     0.14190   0.82950   0.76340   0.01267  Uiso   1.00
H85    H     0.03870   0.31280   0.77600   0.01267  Uiso   1.00
H86    H     0.83880   0.85470   0.37440   0.01267  Uiso   1.00
H87    H     0.33060   0.01840   0.37340   0.01267  Uiso   1.00
H88    H     0.39280   0.86220   0.37780   0.01267  Uiso   1.00
C1     C     0.05140   0.56330   0.28440   0.01267  Uiso   1.00
C2     C     0.12060   0.49500   0.33680   0.01267  Uiso   1.00
C3     C     0.11060   0.45830   0.41900   0.01267  Uiso   1.00
C4     C     0.17840   0.39820   0.46820   0.01267  Uiso   1.00
C5     C     0.16940   0.36310   0.55560   0.01267  Uiso   1.00
C6     C     0.25470   0.37360   0.43460   0.01267  Uiso   1.00
C7     C     0.26420   0.40940   0.35200   0.01267  Uiso   1.00
C8     C     0.34680   0.38170   0.31860   0.01267  Uiso   1.00
C9     C     0.19600   0.47120   0.30360   0.01267  Uiso   1.00
C10    C     0.56070   0.44420   0.37220   0.01267  Uiso   1.00
C11    C     0.53710   0.39700   0.45120   0.01267  Uiso   1.00
C12    C     0.55580   0.42640   0.50420   0.01267  Uiso   1.00
C13    C     0.59800   0.50060   0.47940   0.01267  Uiso   1.00
C14    C     0.62280   0.54740   0.40100   0.01267  Uiso   1.00
C15    C     0.60420   0.51790   0.34720   0.01267  Uiso   1.00
C16    C     0.55470   0.45750   0.08140   0.01267  Uiso   1.00
C17    C     0.53290   0.41560   0.03840   0.01267  Uiso   1.00
C18    C     0.54530   0.45470   0.95760   0.01267  Uiso   1.00
C19    C     0.57930   0.53440   0.91820   0.01267  Uiso   1.00
C20    C     0.60050   0.57670   0.95820   0.01267  Uiso   1.00
C21    C     0.58820   0.53740   0.04060   0.01267  Uiso   1.00
C22    C     0.58270   0.49490   0.24620   0.01267  Uiso   1.00
C23    C     0.58100   0.49890   0.16780   0.01267  Uiso   1.00
C24    C     0.39680   0.23870   0.19900   0.01267  Uiso   1.00
C25    C     0.31090   0.28550   0.17260   0.01267  Uiso   1.00
C26    C     0.25600   0.25060   0.14280   0.01267  Uiso   1.00
C27    C     0.28350   0.17490   0.13520   0.01267  Uiso   1.00
C28    C     0.36760   0.12980   0.15900   0.01267  Uiso   1.00
C29    C     0.42280   0.16400   0.19180   0.01267  Uiso   1.00
C30    C     0.68610   0.22360   0.35440   0.01267  Uiso   1.00
C31    C     0.72170   0.25580   0.40020   0.01267  Uiso   1.00
C32    C     0.80160   0.21660   0.43700   0.01267  Uiso   1.00
C33    C     0.84740   0.14530   0.43060   0.01267  Uiso   1.00
C34    C     0.81390   0.11080   0.38800   0.01267  Uiso   1.00
C35    C     0.73140   0.15200   0.34900   0.01267  Uiso   1.00
C36    C     0.52870   0.19110   0.24660   0.01267  Uiso   1.00
C37    C     0.60580   0.18580   0.28700   0.01267  Uiso   1.00
C38    C     0.35380   0.28780   0.82580   0.01267  Uiso   1.00
C39    C     0.29300   0.31310   0.87340   0.01267  Uiso   1.00
C40    C     0.32390   0.31390   0.93840   0.01267  Uiso   1.00
C41    C     0.41450   0.28610   0.96020   0.01267  Uiso   1.00
C42    C     0.47670   0.26080   0.91580   0.01267  Uiso   1.00
C43    C     0.44350   0.26240   0.84620   0.01267  Uiso   1.00
C44    C     0.44800   0.17750   0.58960   0.01267  Uiso   1.00
C45    C     0.43010   0.15460   0.53200   0.01267  Uiso   1.00
C46    C     0.49960   0.11860   0.50380   0.01267  Uiso   1.00
C47    C     0.58490   0.10730   0.52940   0.01267  Uiso   1.00
C48    C     0.60450   0.13230   0.58460   0.01267  Uiso   1.00
C49    C     0.53420   0.16870   0.61480   0.01267  Uiso   1.00
C50    C     0.42130   0.24960   0.74160   0.01267  Uiso   1.00
C51    C     0.44840   0.22210   0.68000   0.01267  Uiso   1.00
C52    C     0.78360   0.08880   0.71200   0.01267  Uiso   1.00
C53    C     0.76450   0.00410   0.73920   0.01267  Uiso   1.00
C54    C     0.82440   0.95100   0.71620   0.01267  Uiso   1.00
C55    C     0.89800   0.98150   0.67060   0.01267  Uiso   1.00
C56    C     0.91970   0.06640   0.64480   0.01267  Uiso   1.00
C57    C     0.85940   0.11870   0.66700   0.01267  Uiso   1.00
C58    C     0.64680   0.40080   0.69720   0.01267  Uiso   1.00
C59    C     0.57410   0.44710   0.71460   0.01267  Uiso   1.00
C60    C     0.57580   0.53140   0.69400   0.01267  Uiso   1.00
C61    C     0.65000   0.57420   0.65540   0.01267  Uiso   1.00
C62    C     0.72030   0.53300   0.63660   0.01267  Uiso   1.00
C63    C     0.71790   0.44540   0.65880   0.01267  Uiso   1.00
C64    C     0.78070   0.22530   0.68240   0.01267  Uiso   1.00
C65    C     0.74260   0.30950   0.67960   0.01267  Uiso   1.00
C66    C     0.13630   0.97000   0.09900   0.01267  Uiso   1.00
C67    C     0.14660   0.98160   0.01480   0.01267  Uiso   1.00
C68    C     0.15610   0.06450   0.95280   0.01267  Uiso   1.00
C69    C     0.16460   0.07370   0.87620   0.01267  Uiso   1.00
C70    C     0.17980   0.15880   0.80340   0.01267  Uiso   1.00
C71    C     0.16430   0.00230   0.86120   0.01267  Uiso   1.00
C72    C     0.15630   0.92040   0.92320   0.01267  Uiso   1.00
C73    C     0.15940   0.84580   0.90400   0.01267  Uiso   1.00
C74    C     0.14710   0.91150   0.00040   0.01267  Uiso   1.00
C75    C     0.55140   0.84770   0.71560   0.01267  Uiso   1.00
C76    C     0.62060   0.83180   0.66320   0.01267  Uiso   1.00
C77    C     0.61060   0.87730   0.58100   0.01267  Uiso   1.00
C78    C     0.67840   0.86640   0.53180   0.01267  Uiso   1.00
C79    C     0.66940   0.91870   0.44440   0.01267  Uiso   1.00
C80    C     0.75470   0.80820   0.56540   0.01267  Uiso   1.00
C81    C     0.76420   0.76140   0.64800   0.01267  Uiso   1.00
C82    C     0.84680   0.70030   0.68140   0.01267  Uiso   1.00
C83    C     0.69600   0.77480   0.69640   0.01267  Uiso   1.00
C84    C     0.06070   0.81640   0.62780   0.01267  Uiso   1.00
C85    C     0.03710   0.84820   0.54880   0.01267  Uiso   1.00
C86    C     0.05580   0.93060   0.49580   0.01267  Uiso   1.00
C87    C     0.09800   0.98000   0.52060   0.01267  Uiso   1.00
C88    C     0.12280   0.94840   0.59900   0.01267  Uiso   1.00
C89    C     0.10420   0.86510   0.65280   0.01267  Uiso   1.00
C90    C     0.05470   0.53890   0.91860   0.01267  Uiso   1.00
C91    C     0.03290   0.45400   0.96160   0.01267  Uiso   1.00
C92    C     0.04530   0.41230   0.04240   0.01267  Uiso   1.00
C93    C     0.07930   0.45260   0.08180   0.01267  Uiso   1.00
C94    C     0.10050   0.53490   0.04180   0.01267  Uiso   1.00
C95    C     0.08820   0.57800   0.95940   0.01267  Uiso   1.00
C96    C     0.08270   0.74110   0.75380   0.01267  Uiso   1.00
C97    C     0.08100   0.66670   0.83220   0.01267  Uiso   1.00
C98    C     0.89680   0.43770   0.80100   0.01267  Uiso   1.00
C99    C     0.81090   0.45810   0.82740   0.01267  Uiso   1.00
C100   C     0.75600   0.39340   0.85720   0.01267  Uiso   1.00
C101   C     0.78350   0.31010   0.86480   0.01267  Uiso   1.00
C102   C     0.86760   0.28880   0.84100   0.01267  Uiso   1.00
C103   C     0.92280   0.35580   0.80820   0.01267  Uiso   1.00
C104   C     0.18610   0.57800   0.64560   0.01267  Uiso   1.00
C105   C     0.22170   0.65600   0.59980   0.01267  Uiso   1.00
C106   C     0.30160   0.65360   0.56300   0.01267  Uiso   1.00
C107   C     0.34740   0.57590   0.56940   0.01267  Uiso   1.00
C108   C     0.31390   0.49880   0.61200   0.01267  Uiso   1.00
C109   C     0.23140   0.50100   0.65100   0.01267  Uiso   1.00
C110   C     0.02870   0.43770   0.75340   0.01267  Uiso   1.00
C111   C     0.10580   0.47280   0.71300   0.01267  Uiso   1.00
C112   C     0.85380   0.11360   0.17420   0.01267  Uiso   1.00
C113   C     0.79300   0.18650   0.12660   0.01267  Uiso   1.00
C114   C     0.82390   0.25230   0.06160   0.01267  Uiso   1.00
C115   C     0.91450   0.24630   0.03980   0.01267  Uiso   1.00
C116   C     0.97670   0.17660   0.08420   0.01267  Uiso   1.00
C117   C     0.94350   0.10860   0.15380   0.01267  Uiso   1.00
C118   C     0.94800   0.76710   0.41040   0.01267  Uiso   1.00
C119   C     0.93010   0.68660   0.46800   0.01267  Uiso   1.00
C120   C     0.99960   0.62240   0.49620   0.01267  Uiso   1.00
C121   C     0.08490   0.63670   0.47060   0.01267  Uiso   1.00
C122   C     0.10450   0.71690   0.41540   0.01267  Uiso   1.00
C123   C     0.03420   0.78350   0.38520   0.01267  Uiso   1.00
C124   C     0.92130   0.99120   0.25840   0.01267  Uiso   1.00
C125   C     0.94840   0.90210   0.32000   0.01267  Uiso   1.00
C126   C     0.28360   0.80080   0.28800   0.01267  Uiso   1.00
C127   C     0.26450   0.74330   0.26080   0.01267  Uiso   1.00
C128   C     0.32440   0.66720   0.28380   0.01267  Uiso   1.00
C129   C     0.39800   0.65210   0.32940   0.01267  Uiso   1.00
C130   C     0.41970   0.71120   0.35520   0.01267  Uiso   1.00
C131   C     0.35940   0.78570   0.33300   0.01267  Uiso   1.00
C132   C     0.14680   0.09800   0.30280   0.01267  Uiso   1.00
C133   C     0.07410   0.16170   0.28540   0.01267  Uiso   1.00
C134   C     0.07580   0.22540   0.30600   0.01267  Uiso   1.00
C135   C     0.15000   0.22960   0.34460   0.01267  Uiso   1.00
C136   C     0.22030   0.16960   0.36340   0.01267  Uiso   1.00
C137   C     0.21790   0.10420   0.34120   0.01267  Uiso   1.00
C138   C     0.28070   0.90770   0.31760   0.01267  Uiso   1.00
C139   C     0.24260   0.98910   0.32040   0.01267  Uiso   1.00
C140   C     0.63630   0.06900   0.90100   0.01267  Uiso   1.00
C141   C     0.64660   0.99640   0.98520   0.01267  Uiso   1.00
C142   C     0.65610   0.01730   0.04720   0.01267  Uiso   1.00
C143   C     0.66460   0.94990   0.12380   0.01267  Uiso   1.00
C144   C     0.67980   0.96220   0.19660   0.01267  Uiso   1.00
C145   C     0.66430   0.86350   0.13880   0.01267  Uiso   1.00
C146   C     0.65630   0.84360   0.07680   0.01267  Uiso   1.00
C147   C     0.65940   0.74980   0.09600   0.01267  Uiso   1.00
C148   C     0.64710   0.91190   0.99960   0.01267  Uiso   1.00
N1     N     0.54760   0.43070   0.30640   0.01267  Uiso   1.00
N2     N     0.54950   0.43550   0.16240   0.01267  Uiso   1.00
N3     N     0.60410   0.56280   0.09820   0.01267  Uiso   1.00
N4     N     0.61680   0.54810   0.26760   0.01267  Uiso   1.00
N5     N     0.46300   0.25440   0.23420   0.01267  Uiso   1.00
N6     N     0.60650   0.24510   0.31420   0.01267  Uiso   1.00
N7     N     0.68040   0.12620   0.30660   0.01267  Uiso   1.00
N8     N     0.50630   0.13430   0.22140   0.01267  Uiso   1.00
N9     N     0.34030   0.27960   0.75800   0.01267  Uiso   1.00
N10    N     0.39500   0.21420   0.63060   0.01267  Uiso   1.00
N11    N     0.53140   0.19720   0.67400   0.01267  Uiso   1.00
N12    N     0.48660   0.23880   0.79200   0.01267  Uiso   1.00
N13    N     0.73460   0.15830   0.72200   0.01267  Uiso   1.00
N14    N     0.66420   0.31540   0.70940   0.01267  Uiso   1.00
N15    N     0.77950   0.38370   0.64840   0.01267  Uiso   1.00
N16    N     0.85490   0.20530   0.64940   0.01267  Uiso   1.00
N17    N     0.04760   0.73710   0.69360   0.01267  Uiso   1.00
N18    N     0.04950   0.59790   0.83760   0.01267  Uiso   1.00
N19    N     0.10410   0.66100   0.90180   0.01267  Uiso   1.00
N20    N     0.11680   0.81570   0.73240   0.01267  Uiso   1.00
N21    N     0.96300   0.48860   0.76580   0.01267  Uiso   1.00
N22    N     0.10650   0.55930   0.68580   0.01267  Uiso   1.00
N23    N     0.18040   0.43280   0.69340   0.01267  Uiso   1.00
N24    N     0.00630   0.35570   0.77860   0.01267  Uiso   1.00
N25    N     0.84030   0.03760   0.24200   0.01267  Uiso   1.00
N26    N     0.89500   0.84480   0.36940   0.01267  Uiso   1.00
N27    N     0.03140   0.87120   0.32600   0.01267  Uiso   1.00
N28    N     0.98660   0.03080   0.20800   0.01267  Uiso   1.00
N29    N     0.23460   0.88030   0.27800   0.01267  Uiso   1.00
N30    N     0.16420   0.02480   0.29060   0.01267  Uiso   1.00
N31    N     0.27950   0.03210   0.35160   0.01267  Uiso   1.00
N32    N     0.35490   0.85470   0.35060   0.01267  Uiso   1.00
O1     O     0.06390   0.60760   0.21040   0.01267  Uiso   1.00
O2     O     0.97930   0.58200   0.31520   0.01267  Uiso   1.00
O3     O     0.24020   0.32890   0.59700   0.01267  Uiso   1.00
O4     O     0.09630   0.36900   0.58780   0.01267  Uiso   1.00
O5     O     0.39950   0.31810   0.36300   0.01267  Uiso   1.00
O6     O     0.36490   0.42441   0.24578   0.01267  Uiso   1.00
O7     O     0.15550   0.02770   0.11440   0.01267  Uiso   1.00
O8     O     0.10540   0.90350   0.15160   0.01267  Uiso   1.00
O9     O     0.13980   0.77380   0.95700   0.01267  Uiso   1.00
O10    O     0.18130   0.85920   0.83420   0.01267  Uiso   1.00
O11    O     0.15040   0.22880   0.80720   0.01267  Uiso   1.00
O12    O     0.22130   0.16010   0.74460   0.01267  Uiso   1.00
O13    O     0.56390   0.81800   0.78960   0.01267  Uiso   1.00
O14    O     0.47930   0.89720   0.68480   0.01267  Uiso   1.00
O15    O     0.74020   0.92590   0.40300   0.01267  Uiso   1.00
O16    O     0.59630   0.95680   0.41220   0.01267  Uiso   1.00
O17    O     0.89950   0.68110   0.63700   0.01267  Uiso   1.00
O18    O     0.86490   0.67019   0.75422   0.01267  Uiso   1.00
O19    O     0.65550   0.14210   0.88560   0.01267  Uiso   1.00
O20    O     0.60540   0.05510   0.84840   0.01267  Uiso   1.00
O21    O     0.63980   0.73080   0.04300   0.01267  Uiso   1.00
O22    O     0.68130   0.69340   0.16580   0.01267  Uiso   1.00
O23    O     0.65040   0.03600   0.19280   0.01267  Uiso   1.00
O24    O     0.72130   0.90470   0.25540   0.01267  Uiso   1.00
