data_image0
_cell_length_a       13.582
_cell_length_b       10.8173
_cell_length_c       14.7037
_cell_angle_alpha    90
_cell_angle_beta     110.628
_cell_angle_gamma    90

_symmetry_space_group_name_H-M    "P 1"
_symmetry_int_tables_number       1

loop_
  _symmetry_equiv_pos_as_xyz
  'x, y, z'

loop_
  _atom_site_label
  _atom_site_occupancy
  _atom_site_fract_x
  _atom_site_fract_y
  _atom_site_fract_z
  _atom_site_thermal_displace_type
  _atom_site_B_iso_or_equiv
  _atom_site_type_symbol
  Co1      1.0000 0.40941  0.90254  0.46114  Biso   1.000  Co
  Co2      1.0000 0.50410  0.01046  0.29235  Biso   1.000  Co
  O1       1.0000 0.30172  0.03083  0.37160  Biso   1.000  O
  O2       1.0000 0.38877  0.13630  0.29235  Biso   1.000  O
  O3       1.0000 0.38447  0.40418  0.23928  Biso   1.000  O
  O4       1.0000 0.31142  0.28408  0.10944  Biso   1.000  O
  O5       1.0000 0.63364  0.27725  0.15496  Biso   1.000  O
  O6       1.0000 0.62982  0.39602  0.27882  Biso   1.000  O
  O7       1.0000 0.62142  0.14716  0.34224  Biso   1.000  O
  O8       1.0000 0.71553  0.15317  0.50142  Biso   1.000  O
  O9       1.0000 0.53886  0.95816  0.43238  Biso   1.000  O
  C1       1.0000 0.31113  0.11726  0.31921  Biso   1.000  C
  C2       1.0000 0.22301  0.20960  0.28510  Biso   1.000  C
  C3       1.0000 0.13865  0.19590  0.31731  Biso   1.000  C
  H1       1.0000 0.13880  0.13010  0.35800  Biso   1.000  H
  C4       1.0000 0.05419  0.27770  0.29054  Biso   1.000  C
  C5       1.0000 0.05648  0.37570  0.22964  Biso   1.000  C
  H2       1.0000 0.00120  0.43190  0.21060  Biso   1.000  H
  C6       1.0000 0.14014  0.39060  0.19701  Biso   1.000  C
  H3       1.0000 0.13990  0.45670  0.15650  Biso   1.000  H
  C7       1.0000 0.22444  0.30820  0.22402  Biso   1.000  C
  C8       1.0000 0.31480  0.33170  0.18789  Biso   1.000  C
  C9       1.0000 0.96545  0.25880  0.32628  Biso   1.000  C
  C10      1.0000 0.86282  0.29380  0.26968  Biso   1.000  C
  H4       1.0000 0.85030  0.33280  0.21030  Biso   1.000  H
  C11      1.0000 0.77952  0.27067  0.30137  Biso   1.000  C
  C12      1.0000 0.79689  0.20917  0.38915  Biso   1.000  C
  C13      1.0000 0.89896  0.17870  0.44720  Biso   1.000  C
  H5       1.0000 0.91150  0.14160  0.50730  Biso   1.000  H
  C14      1.0000 0.98228  0.20300  0.41637  Biso   1.000  C
  H6       1.0000 0.05030  0.18200  0.45600  Biso   1.000  H
  C15      1.0000 0.67144  0.31693  0.24067  Biso   1.000  C
  C16      1.0000 0.70345  0.16676  0.41314  Biso   1.000  C
  Co3      1.0000 0.59059  0.40254  0.03886  Biso   1.000  Co
  Co4      1.0000 0.49590  0.51046  0.20765  Biso   1.000  Co
  O10      1.0000 0.69828  0.53083  0.12840  Biso   1.000  O
  O11      1.0000 0.61123  0.63630  0.20765  Biso   1.000  O
  O12      1.0000 0.61553  0.90418  0.26072  Biso   1.000  O
  O13      1.0000 0.68858  0.78408  0.39056  Biso   1.000  O
  O14      1.0000 0.36636  0.77725  0.34504  Biso   1.000  O
  O15      1.0000 0.37018  0.89602  0.22118  Biso   1.000  O
  O16      1.0000 0.37858  0.64716  0.15776  Biso   1.000  O
  O17      1.0000 0.28447  0.65317  0.99858  Biso   1.000  O
  O18      1.0000 0.46114  0.45816  0.06762  Biso   1.000  O
  C17      1.0000 0.68887  0.61726  0.18079  Biso   1.000  C
  C18      1.0000 0.77699  0.70960  0.21490  Biso   1.000  C
  C19      1.0000 0.86135  0.69590  0.18269  Biso   1.000  C
  H7       1.0000 0.86120  0.63010  0.14200  Biso   1.000  H
  C20      1.0000 0.94581  0.77770  0.20946  Biso   1.000  C
  C21      1.0000 0.94352  0.87570  0.27036  Biso   1.000  C
  H8       1.0000 0.99880  0.93190  0.28940  Biso   1.000  H
  C22      1.0000 0.85986  0.89060  0.30299  Biso   1.000  C
  H9       1.0000 0.86010  0.95670  0.34350  Biso   1.000  H
  C23      1.0000 0.77556  0.80820  0.27598  Biso   1.000  C
  C24      1.0000 0.68520  0.83170  0.31211  Biso   1.000  C
  C25      1.0000 0.03455  0.75880  0.17372  Biso   1.000  C
  C26      1.0000 0.13718  0.79380  0.23032  Biso   1.000  C
  H10      1.0000 0.14970  0.83280  0.28970  Biso   1.000  H
  C27      1.0000 0.22048  0.77067  0.19863  Biso   1.000  C
  C28      1.0000 0.20311  0.70917  0.11085  Biso   1.000  C
  C29      1.0000 0.10104  0.67870  0.05280  Biso   1.000  C
  H11      1.0000 0.08850  0.64160  0.99270  Biso   1.000  H
  C30      1.0000 0.01772  0.70300  0.08363  Biso   1.000  C
  H12      1.0000 0.94970  0.68200  0.04400  Biso   1.000  H
  C31      1.0000 0.32856  0.81693  0.25933  Biso   1.000  C
  C32      1.0000 0.29655  0.66676  0.08686  Biso   1.000  C
  Co5      1.0000 0.59059  0.09746  0.53886  Biso   1.000  Co
  Co6      1.0000 0.49590  0.98954  0.70765  Biso   1.000  Co
  O19      1.0000 0.69828  0.96917  0.62840  Biso   1.000  O
  O20      1.0000 0.61123  0.86370  0.70765  Biso   1.000  O
  O21      1.0000 0.61553  0.59582  0.76072  Biso   1.000  O
  O22      1.0000 0.68858  0.71592  0.89056  Biso   1.000  O
  O23      1.0000 0.36636  0.72275  0.84504  Biso   1.000  O
  O24      1.0000 0.37018  0.60398  0.72118  Biso   1.000  O
  O25      1.0000 0.37858  0.85284  0.65776  Biso   1.000  O
  O26      1.0000 0.28447  0.84683  0.49858  Biso   1.000  O
  O27      1.0000 0.46114  0.04184  0.56762  Biso   1.000  O
  C33      1.0000 0.68887  0.88274  0.68079  Biso   1.000  C
  C34      1.0000 0.77699  0.79040  0.71490  Biso   1.000  C
  C35      1.0000 0.86135  0.80410  0.68269  Biso   1.000  C
  H13      1.0000 0.86120  0.86990  0.64200  Biso   1.000  H
  C36      1.0000 0.94581  0.72230  0.70946  Biso   1.000  C
  C37      1.0000 0.94352  0.62430  0.77036  Biso   1.000  C
  H14      1.0000 0.99880  0.56810  0.78940  Biso   1.000  H
  C38      1.0000 0.85986  0.60940  0.80299  Biso   1.000  C
  H15      1.0000 0.86010  0.54330  0.84350  Biso   1.000  H
  C39      1.0000 0.77556  0.69180  0.77598  Biso   1.000  C
  C40      1.0000 0.68520  0.66830  0.81211  Biso   1.000  C
  C41      1.0000 0.03455  0.74120  0.67372  Biso   1.000  C
  C42      1.0000 0.13718  0.70620  0.73032  Biso   1.000  C
  H16      1.0000 0.14970  0.66720  0.78970  Biso   1.000  H
  C43      1.0000 0.22048  0.72933  0.69863  Biso   1.000  C
  C44      1.0000 0.20311  0.79083  0.61085  Biso   1.000  C
  C45      1.0000 0.10104  0.82130  0.55280  Biso   1.000  C
  H17      1.0000 0.08850  0.85840  0.49270  Biso   1.000  H
  C46      1.0000 0.01772  0.79700  0.58363  Biso   1.000  C
  H18      1.0000 0.94970  0.81800  0.54400  Biso   1.000  H
  C47      1.0000 0.32856  0.68307  0.75933  Biso   1.000  C
  C48      1.0000 0.29655  0.83324  0.58686  Biso   1.000  C
  Co7      1.0000 0.40941  0.59746  0.96114  Biso   1.000  Co
  Co8      1.0000 0.50410  0.48954  0.79235  Biso   1.000  Co
  O28      1.0000 0.30172  0.46917  0.87160  Biso   1.000  O
  O29      1.0000 0.38877  0.36370  0.79235  Biso   1.000  O
  O30      1.0000 0.38447  0.09582  0.73928  Biso   1.000  O
  O31      1.0000 0.31142  0.21592  0.60944  Biso   1.000  O
  O32      1.0000 0.63364  0.22275  0.65496  Biso   1.000  O
  O33      1.0000 0.62982  0.10398  0.77882  Biso   1.000  O
  O34      1.0000 0.62142  0.35284  0.84224  Biso   1.000  O
  O35      1.0000 0.71553  0.34683  0.00142  Biso   1.000  O
  O36      1.0000 0.53886  0.54184  0.93238  Biso   1.000  O
  C49      1.0000 0.31113  0.38274  0.81921  Biso   1.000  C
  C50      1.0000 0.22301  0.29040  0.78510  Biso   1.000  C
  C51      1.0000 0.13865  0.30410  0.81731  Biso   1.000  C
  H19      1.0000 0.13880  0.36990  0.85800  Biso   1.000  H
  C52      1.0000 0.05419  0.22230  0.79054  Biso   1.000  C
  C53      1.0000 0.05648  0.12430  0.72964  Biso   1.000  C
  H20      1.0000 0.00120  0.06810  0.71060  Biso   1.000  H
  C54      1.0000 0.14014  0.10940  0.69701  Biso   1.000  C
  H21      1.0000 0.13990  0.04330  0.65650  Biso   1.000  H
  C55      1.0000 0.22444  0.19180  0.72402  Biso   1.000  C
  C56      1.0000 0.31480  0.16830  0.68789  Biso   1.000  C
  C57      1.0000 0.96545  0.24120  0.82628  Biso   1.000  C
  C58      1.0000 0.86282  0.20620  0.76968  Biso   1.000  C
  H22      1.0000 0.85030  0.16720  0.71030  Biso   1.000  H
  C59      1.0000 0.77952  0.22933  0.80137  Biso   1.000  C
  C60      1.0000 0.79689  0.29083  0.88915  Biso   1.000  C
  C61      1.0000 0.89896  0.32130  0.94720  Biso   1.000  C
  H23      1.0000 0.91150  0.35840  0.00730  Biso   1.000  H
  C62      1.0000 0.98228  0.29700  0.91637  Biso   1.000  C
  H24      1.0000 0.05030  0.31800  0.95600  Biso   1.000  H
  C63      1.0000 0.67144  0.18307  0.74067  Biso   1.000  C
  C64      1.0000 0.70345  0.33324  0.91314  Biso   1.000  C
