data_image0
_cell_length_a       13.5186
_cell_length_b       10.7685
_cell_length_c       14.6323
_cell_angle_alpha    90
_cell_angle_beta     110.63
_cell_angle_gamma    90

_symmetry_space_group_name_H-M    "P 1"
_symmetry_int_tables_number       1

loop_
  _symmetry_equiv_pos_as_xyz
  'x, y, z'

loop_
  _atom_site_label
  _atom_site_occupancy
  _atom_site_fract_x
  _atom_site_fract_y
  _atom_site_fract_z
  _atom_site_thermal_displace_type
  _atom_site_B_iso_or_equiv
  _atom_site_type_symbol
  Co1      1.0000 0.41053  0.90409  0.46176  Biso   1.000  Co
  Co2      1.0000 0.50388  0.01066  0.29220  Biso   1.000  Co
  O1       1.0000 0.30472  0.03122  0.37356  Biso   1.000  O
  O2       1.0000 0.39011  0.13533  0.29092  Biso   1.000  O
  O3       1.0000 0.38627  0.40425  0.23872  Biso   1.000  O
  O4       1.0000 0.31281  0.28440  0.10790  Biso   1.000  O
  O5       1.0000 0.62002  0.14612  0.34043  Biso   1.000  O
  O6       1.0000 0.71394  0.15218  0.50123  Biso   1.000  O
  O7       1.0000 0.63383  0.27744  0.15312  Biso   1.000  O
  O8       1.0000 0.62812  0.39582  0.27776  Biso   1.000  O
  O9       1.0000 0.53793  0.95995  0.43124  Biso   1.000  O
  C1       1.0000 0.31360  0.11720  0.31966  Biso   1.000  C
  C2       1.0000 0.22430  0.20920  0.28520  Biso   1.000  C
  C3       1.0000 0.13990  0.19560  0.31770  Biso   1.000  C
  H1       1.0000 0.14030  0.12970  0.35890  Biso   1.000  H
  C4       1.0000 0.05500  0.27720  0.29060  Biso   1.000  C
  C5       1.0000 0.05730  0.37570  0.22900  Biso   1.000  C
  H2       1.0000 0.00180  0.43230  0.20970  Biso   1.000  H
  C6       1.0000 0.14080  0.38990  0.19640  Biso   1.000  C
  H3       1.0000 0.14030  0.45590  0.15530  Biso   1.000  H
  C7       1.0000 0.22580  0.30800  0.22370  Biso   1.000  C
  C8       1.0000 0.31600  0.33170  0.18700  Biso   1.000  C
  C9       1.0000 0.96610  0.25830  0.32600  Biso   1.000  C
  C10      1.0000 0.98210  0.20250  0.41660  Biso   1.000  C
  H4       1.0000 0.05030  0.18160  0.45680  Biso   1.000  H
  C11      1.0000 0.89840  0.17800  0.44740  Biso   1.000  C
  H5       1.0000 0.91090  0.14050  0.50770  Biso   1.000  H
  C12      1.0000 0.79580  0.20900  0.38887  Biso   1.000  C
  C13      1.0000 0.77880  0.27020  0.30059  Biso   1.000  C
  C14      1.0000 0.86290  0.29300  0.26940  Biso   1.000  C
  H6       1.0000 0.85040  0.33220  0.20970  Biso   1.000  H
  C15      1.0000 0.70240  0.16550  0.41295  Biso   1.000  C
  C16      1.0000 0.67070  0.31660  0.23910  Biso   1.000  C
  Ni1      1.0000 0.58947  0.09591  0.53824  Biso   1.000  Ni
  Ni2      1.0000 0.49612  0.51066  0.20780  Biso   1.000  Ni
  Co3      1.0000 0.58947  0.40409  0.03824  Biso   1.000  Co
  O10      1.0000 0.69528  0.53122  0.12644  Biso   1.000  O
  O11      1.0000 0.60989  0.63533  0.20908  Biso   1.000  O
  O12      1.0000 0.61373  0.90425  0.26128  Biso   1.000  O
  O13      1.0000 0.68719  0.78440  0.39210  Biso   1.000  O
  O14      1.0000 0.37998  0.64612  0.15957  Biso   1.000  O
  O15      1.0000 0.28606  0.65218  0.99877  Biso   1.000  O
  O16      1.0000 0.36617  0.77744  0.34688  Biso   1.000  O
  O17      1.0000 0.37188  0.89582  0.22224  Biso   1.000  O
  O18      1.0000 0.46207  0.45995  0.06876  Biso   1.000  O
  C17      1.0000 0.68640  0.61720  0.18034  Biso   1.000  C
  C18      1.0000 0.77570  0.70920  0.21480  Biso   1.000  C
  C19      1.0000 0.86010  0.69560  0.18230  Biso   1.000  C
  H7       1.0000 0.85970  0.62970  0.14110  Biso   1.000  H
  C20      1.0000 0.94500  0.77720  0.20940  Biso   1.000  C
  C21      1.0000 0.94270  0.87570  0.27100  Biso   1.000  C
  H8       1.0000 0.99820  0.93230  0.29030  Biso   1.000  H
  C22      1.0000 0.85920  0.88990  0.30360  Biso   1.000  C
  H9       1.0000 0.85970  0.95590  0.34470  Biso   1.000  H
  C23      1.0000 0.77420  0.80800  0.27630  Biso   1.000  C
  C24      1.0000 0.68400  0.83170  0.31300  Biso   1.000  C
  C25      1.0000 0.03390  0.75830  0.17400  Biso   1.000  C
  C26      1.0000 0.01790  0.70250  0.08340  Biso   1.000  C
  H10      1.0000 0.94970  0.68160  0.04320  Biso   1.000  H
  C27      1.0000 0.10160  0.67800  0.05260  Biso   1.000  C
  H11      1.0000 0.08910  0.64050  0.99230  Biso   1.000  H
  C28      1.0000 0.20420  0.70900  0.11113  Biso   1.000  C
  C29      1.0000 0.22120  0.77020  0.19941  Biso   1.000  C
  C30      1.0000 0.13710  0.79300  0.23060  Biso   1.000  C
  H12      1.0000 0.14960  0.83220  0.29030  Biso   1.000  H
  C31      1.0000 0.29760  0.66550  0.08705  Biso   1.000  C
  C32      1.0000 0.32930  0.81660  0.26090  Biso   1.000  C
  Ni3      1.0000 0.41053  0.59591  0.96176  Biso   1.000  Ni
  Co4      1.0000 0.49612  0.98934  0.70780  Biso   1.000  Co
  O19      1.0000 0.69528  0.96878  0.62644  Biso   1.000  O
  O20      1.0000 0.60989  0.86467  0.70908  Biso   1.000  O
  O21      1.0000 0.61373  0.59575  0.76128  Biso   1.000  O
  O22      1.0000 0.68719  0.71560  0.89210  Biso   1.000  O
  O23      1.0000 0.37998  0.85388  0.65957  Biso   1.000  O
  O24      1.0000 0.28606  0.84782  0.49877  Biso   1.000  O
  O25      1.0000 0.36617  0.72256  0.84688  Biso   1.000  O
  O26      1.0000 0.37188  0.60418  0.72224  Biso   1.000  O
  O27      1.0000 0.46207  0.04005  0.56876  Biso   1.000  O
  C33      1.0000 0.68640  0.88280  0.68034  Biso   1.000  C
  C34      1.0000 0.77570  0.79080  0.71480  Biso   1.000  C
  C35      1.0000 0.86010  0.80440  0.68230  Biso   1.000  C
  H13      1.0000 0.85970  0.87030  0.64110  Biso   1.000  H
  C36      1.0000 0.94500  0.72280  0.70940  Biso   1.000  C
  C37      1.0000 0.94270  0.62430  0.77100  Biso   1.000  C
  H14      1.0000 0.99820  0.56770  0.79030  Biso   1.000  H
  C38      1.0000 0.85920  0.61010  0.80360  Biso   1.000  C
  H15      1.0000 0.85970  0.54410  0.84470  Biso   1.000  H
  C39      1.0000 0.77420  0.69200  0.77630  Biso   1.000  C
  C40      1.0000 0.68400  0.66830  0.81300  Biso   1.000  C
  C41      1.0000 0.03390  0.74170  0.67400  Biso   1.000  C
  C42      1.0000 0.01790  0.79750  0.58340  Biso   1.000  C
  H16      1.0000 0.94970  0.81840  0.54320  Biso   1.000  H
  C43      1.0000 0.10160  0.82200  0.55260  Biso   1.000  C
  H17      1.0000 0.08910  0.85950  0.49230  Biso   1.000  H
  C44      1.0000 0.20420  0.79100  0.61113  Biso   1.000  C
  C45      1.0000 0.22120  0.72980  0.69941  Biso   1.000  C
  C46      1.0000 0.13710  0.70700  0.73060  Biso   1.000  C
  H18      1.0000 0.14960  0.66780  0.79030  Biso   1.000  H
  C47      1.0000 0.29760  0.83450  0.58705  Biso   1.000  C
  C48      1.0000 0.32930  0.68340  0.76090  Biso   1.000  C
  Ni4      1.0000 0.50388  0.48934  0.79220  Biso   1.000  Ni
  O28      1.0000 0.30472  0.46878  0.87356  Biso   1.000  O
  O29      1.0000 0.39011  0.36467  0.79092  Biso   1.000  O
  O30      1.0000 0.38627  0.09575  0.73872  Biso   1.000  O
  O31      1.0000 0.31281  0.21560  0.60790  Biso   1.000  O
  O32      1.0000 0.62002  0.35388  0.84043  Biso   1.000  O
  O33      1.0000 0.71394  0.34782  0.00123  Biso   1.000  O
  O34      1.0000 0.63383  0.22256  0.65312  Biso   1.000  O
  O35      1.0000 0.62812  0.10418  0.77776  Biso   1.000  O
  O36      1.0000 0.53793  0.54005  0.93124  Biso   1.000  O
  C49      1.0000 0.31360  0.38280  0.81966  Biso   1.000  C
  C50      1.0000 0.22430  0.29080  0.78520  Biso   1.000  C
  C51      1.0000 0.13990  0.30440  0.81770  Biso   1.000  C
  H19      1.0000 0.14030  0.37030  0.85890  Biso   1.000  H
  C52      1.0000 0.05500  0.22280  0.79060  Biso   1.000  C
  C53      1.0000 0.05730  0.12430  0.72900  Biso   1.000  C
  H20      1.0000 0.00180  0.06770  0.70970  Biso   1.000  H
  C54      1.0000 0.14080  0.11010  0.69640  Biso   1.000  C
  H21      1.0000 0.14030  0.04410  0.65530  Biso   1.000  H
  C55      1.0000 0.22580  0.19200  0.72370  Biso   1.000  C
  C56      1.0000 0.31600  0.16830  0.68700  Biso   1.000  C
  C57      1.0000 0.96610  0.24170  0.82600  Biso   1.000  C
  C58      1.0000 0.98210  0.29750  0.91660  Biso   1.000  C
  H22      1.0000 0.05030  0.31840  0.95680  Biso   1.000  H
  C59      1.0000 0.89840  0.32200  0.94740  Biso   1.000  C
  H23      1.0000 0.91090  0.35950  0.00770  Biso   1.000  H
  C60      1.0000 0.79580  0.29100  0.88887  Biso   1.000  C
  C61      1.0000 0.77880  0.22980  0.80059  Biso   1.000  C
  C62      1.0000 0.86290  0.20700  0.76940  Biso   1.000  C
  H24      1.0000 0.85040  0.16780  0.70970  Biso   1.000  H
  C63      1.0000 0.70240  0.33450  0.91295  Biso   1.000  C
  C64      1.0000 0.67070  0.18340  0.73910  Biso   1.000  C
