data_image0
_cell_length_a       13.5674
_cell_length_b       10.7942
_cell_length_c       14.6837
_cell_angle_alpha    90
_cell_angle_beta     110.638
_cell_angle_gamma    90

_symmetry_space_group_name_H-M    "P 1"
_symmetry_int_tables_number       1

loop_
  _symmetry_equiv_pos_as_xyz
  'x, y, z'

loop_
  _atom_site_label
  _atom_site_occupancy
  _atom_site_fract_x
  _atom_site_fract_y
  _atom_site_fract_z
  _atom_site_thermal_displace_type
  _atom_site_B_iso_or_equiv
  _atom_site_type_symbol
  Co1      1.0000 0.40987  0.90280  0.46142  Biso   1.000  Co
  Co2      1.0000 0.50402  0.01028  0.29222  Biso   1.000  Co
  O1       1.0000 0.30272  0.03092  0.37225  Biso   1.000  O
  O2       1.0000 0.38901  0.13589  0.29179  Biso   1.000  O
  O3       1.0000 0.38502  0.40408  0.23917  Biso   1.000  O
  O4       1.0000 0.31160  0.28409  0.10882  Biso   1.000  O
  O5       1.0000 0.62115  0.14649  0.34146  Biso   1.000  O
  O6       1.0000 0.71514  0.15291  0.50127  Biso   1.000  O
  O7       1.0000 0.63351  0.27700  0.15425  Biso   1.000  O
  O8       1.0000 0.62934  0.39555  0.27859  Biso   1.000  O
  O9       1.0000 0.53869  0.95877  0.43211  Biso   1.000  O
  C1       1.0000 0.31196  0.11703  0.31935  Biso   1.000  C
  C2       1.0000 0.22361  0.20968  0.28526  Biso   1.000  C
  C3       1.0000 0.13904  0.19568  0.31758  Biso   1.000  C
  H1       1.0000 0.13930  0.12970  0.35840  Biso   1.000  H
  C4       1.0000 0.05451  0.27732  0.29057  Biso   1.000  C
  C5       1.0000 0.05677  0.37567  0.22936  Biso   1.000  C
  H2       1.0000 0.00130  0.43200  0.21020  Biso   1.000  H
  C6       1.0000 0.14036  0.39052  0.19682  Biso   1.000  C
  H3       1.0000 0.14010  0.45670  0.15620  Biso   1.000  H
  C7       1.0000 0.22479  0.30800  0.22402  Biso   1.000  C
  C8       1.0000 0.31508  0.33177  0.18769  Biso   1.000  C
  C9       1.0000 0.96568  0.25856  0.32627  Biso   1.000  C
  C10      1.0000 0.98246  0.20296  0.41656  Biso   1.000  C
  H4       1.0000 0.05060  0.18220  0.45630  Biso   1.000  H
  C11      1.0000 0.89899  0.17834  0.44764  Biso   1.000  C
  H5       1.0000 0.91150  0.14110  0.50780  Biso   1.000  H
  C12      1.0000 0.79664  0.20915  0.38914  Biso   1.000  C
  C13      1.0000 0.77944  0.27047  0.30119  Biso   1.000  C
  C14      1.0000 0.86273  0.29338  0.26935  Biso   1.000  C
  H6       1.0000 0.85010  0.33220  0.20970  Biso   1.000  H
  C15      1.0000 0.67124  0.31638  0.24022  Biso   1.000  C
  C16      1.0000 0.70332  0.16615  0.41328  Biso   1.000  C
  Co3      1.0000 0.59012  0.40280  0.03858  Biso   1.000  Co
  Co4      1.0000 0.49598  0.51028  0.20778  Biso   1.000  Co
  O10      1.0000 0.69728  0.53092  0.12775  Biso   1.000  O
  O11      1.0000 0.61099  0.63589  0.20821  Biso   1.000  O
  O12      1.0000 0.61498  0.90408  0.26083  Biso   1.000  O
  O13      1.0000 0.68840  0.78409  0.39118  Biso   1.000  O
  O14      1.0000 0.37885  0.64649  0.15854  Biso   1.000  O
  O15      1.0000 0.28486  0.65291  0.99873  Biso   1.000  O
  O16      1.0000 0.36649  0.77700  0.34575  Biso   1.000  O
  O17      1.0000 0.37066  0.89555  0.22141  Biso   1.000  O
  O18      1.0000 0.46131  0.45877  0.06789  Biso   1.000  O
  C17      1.0000 0.68804  0.61703  0.18065  Biso   1.000  C
  C18      1.0000 0.77639  0.70968  0.21474  Biso   1.000  C
  C19      1.0000 0.86096  0.69568  0.18242  Biso   1.000  C
  H7       1.0000 0.86070  0.62970  0.14160  Biso   1.000  H
  C20      1.0000 0.94549  0.77732  0.20943  Biso   1.000  C
  C21      1.0000 0.94323  0.87567  0.27064  Biso   1.000  C
  H8       1.0000 0.99870  0.93200  0.28980  Biso   1.000  H
  C22      1.0000 0.85964  0.89052  0.30318  Biso   1.000  C
  H9       1.0000 0.85990  0.95670  0.34380  Biso   1.000  H
  C23      1.0000 0.77521  0.80800  0.27598  Biso   1.000  C
  C24      1.0000 0.68492  0.83177  0.31231  Biso   1.000  C
  C25      1.0000 0.03432  0.75856  0.17373  Biso   1.000  C
  C26      1.0000 0.01754  0.70296  0.08344  Biso   1.000  C
  H10      1.0000 0.94940  0.68220  0.04370  Biso   1.000  H
  C27      1.0000 0.10101  0.67834  0.05236  Biso   1.000  C
  H11      1.0000 0.08850  0.64110  0.99220  Biso   1.000  H
  C28      1.0000 0.20336  0.70915  0.11086  Biso   1.000  C
  C29      1.0000 0.22056  0.77047  0.19881  Biso   1.000  C
  C30      1.0000 0.13727  0.79338  0.23065  Biso   1.000  C
  H12      1.0000 0.14990  0.83220  0.29030  Biso   1.000  H
  C31      1.0000 0.32876  0.81638  0.25978  Biso   1.000  C
  C32      1.0000 0.29668  0.66615  0.08672  Biso   1.000  C
  Co5      1.0000 0.59012  0.09720  0.53858  Biso   1.000  Co
  Co6      1.0000 0.49598  0.98972  0.70778  Biso   1.000  Co
  O19      1.0000 0.69728  0.96908  0.62775  Biso   1.000  O
  O20      1.0000 0.61099  0.86411  0.70821  Biso   1.000  O
  O21      1.0000 0.61498  0.59592  0.76083  Biso   1.000  O
  O22      1.0000 0.68840  0.71591  0.89118  Biso   1.000  O
  O23      1.0000 0.37885  0.85351  0.65854  Biso   1.000  O
  O24      1.0000 0.28486  0.84709  0.49873  Biso   1.000  O
  O25      1.0000 0.36649  0.72300  0.84575  Biso   1.000  O
  O26      1.0000 0.37066  0.60445  0.72141  Biso   1.000  O
  O27      1.0000 0.46131  0.04123  0.56789  Biso   1.000  O
  C33      1.0000 0.68804  0.88297  0.68065  Biso   1.000  C
  C34      1.0000 0.77639  0.79032  0.71474  Biso   1.000  C
  C35      1.0000 0.86096  0.80432  0.68242  Biso   1.000  C
  H13      1.0000 0.86070  0.87030  0.64160  Biso   1.000  H
  C36      1.0000 0.94549  0.72268  0.70943  Biso   1.000  C
  C37      1.0000 0.94323  0.62433  0.77064  Biso   1.000  C
  H14      1.0000 0.99870  0.56800  0.78980  Biso   1.000  H
  C38      1.0000 0.85964  0.60948  0.80318  Biso   1.000  C
  H15      1.0000 0.85990  0.54330  0.84380  Biso   1.000  H
  C39      1.0000 0.77521  0.69200  0.77598  Biso   1.000  C
  C40      1.0000 0.68492  0.66823  0.81231  Biso   1.000  C
  C41      1.0000 0.03432  0.74144  0.67373  Biso   1.000  C
  C42      1.0000 0.01754  0.79704  0.58344  Biso   1.000  C
  H16      1.0000 0.94940  0.81780  0.54370  Biso   1.000  H
  C43      1.0000 0.10101  0.82166  0.55236  Biso   1.000  C
  H17      1.0000 0.08850  0.85890  0.49220  Biso   1.000  H
  C44      1.0000 0.20336  0.79085  0.61086  Biso   1.000  C
  C45      1.0000 0.22056  0.72953  0.69881  Biso   1.000  C
  C46      1.0000 0.13727  0.70662  0.73065  Biso   1.000  C
  H18      1.0000 0.14990  0.66780  0.79030  Biso   1.000  H
  C47      1.0000 0.32876  0.68362  0.75978  Biso   1.000  C
  C48      1.0000 0.29668  0.83385  0.58672  Biso   1.000  C
  Co7      1.0000 0.40987  0.59720  0.96142  Biso   1.000  Co
  Co8      1.0000 0.50402  0.48972  0.79222  Biso   1.000  Co
  O28      1.0000 0.30272  0.46908  0.87225  Biso   1.000  O
  O29      1.0000 0.38901  0.36411  0.79179  Biso   1.000  O
  O30      1.0000 0.38502  0.09592  0.73917  Biso   1.000  O
  O31      1.0000 0.31160  0.21591  0.60882  Biso   1.000  O
  O32      1.0000 0.62115  0.35351  0.84146  Biso   1.000  O
  O33      1.0000 0.71514  0.34709  0.00127  Biso   1.000  O
  O34      1.0000 0.63351  0.22300  0.65425  Biso   1.000  O
  O35      1.0000 0.62934  0.10445  0.77859  Biso   1.000  O
  O36      1.0000 0.53869  0.54123  0.93211  Biso   1.000  O
  C49      1.0000 0.31196  0.38297  0.81935  Biso   1.000  C
  C50      1.0000 0.22361  0.29032  0.78526  Biso   1.000  C
  C51      1.0000 0.13904  0.30432  0.81758  Biso   1.000  C
  H19      1.0000 0.13930  0.37030  0.85840  Biso   1.000  H
  C52      1.0000 0.05451  0.22268  0.79057  Biso   1.000  C
  C53      1.0000 0.05677  0.12433  0.72936  Biso   1.000  C
  H20      1.0000 0.00130  0.06800  0.71020  Biso   1.000  H
  C54      1.0000 0.14036  0.10948  0.69682  Biso   1.000  C
  H21      1.0000 0.14010  0.04330  0.65620  Biso   1.000  H
  C55      1.0000 0.22479  0.19200  0.72402  Biso   1.000  C
  C56      1.0000 0.31508  0.16823  0.68769  Biso   1.000  C
  C57      1.0000 0.96568  0.24144  0.82627  Biso   1.000  C
  C58      1.0000 0.98246  0.29704  0.91656  Biso   1.000  C
  H22      1.0000 0.05060  0.31780  0.95630  Biso   1.000  H
  C59      1.0000 0.89899  0.32166  0.94764  Biso   1.000  C
  H23      1.0000 0.91150  0.35890  0.00780  Biso   1.000  H
  C60      1.0000 0.79664  0.29085  0.88914  Biso   1.000  C
  C61      1.0000 0.77944  0.22953  0.80119  Biso   1.000  C
  C62      1.0000 0.86273  0.20662  0.76935  Biso   1.000  C
  H24      1.0000 0.85010  0.16780  0.70970  Biso   1.000  H
  C63      1.0000 0.67124  0.18362  0.74022  Biso   1.000  C
  C64      1.0000 0.70332  0.33385  0.91328  Biso   1.000  C
