data_image0
_cell_length_a       13.5146
_cell_length_b       10.7692
_cell_length_c       14.6278
_cell_angle_alpha    90
_cell_angle_beta     110.631
_cell_angle_gamma    90

_symmetry_space_group_name_H-M    "P 1"
_symmetry_int_tables_number       1

loop_
  _symmetry_equiv_pos_as_xyz
  'x, y, z'

loop_
  _atom_site_label
  _atom_site_occupancy
  _atom_site_fract_x
  _atom_site_fract_y
  _atom_site_fract_z
  _atom_site_thermal_displace_type
  _atom_site_B_iso_or_equiv
  _atom_site_type_symbol
  Co1      1.0000 0.41043  0.90418  0.46172  Biso   1.000  Co
  Co2      1.0000 0.50384  0.01050  0.29221  Biso   1.000  Co
  O1       1.0000 0.30463  0.03100  0.37377  Biso   1.000  O
  O2       1.0000 0.38991  0.13500  0.29059  Biso   1.000  O
  O3       1.0000 0.38620  0.40420  0.23847  Biso   1.000  O
  O4       1.0000 0.31260  0.28450  0.10776  Biso   1.000  O
  O5       1.0000 0.62010  0.14580  0.34031  Biso   1.000  O
  O6       1.0000 0.71385  0.15190  0.50127  Biso   1.000  O
  O7       1.0000 0.63354  0.27700  0.15290  Biso   1.000  O
  O8       1.0000 0.62816  0.39560  0.27768  Biso   1.000  O
  O9       1.0000 0.53807  0.95950  0.43152  Biso   1.000  O
  C1       1.0000 0.31300  0.11720  0.31910  Biso   1.000  C
  C2       1.0000 0.22480  0.20860  0.28530  Biso   1.000  C
  C3       1.0000 0.13980  0.19480  0.31780  Biso   1.000  C
  H1       1.0000 0.13990  0.12870  0.35870  Biso   1.000  H
  C4       1.0000 0.05490  0.27740  0.29060  Biso   1.000  C
  C5       1.0000 0.05770  0.37540  0.22950  Biso   1.000  C
  H2       1.0000 0.00260  0.43260  0.21080  Biso   1.000  H
  C6       1.0000 0.14120  0.38940  0.19630  Biso   1.000  C
  H3       1.0000 0.14050  0.45490  0.15460  Biso   1.000  H
  C7       1.0000 0.22570  0.30750  0.22400  Biso   1.000  C
  C8       1.0000 0.31630  0.33200  0.18700  Biso   1.000  C
  C9       1.0000 0.96580  0.25800  0.32570  Biso   1.000  C
  C10      1.0000 0.98230  0.20310  0.41670  Biso   1.000  C
  H4       1.0000 0.05060  0.18300  0.45710  Biso   1.000  H
  C11      1.0000 0.89820  0.17850  0.44730  Biso   1.000  C
  H5       1.0000 0.91060  0.14130  0.50770  Biso   1.000  H
  C12      1.0000 0.79630  0.20850  0.38900  Biso   1.000  C
  C13      1.0000 0.77850  0.27050  0.30030  Biso   1.000  C
  C14      1.0000 0.86260  0.29320  0.26920  Biso   1.000  C
  H6       1.0000 0.85020  0.33260  0.20970  Biso   1.000  H
  C15      1.0000 0.67080  0.31650  0.23930  Biso   1.000  C
  C16      1.0000 0.70200  0.16550  0.41250  Biso   1.000  C
  Co3      1.0000 0.58957  0.40418  0.03828  Biso   1.000  Co
  Co4      1.0000 0.49616  0.51050  0.20779  Biso   1.000  Co
  O10      1.0000 0.69537  0.53100  0.12623  Biso   1.000  O
  O11      1.0000 0.61009  0.63500  0.20941  Biso   1.000  O
  O12      1.0000 0.61380  0.90420  0.26153  Biso   1.000  O
  O13      1.0000 0.68740  0.78450  0.39224  Biso   1.000  O
  O14      1.0000 0.37990  0.64580  0.15969  Biso   1.000  O
  O15      1.0000 0.28615  0.65190  0.99873  Biso   1.000  O
  O16      1.0000 0.36646  0.77700  0.34710  Biso   1.000  O
  O17      1.0000 0.37184  0.89560  0.22232  Biso   1.000  O
  O18      1.0000 0.46193  0.45950  0.06848  Biso   1.000  O
  C17      1.0000 0.68700  0.61720  0.18090  Biso   1.000  C
  C18      1.0000 0.77520  0.70860  0.21470  Biso   1.000  C
  C19      1.0000 0.86020  0.69480  0.18220  Biso   1.000  C
  H7       1.0000 0.86010  0.62870  0.14130  Biso   1.000  H
  C20      1.0000 0.94510  0.77740  0.20940  Biso   1.000  C
  C21      1.0000 0.94230  0.87540  0.27050  Biso   1.000  C
  H8       1.0000 0.99740  0.93260  0.28920  Biso   1.000  H
  C22      1.0000 0.85880  0.88940  0.30370  Biso   1.000  C
  H9       1.0000 0.85950  0.95490  0.34540  Biso   1.000  H
  C23      1.0000 0.77430  0.80750  0.27600  Biso   1.000  C
  C24      1.0000 0.68370  0.83200  0.31300  Biso   1.000  C
  C25      1.0000 0.03420  0.75800  0.17430  Biso   1.000  C
  C26      1.0000 0.01770  0.70310  0.08330  Biso   1.000  C
  H10      1.0000 0.94940  0.68300  0.04290  Biso   1.000  H
  C27      1.0000 0.10180  0.67850  0.05270  Biso   1.000  C
  H11      1.0000 0.08940  0.64130  0.99230  Biso   1.000  H
  C28      1.0000 0.20370  0.70850  0.11100  Biso   1.000  C
  C29      1.0000 0.22150  0.77050  0.19970  Biso   1.000  C
  C30      1.0000 0.13740  0.79320  0.23080  Biso   1.000  C
  H12      1.0000 0.14980  0.83260  0.29030  Biso   1.000  H
  C31      1.0000 0.32920  0.81650  0.26070  Biso   1.000  C
  C32      1.0000 0.29800  0.66550  0.08750  Biso   1.000  C
  Co5      1.0000 0.58957  0.09582  0.53828  Biso   1.000  Co
  Co6      1.0000 0.49616  0.98950  0.70779  Biso   1.000  Co
  O19      1.0000 0.69537  0.96900  0.62623  Biso   1.000  O
  O20      1.0000 0.61009  0.86500  0.70941  Biso   1.000  O
  O21      1.0000 0.61380  0.59580  0.76153  Biso   1.000  O
  O22      1.0000 0.68740  0.71550  0.89224  Biso   1.000  O
  O23      1.0000 0.37990  0.85420  0.65969  Biso   1.000  O
  O24      1.0000 0.28615  0.84810  0.49873  Biso   1.000  O
  O25      1.0000 0.36646  0.72300  0.84710  Biso   1.000  O
  O26      1.0000 0.37184  0.60440  0.72232  Biso   1.000  O
  O27      1.0000 0.46193  0.04050  0.56848  Biso   1.000  O
  C33      1.0000 0.68700  0.88280  0.68090  Biso   1.000  C
  C34      1.0000 0.77520  0.79140  0.71470  Biso   1.000  C
  C35      1.0000 0.86020  0.80520  0.68220  Biso   1.000  C
  H13      1.0000 0.86010  0.87130  0.64130  Biso   1.000  H
  C36      1.0000 0.94510  0.72260  0.70940  Biso   1.000  C
  C37      1.0000 0.94230  0.62460  0.77050  Biso   1.000  C
  H14      1.0000 0.99740  0.56740  0.78920  Biso   1.000  H
  C38      1.0000 0.85880  0.61060  0.80370  Biso   1.000  C
  H15      1.0000 0.85950  0.54510  0.84540  Biso   1.000  H
  C39      1.0000 0.77430  0.69250  0.77600  Biso   1.000  C
  C40      1.0000 0.68370  0.66800  0.81300  Biso   1.000  C
  C41      1.0000 0.03420  0.74200  0.67430  Biso   1.000  C
  C42      1.0000 0.01770  0.79690  0.58330  Biso   1.000  C
  H16      1.0000 0.94940  0.81700  0.54290  Biso   1.000  H
  C43      1.0000 0.10180  0.82150  0.55270  Biso   1.000  C
  H17      1.0000 0.08940  0.85870  0.49230  Biso   1.000  H
  C44      1.0000 0.20370  0.79150  0.61100  Biso   1.000  C
  C45      1.0000 0.22150  0.72950  0.69970  Biso   1.000  C
  C46      1.0000 0.13740  0.70680  0.73080  Biso   1.000  C
  H18      1.0000 0.14980  0.66740  0.79030  Biso   1.000  H
  C47      1.0000 0.32920  0.68350  0.76070  Biso   1.000  C
  C48      1.0000 0.29800  0.83450  0.58750  Biso   1.000  C
  Co7      1.0000 0.41043  0.59582  0.96172  Biso   1.000  Co
  Co8      1.0000 0.50384  0.48950  0.79221  Biso   1.000  Co
  O28      1.0000 0.30463  0.46900  0.87377  Biso   1.000  O
  O29      1.0000 0.38991  0.36500  0.79059  Biso   1.000  O
  O30      1.0000 0.38620  0.09580  0.73847  Biso   1.000  O
  O31      1.0000 0.31260  0.21550  0.60776  Biso   1.000  O
  O32      1.0000 0.62010  0.35420  0.84031  Biso   1.000  O
  O33      1.0000 0.71385  0.34810  0.00127  Biso   1.000  O
  O34      1.0000 0.63354  0.22300  0.65290  Biso   1.000  O
  O35      1.0000 0.62816  0.10440  0.77768  Biso   1.000  O
  O36      1.0000 0.53807  0.54050  0.93152  Biso   1.000  O
  C49      1.0000 0.31300  0.38280  0.81910  Biso   1.000  C
  C50      1.0000 0.22480  0.29140  0.78530  Biso   1.000  C
  C51      1.0000 0.13980  0.30520  0.81780  Biso   1.000  C
  H19      1.0000 0.13990  0.37130  0.85870  Biso   1.000  H
  C52      1.0000 0.05490  0.22260  0.79060  Biso   1.000  C
  C53      1.0000 0.05770  0.12460  0.72950  Biso   1.000  C
  H20      1.0000 0.00260  0.06740  0.71080  Biso   1.000  H
  C54      1.0000 0.14120  0.11060  0.69630  Biso   1.000  C
  H21      1.0000 0.14050  0.04510  0.65460  Biso   1.000  H
  C55      1.0000 0.22570  0.19250  0.72400  Biso   1.000  C
  C56      1.0000 0.31630  0.16800  0.68700  Biso   1.000  C
  C57      1.0000 0.96580  0.24200  0.82570  Biso   1.000  C
  C58      1.0000 0.98230  0.29690  0.91670  Biso   1.000  C
  H22      1.0000 0.05060  0.31700  0.95710  Biso   1.000  H
  C59      1.0000 0.89820  0.32150  0.94730  Biso   1.000  C
  H23      1.0000 0.91060  0.35870  0.00770  Biso   1.000  H
  C60      1.0000 0.79630  0.29150  0.88900  Biso   1.000  C
  C61      1.0000 0.77850  0.22950  0.80030  Biso   1.000  C
  C62      1.0000 0.86260  0.20680  0.76920  Biso   1.000  C
  H24      1.0000 0.85020  0.16740  0.70970  Biso   1.000  H
  C63      1.0000 0.67080  0.18350  0.73930  Biso   1.000  C
  C64      1.0000 0.70200  0.33450  0.91250  Biso   1.000  C
