data_image0
_cell_length_a       13.5204
_cell_length_b       10.7639
_cell_length_c       14.6348
_cell_angle_alpha    90
_cell_angle_beta     110.532
_cell_angle_gamma    90

_symmetry_space_group_name_H-M    "P 1"
_symmetry_int_tables_number       1

loop_
  _symmetry_equiv_pos_as_xyz
  'x, y, z'

loop_
  _atom_site_label
  _atom_site_occupancy
  _atom_site_fract_x
  _atom_site_fract_y
  _atom_site_fract_z
  _atom_site_thermal_displace_type
  _atom_site_B_iso_or_equiv
  _atom_site_type_symbol
  Ni1      1.0000 0.41060  0.90524  0.46182  Biso   1.000  Ni
  Ni2      1.0000 0.50346  0.01181  0.29197  Biso   1.000  Ni
  O1       1.0000 0.30576  0.03260  0.37520  Biso   1.000  O
  O2       1.0000 0.39079  0.13640  0.29150  Biso   1.000  O
  O3       1.0000 0.38686  0.40560  0.23922  Biso   1.000  O
  O4       1.0000 0.31370  0.28500  0.10846  Biso   1.000  O
  O5       1.0000 0.61929  0.14680  0.33959  Biso   1.000  O
  O6       1.0000 0.71288  0.15130  0.50044  Biso   1.000  O
  O7       1.0000 0.63474  0.27860  0.15272  Biso   1.000  O
  O8       1.0000 0.62787  0.39700  0.27729  Biso   1.000  O
  O9       1.0000 0.53693  0.96086  0.43051  Biso   1.000  O
  C1       1.0000 0.31370  0.11840  0.32020  Biso   1.000  C
  C2       1.0000 0.22560  0.21030  0.28620  Biso   1.000  C
  C3       1.0000 0.14070  0.19630  0.31860  Biso   1.000  C
  H1       1.0000 0.14120  0.13070  0.36010  Biso   1.000  H
  C4       1.0000 0.05530  0.27750  0.29070  Biso   1.000  C
  C5       1.0000 0.05780  0.37600  0.22940  Biso   1.000  C
  H2       1.0000 0.00230  0.43260  0.21030  Biso   1.000  H
  C6       1.0000 0.14150  0.39050  0.19680  Biso   1.000  C
  H3       1.0000 0.14100  0.45650  0.15560  Biso   1.000  H
  C7       1.0000 0.22630  0.30860  0.22430  Biso   1.000  C
  C8       1.0000 0.31700  0.33280  0.18760  Biso   1.000  C
  C9       1.0000 0.96540  0.25900  0.32620  Biso   1.000  C
  C10      1.0000 0.98180  0.20300  0.41680  Biso   1.000  C
  H4       1.0000 0.04990  0.18250  0.45710  Biso   1.000  H
  C11      1.0000 0.89750  0.17790  0.44700  Biso   1.000  C
  H5       1.0000 0.90960  0.14000  0.50700  Biso   1.000  H
  C12      1.0000 0.79560  0.20860  0.38870  Biso   1.000  C
  C13      1.0000 0.77860  0.27120  0.30060  Biso   1.000  C
  C14      1.0000 0.86300  0.29430  0.26960  Biso   1.000  C
  H6       1.0000 0.85100  0.33400  0.21020  Biso   1.000  H
  C15      1.0000 0.70160  0.16510  0.41180  Biso   1.000  C
  C16      1.0000 0.67070  0.31760  0.23890  Biso   1.000  C
  Ni3      1.0000 0.58940  0.40524  0.03818  Biso   1.000  Ni
  Ni4      1.0000 0.49654  0.51181  0.20803  Biso   1.000  Ni
  O10      1.0000 0.69424  0.53260  0.12480  Biso   1.000  O
  O11      1.0000 0.60921  0.63640  0.20850  Biso   1.000  O
  O12      1.0000 0.61314  0.90560  0.26078  Biso   1.000  O
  O13      1.0000 0.68630  0.78500  0.39154  Biso   1.000  O
  O14      1.0000 0.38071  0.64680  0.16041  Biso   1.000  O
  O15      1.0000 0.28712  0.65130  0.99956  Biso   1.000  O
  O16      1.0000 0.36526  0.77860  0.34728  Biso   1.000  O
  O17      1.0000 0.37213  0.89700  0.22271  Biso   1.000  O
  O18      1.0000 0.46307  0.46086  0.06949  Biso   1.000  O
  C17      1.0000 0.68630  0.61840  0.17980  Biso   1.000  C
  C18      1.0000 0.77440  0.71030  0.21380  Biso   1.000  C
  C19      1.0000 0.85930  0.69630  0.18140  Biso   1.000  C
  H7       1.0000 0.85880  0.63070  0.13990  Biso   1.000  H
  C20      1.0000 0.94470  0.77750  0.20930  Biso   1.000  C
  C21      1.0000 0.94220  0.87600  0.27060  Biso   1.000  C
  H8       1.0000 0.99770  0.93260  0.28970  Biso   1.000  H
  C22      1.0000 0.85850  0.89050  0.30320  Biso   1.000  C
  H9       1.0000 0.85900  0.95650  0.34440  Biso   1.000  H
  C23      1.0000 0.77370  0.80860  0.27570  Biso   1.000  C
  C24      1.0000 0.68300  0.83280  0.31240  Biso   1.000  C
  C25      1.0000 0.03460  0.75900  0.17380  Biso   1.000  C
  C26      1.0000 0.01820  0.70300  0.08320  Biso   1.000  C
  H10      1.0000 0.95010  0.68250  0.04290  Biso   1.000  H
  C27      1.0000 0.10250  0.67790  0.05300  Biso   1.000  C
  H11      1.0000 0.09040  0.64000  0.99300  Biso   1.000  H
  C28      1.0000 0.20440  0.70860  0.11130  Biso   1.000  C
  C29      1.0000 0.22140  0.77120  0.19940  Biso   1.000  C
  C30      1.0000 0.13700  0.79430  0.23040  Biso   1.000  C
  H12      1.0000 0.14900  0.83400  0.28980  Biso   1.000  H
  C31      1.0000 0.29840  0.66510  0.08820  Biso   1.000  C
  C32      1.0000 0.32930  0.81760  0.26110  Biso   1.000  C
  Ni5      1.0000 0.58940  0.09476  0.53818  Biso   1.000  Ni
  Ni6      1.0000 0.49654  0.98819  0.70803  Biso   1.000  Ni
  O19      1.0000 0.69424  0.96740  0.62480  Biso   1.000  O
  O20      1.0000 0.60921  0.86360  0.70850  Biso   1.000  O
  O21      1.0000 0.61314  0.59440  0.76078  Biso   1.000  O
  O22      1.0000 0.68630  0.71500  0.89154  Biso   1.000  O
  O23      1.0000 0.38071  0.85320  0.66041  Biso   1.000  O
  O24      1.0000 0.28712  0.84870  0.49956  Biso   1.000  O
  O25      1.0000 0.36526  0.72140  0.84728  Biso   1.000  O
  O26      1.0000 0.37213  0.60300  0.72271  Biso   1.000  O
  O27      1.0000 0.46307  0.03914  0.56949  Biso   1.000  O
  C33      1.0000 0.68630  0.88160  0.67980  Biso   1.000  C
  C34      1.0000 0.77440  0.78970  0.71380  Biso   1.000  C
  C35      1.0000 0.85930  0.80370  0.68140  Biso   1.000  C
  H13      1.0000 0.85880  0.86930  0.63990  Biso   1.000  H
  C36      1.0000 0.94470  0.72250  0.70930  Biso   1.000  C
  C37      1.0000 0.94220  0.62400  0.77060  Biso   1.000  C
  H14      1.0000 0.99770  0.56740  0.78970  Biso   1.000  H
  C38      1.0000 0.85850  0.60950  0.80320  Biso   1.000  C
  H15      1.0000 0.85900  0.54350  0.84440  Biso   1.000  H
  C39      1.0000 0.77370  0.69140  0.77570  Biso   1.000  C
  C40      1.0000 0.68300  0.66720  0.81240  Biso   1.000  C
  C41      1.0000 0.03460  0.74100  0.67380  Biso   1.000  C
  C42      1.0000 0.01820  0.79700  0.58320  Biso   1.000  C
  H16      1.0000 0.95010  0.81750  0.54290  Biso   1.000  H
  C43      1.0000 0.10250  0.82210  0.55300  Biso   1.000  C
  H17      1.0000 0.09040  0.86000  0.49300  Biso   1.000  H
  C44      1.0000 0.20440  0.79140  0.61130  Biso   1.000  C
  C45      1.0000 0.22140  0.72880  0.69940  Biso   1.000  C
  C46      1.0000 0.13700  0.70570  0.73040  Biso   1.000  C
  H18      1.0000 0.14900  0.66600  0.78980  Biso   1.000  H
  C47      1.0000 0.29840  0.83490  0.58820  Biso   1.000  C
  C48      1.0000 0.32930  0.68240  0.76110  Biso   1.000  C
  Ni7      1.0000 0.41060  0.59476  0.96182  Biso   1.000  Ni
  Ni8      1.0000 0.50346  0.48819  0.79197  Biso   1.000  Ni
  O28      1.0000 0.30576  0.46740  0.87520  Biso   1.000  O
  O29      1.0000 0.39079  0.36360  0.79150  Biso   1.000  O
  O30      1.0000 0.38686  0.09440  0.73922  Biso   1.000  O
  O31      1.0000 0.31370  0.21500  0.60846  Biso   1.000  O
  O32      1.0000 0.61929  0.35320  0.83959  Biso   1.000  O
  O33      1.0000 0.71288  0.34870  0.00044  Biso   1.000  O
  O34      1.0000 0.63474  0.22140  0.65272  Biso   1.000  O
  O35      1.0000 0.62787  0.10300  0.77729  Biso   1.000  O
  O36      1.0000 0.53693  0.53914  0.93051  Biso   1.000  O
  C49      1.0000 0.31370  0.38160  0.82020  Biso   1.000  C
  C50      1.0000 0.22560  0.28970  0.78620  Biso   1.000  C
  C51      1.0000 0.14070  0.30370  0.81860  Biso   1.000  C
  H19      1.0000 0.14120  0.36930  0.86010  Biso   1.000  H
  C52      1.0000 0.05530  0.22250  0.79070  Biso   1.000  C
  C53      1.0000 0.05780  0.12400  0.72940  Biso   1.000  C
  H20      1.0000 0.00230  0.06740  0.71030  Biso   1.000  H
  C54      1.0000 0.14150  0.10950  0.69680  Biso   1.000  C
  H21      1.0000 0.14100  0.04350  0.65560  Biso   1.000  H
  C55      1.0000 0.22630  0.19140  0.72430  Biso   1.000  C
  C56      1.0000 0.31700  0.16720  0.68760  Biso   1.000  C
  C57      1.0000 0.96540  0.24100  0.82620  Biso   1.000  C
  C58      1.0000 0.98180  0.29700  0.91680  Biso   1.000  C
  H22      1.0000 0.04990  0.31750  0.95710  Biso   1.000  H
  C59      1.0000 0.89750  0.32210  0.94700  Biso   1.000  C
  H23      1.0000 0.90960  0.36000  0.00700  Biso   1.000  H
  C60      1.0000 0.79560  0.29140  0.88870  Biso   1.000  C
  C61      1.0000 0.77860  0.22880  0.80060  Biso   1.000  C
  C62      1.0000 0.86300  0.20570  0.76960  Biso   1.000  C
  H24      1.0000 0.85100  0.16600  0.71020  Biso   1.000  H
  C63      1.0000 0.70160  0.33490  0.91180  Biso   1.000  C
  C64      1.0000 0.67070  0.18240  0.73890  Biso   1.000  C
