data_GEGSIW_clean
_audit_creation_date              2014-07-02
_audit_creation_method            'Materials Studio'
_symmetry_space_group_name_H-M    'P1'
_symmetry_Int_Tables_number       1
_symmetry_cell_setting            triclinic
loop_
_symmetry_equiv_pos_as_xyz
  x,y,z
_cell_length_a                    14.2543
_cell_length_b                    15.4448
_cell_length_c                    15.4448
_cell_angle_alpha                 77.5548
_cell_angle_beta                  90.0000
_cell_angle_gamma                 90.0000
loop_
_atom_site_label
_atom_site_type_symbol
_atom_site_fract_x
_atom_site_fract_y
_atom_site_fract_z
_atom_site_U_iso_or_equiv
_atom_site_adp_type
_atom_site_occupancy
Ca1    Ca    0.11082   0.96118   0.44042   0.01267  Uiso   1.00
Ca2    Ca    0.61082   0.53882   0.05958   0.01267  Uiso   1.00
Ca3    Ca    0.38918   0.94042   0.46118   0.01267  Uiso   1.00
Ca4    Ca    0.88918   0.55958   0.03882   0.01267  Uiso   1.00
Ca5    Ca    0.88918   0.03882   0.55958   0.01267  Uiso   1.00
Ca6    Ca    0.38918   0.46118   0.94042   0.01267  Uiso   1.00
Ca7    Ca    0.61082   0.05958   0.53882   0.01267  Uiso   1.00
Ca8    Ca    0.11082   0.44042   0.96118   0.01267  Uiso   1.00
H1     H     0.89060   0.78810   0.30130   0.01267  Uiso   1.00
H2     H     0.88660   0.70390   0.20210   0.01267  Uiso   1.00
H3     H     0.32620   0.89980   0.69260   0.01267  Uiso   1.00
H4     H     0.39060   0.71190   0.19870   0.01267  Uiso   1.00
H5     H     0.38660   0.79610   0.29790   0.01267  Uiso   1.00
H6     H     0.82620   0.60020   0.80740   0.01267  Uiso   1.00
H7     H     0.60940   0.80130   0.28810   0.01267  Uiso   1.00
H8     H     0.61340   0.70210   0.20390   0.01267  Uiso   1.00
H9     H     0.17380   0.19260   0.39980   0.01267  Uiso   1.00
H10    H     0.10940   0.69870   0.21190   0.01267  Uiso   1.00
H11    H     0.11340   0.79790   0.29610   0.01267  Uiso   1.00
H12    H     0.67380   0.30740   0.10020   0.01267  Uiso   1.00
H13    H     0.10940   0.21190   0.69870   0.01267  Uiso   1.00
H14    H     0.11340   0.29610   0.79790   0.01267  Uiso   1.00
H15    H     0.67380   0.10020   0.30740   0.01267  Uiso   1.00
H16    H     0.60940   0.28810   0.80130   0.01267  Uiso   1.00
H17    H     0.61340   0.20390   0.70210   0.01267  Uiso   1.00
H18    H     0.17380   0.39980   0.19260   0.01267  Uiso   1.00
H19    H     0.39060   0.19870   0.71190   0.01267  Uiso   1.00
H20    H     0.38660   0.29790   0.79610   0.01267  Uiso   1.00
H21    H     0.82620   0.80740   0.60020   0.01267  Uiso   1.00
H22    H     0.89060   0.30130   0.78810   0.01267  Uiso   1.00
H23    H     0.88660   0.20210   0.70390   0.01267  Uiso   1.00
H24    H     0.32620   0.69260   0.89980   0.01267  Uiso   1.00
H25    H     0.75000   0.93930   0.43930   0.01267  Uiso   1.00
H26    H     0.25000   0.56070   0.06070   0.01267  Uiso   1.00
H27    H     0.25000   0.06070   0.56070   0.01267  Uiso   1.00
H28    H     0.75000   0.43930   0.93930   0.01267  Uiso   1.00
H29    H     0.13020   0.71050   0.71050   0.01267  Uiso   1.00
H30    H     0.63020   0.78950   0.78950   0.01267  Uiso   1.00
H31    H     0.36980   0.21050   0.21050   0.01267  Uiso   1.00
H32    H     0.86980   0.28950   0.28950   0.01267  Uiso   1.00
C1     C     0.92690   0.89739   0.40743   0.01267  Uiso   1.00
C2     C     0.83442   0.81039   0.31795   0.01267  Uiso   1.00
C3     C     0.83452   0.86865   0.37533   0.01267  Uiso   1.00
C4     C     0.18837   0.85606   0.59760   0.01267  Uiso   1.00
C5     C     0.82440   0.69206   0.19058   0.01267  Uiso   1.00
C6     C     0.22540   0.81097   0.68671   0.01267  Uiso   1.00
C7     C     0.29960   0.84698   0.72290   0.01267  Uiso   1.00
C8     C     0.44610   0.81670   0.92370   0.01267  Uiso   1.00
C9     C     0.42690   0.60261   0.09257   0.01267  Uiso   1.00
C10    C     0.33442   0.68961   0.18205   0.01267  Uiso   1.00
C11    C     0.33452   0.63135   0.12467   0.01267  Uiso   1.00
C12    C     0.68837   0.64394   0.90240   0.01267  Uiso   1.00
C13    C     0.32440   0.80794   0.30942   0.01267  Uiso   1.00
C14    C     0.72540   0.68903   0.81329   0.01267  Uiso   1.00
C15    C     0.79960   0.65302   0.77710   0.01267  Uiso   1.00
C16    C     0.94610   0.68330   0.57630   0.01267  Uiso   1.00
C17    C     0.57310   0.90743   0.39739   0.01267  Uiso   1.00
C18    C     0.66558   0.81795   0.31039   0.01267  Uiso   1.00
C19    C     0.66548   0.87533   0.36865   0.01267  Uiso   1.00
C20    C     0.31163   0.09760   0.35606   0.01267  Uiso   1.00
C21    C     0.67560   0.69058   0.19206   0.01267  Uiso   1.00
C22    C     0.27460   0.18671   0.31097   0.01267  Uiso   1.00
C23    C     0.20040   0.22290   0.34698   0.01267  Uiso   1.00
C24    C     0.05390   0.42370   0.31670   0.01267  Uiso   1.00
C25    C     0.07310   0.59257   0.10261   0.01267  Uiso   1.00
C26    C     0.16558   0.68205   0.18961   0.01267  Uiso   1.00
C27    C     0.16548   0.62467   0.13135   0.01267  Uiso   1.00
C28    C     0.81163   0.40240   0.14394   0.01267  Uiso   1.00
C29    C     0.17560   0.80942   0.30794   0.01267  Uiso   1.00
C30    C     0.77460   0.31329   0.18903   0.01267  Uiso   1.00
C31    C     0.70040   0.27710   0.15302   0.01267  Uiso   1.00
C32    C     0.55390   0.07630   0.18330   0.01267  Uiso   1.00
C33    C     0.07310   0.10261   0.59257   0.01267  Uiso   1.00
C34    C     0.16558   0.18961   0.68205   0.01267  Uiso   1.00
C35    C     0.16548   0.13135   0.62467   0.01267  Uiso   1.00
C36    C     0.81163   0.14394   0.40240   0.01267  Uiso   1.00
C37    C     0.17560   0.30794   0.80942   0.01267  Uiso   1.00
C38    C     0.77460   0.18903   0.31329   0.01267  Uiso   1.00
C39    C     0.70040   0.15302   0.27710   0.01267  Uiso   1.00
C40    C     0.55390   0.18330   0.07630   0.01267  Uiso   1.00
C41    C     0.57310   0.39739   0.90743   0.01267  Uiso   1.00
C42    C     0.66558   0.31039   0.81795   0.01267  Uiso   1.00
C43    C     0.66548   0.36865   0.87533   0.01267  Uiso   1.00
C44    C     0.31163   0.35606   0.09760   0.01267  Uiso   1.00
C45    C     0.67560   0.19206   0.69058   0.01267  Uiso   1.00
C46    C     0.27460   0.31097   0.18671   0.01267  Uiso   1.00
C47    C     0.20040   0.34698   0.22290   0.01267  Uiso   1.00
C48    C     0.05390   0.31670   0.42370   0.01267  Uiso   1.00
C49    C     0.42690   0.09257   0.60261   0.01267  Uiso   1.00
C50    C     0.33442   0.18205   0.68961   0.01267  Uiso   1.00
C51    C     0.33452   0.12467   0.63135   0.01267  Uiso   1.00
C52    C     0.68837   0.90240   0.64394   0.01267  Uiso   1.00
C53    C     0.32440   0.30942   0.80794   0.01267  Uiso   1.00
C54    C     0.72540   0.81329   0.68903   0.01267  Uiso   1.00
C55    C     0.79960   0.77710   0.65302   0.01267  Uiso   1.00
C56    C     0.94610   0.57630   0.68330   0.01267  Uiso   1.00
C57    C     0.92690   0.40743   0.89739   0.01267  Uiso   1.00
C58    C     0.83442   0.31795   0.81039   0.01267  Uiso   1.00
C59    C     0.83452   0.37533   0.86865   0.01267  Uiso   1.00
C60    C     0.18837   0.59760   0.85606   0.01267  Uiso   1.00
C61    C     0.82440   0.19058   0.69206   0.01267  Uiso   1.00
C62    C     0.22540   0.68671   0.81097   0.01267  Uiso   1.00
C63    C     0.29960   0.72290   0.84698   0.01267  Uiso   1.00
C64    C     0.44610   0.92370   0.81670   0.01267  Uiso   1.00
C65    C     0.75000   0.90065   0.40065   0.01267  Uiso   1.00
C66    C     0.75000   0.78595   0.28595   0.01267  Uiso   1.00
C67    C     0.25000   0.59935   0.09935   0.01267  Uiso   1.00
C68    C     0.25000   0.71405   0.21405   0.01267  Uiso   1.00
C69    C     0.25000   0.09935   0.59935   0.01267  Uiso   1.00
C70    C     0.25000   0.21405   0.71405   0.01267  Uiso   1.00
C71    C     0.75000   0.40065   0.90065   0.01267  Uiso   1.00
C72    C     0.75000   0.28595   0.78595   0.01267  Uiso   1.00
C73    C     0.18420   0.73224   0.73224   0.01267  Uiso   1.00
C74    C     0.33500   0.80469   0.80469   0.01267  Uiso   1.00
C75    C     0.68420   0.76776   0.76776   0.01267  Uiso   1.00
C76    C     0.83500   0.69531   0.69531   0.01267  Uiso   1.00
C77    C     0.31580   0.23224   0.23224   0.01267  Uiso   1.00
C78    C     0.16500   0.30469   0.30469   0.01267  Uiso   1.00
C79    C     0.81580   0.26776   0.26776   0.01267  Uiso   1.00
C80    C     0.66500   0.19531   0.19531   0.01267  Uiso   1.00
N1     N     0.79824   0.64104   0.13850   0.01267  Uiso   1.00
N2     N     0.50370   0.87680   0.94400   0.01267  Uiso   1.00
N3     N     0.29824   0.85896   0.36150   0.01267  Uiso   1.00
N4     N     0.00370   0.62320   0.55600   0.01267  Uiso   1.00
N5     N     0.70176   0.63850   0.14104   0.01267  Uiso   1.00
N6     N     0.99630   0.44400   0.37680   0.01267  Uiso   1.00
N7     N     0.20176   0.86150   0.35896   0.01267  Uiso   1.00
N8     N     0.49630   0.05600   0.12320   0.01267  Uiso   1.00
N9     N     0.20176   0.35896   0.86150   0.01267  Uiso   1.00
N10    N     0.49630   0.12320   0.05600   0.01267  Uiso   1.00
N11    N     0.70176   0.14104   0.63850   0.01267  Uiso   1.00
N12    N     0.99630   0.37680   0.44400   0.01267  Uiso   1.00
N13    N     0.29824   0.36150   0.85896   0.01267  Uiso   1.00
N14    N     0.00370   0.55600   0.62320   0.01267  Uiso   1.00
N15    N     0.79824   0.13850   0.64104   0.01267  Uiso   1.00
N16    N     0.50370   0.94400   0.87680   0.01267  Uiso   1.00
N17    N     0.75000   0.72595   0.22595   0.01267  Uiso   1.00
N18    N     0.25000   0.77405   0.27405   0.01267  Uiso   1.00
N19    N     0.25000   0.27405   0.77405   0.01267  Uiso   1.00
N20    N     0.75000   0.22595   0.72595   0.01267  Uiso   1.00
N21    N     0.40690   0.84582   0.84582   0.01267  Uiso   1.00
N22    N     0.90690   0.65418   0.65418   0.01267  Uiso   1.00
N23    N     0.09310   0.34582   0.34582   0.01267  Uiso   1.00
N24    N     0.59310   0.15418   0.15418   0.01267  Uiso   1.00
O1     O     0.24543   0.89998   0.54280   0.01267  Uiso   1.00
O2     O     0.10247   0.84924   0.58030   0.01267  Uiso   1.00
O3     O     0.00021   0.87350   0.37646   0.01267  Uiso   1.00
O4     O     0.92634   0.94405   0.46507   0.01267  Uiso   1.00
O5     O     0.74543   0.60002   0.95720   0.01267  Uiso   1.00
O6     O     0.60247   0.65076   0.91970   0.01267  Uiso   1.00
O7     O     0.50021   0.62650   0.12354   0.01267  Uiso   1.00
O8     O     0.42634   0.55595   0.03493   0.01267  Uiso   1.00
O9     O     0.25457   0.04280   0.39998   0.01267  Uiso   1.00
O10    O     0.39753   0.08030   0.34924   0.01267  Uiso   1.00
O11    O     0.49979   0.87646   0.37350   0.01267  Uiso   1.00
O12    O     0.57366   0.96507   0.44405   0.01267  Uiso   1.00
O13    O     0.75457   0.45720   0.10002   0.01267  Uiso   1.00
O14    O     0.89753   0.41970   0.15076   0.01267  Uiso   1.00
O15    O     0.99979   0.62354   0.12650   0.01267  Uiso   1.00
O16    O     0.07366   0.53493   0.05595   0.01267  Uiso   1.00
O17    O     0.75457   0.10002   0.45720   0.01267  Uiso   1.00
O18    O     0.89753   0.15076   0.41970   0.01267  Uiso   1.00
O19    O     0.99979   0.12650   0.62354   0.01267  Uiso   1.00
O20    O     0.07366   0.05595   0.53493   0.01267  Uiso   1.00
O21    O     0.25457   0.39998   0.04280   0.01267  Uiso   1.00
O22    O     0.39753   0.34924   0.08030   0.01267  Uiso   1.00
O23    O     0.49979   0.37350   0.87646   0.01267  Uiso   1.00
O24    O     0.57366   0.44405   0.96507   0.01267  Uiso   1.00
O25    O     0.74543   0.95720   0.60002   0.01267  Uiso   1.00
O26    O     0.60247   0.91970   0.65076   0.01267  Uiso   1.00
O27    O     0.50021   0.12354   0.62650   0.01267  Uiso   1.00
O28    O     0.42634   0.03493   0.55595   0.01267  Uiso   1.00
O29    O     0.24543   0.54280   0.89998   0.01267  Uiso   1.00
O30    O     0.10247   0.58030   0.84924   0.01267  Uiso   1.00
O31    O     0.00021   0.37646   0.87350   0.01267  Uiso   1.00
O32    O     0.92634   0.46507   0.94405   0.01267  Uiso   1.00
