data_GEGWAS_clean
_audit_creation_date              2014-07-02
_audit_creation_method            'Materials Studio'
_symmetry_space_group_name_H-M    'P1'
_symmetry_Int_Tables_number       1
_symmetry_cell_setting            triclinic
loop_
_symmetry_equiv_pos_as_xyz
  x,y,z
_cell_length_a                    9.4514
_cell_length_b                    16.1890
_cell_length_c                    23.9830
_cell_angle_alpha                 108.0980
_cell_angle_beta                  90.0000
_cell_angle_gamma                 90.0000
loop_
_atom_site_label
_atom_site_type_symbol
_atom_site_fract_x
_atom_site_fract_y
_atom_site_fract_z
_atom_site_U_iso_or_equiv
_atom_site_adp_type
_atom_site_occupancy
Eu1    Eu    0.49558   0.70256   0.90275   0.01267  Uiso   1.00
Eu2    Eu    0.49558   0.29745   0.59725   0.01267  Uiso   1.00
Eu3    Eu    0.50442   0.29745   0.09725   0.01267  Uiso   1.00
Eu4    Eu    0.50442   0.70256   0.40275   0.01267  Uiso   1.00
Ca1    Ca    0.99731   0.50000   0.75000   0.01267  Uiso   1.00
Ca2    Ca    0.00269   0.50000   0.25000   0.01267  Uiso   1.00
Ca3    Ca    0.00000   0.50000   0.00000   0.01267  Uiso   1.00
Ca4    Ca    0.00000   0.50000   0.50000   0.01267  Uiso   1.00
Ca5    Ca    0.00000   0.00000   0.00000   0.01267  Uiso   1.00
Ca6    Ca    0.00000   0.00000   0.50000   0.01267  Uiso   1.00
H1     H     0.38640   0.86990   0.74380   0.01267  Uiso   1.00
H2     H     0.57440   0.81550   0.68060   0.01267  Uiso   1.00
H3     H     0.71820   0.70950   0.69640   0.01267  Uiso   1.00
H4     H     0.64770   0.41640   0.96050   0.01267  Uiso   1.00
H5     H     0.47330   0.32260   0.90950   0.01267  Uiso   1.00
H6     H     0.31430   0.36920   0.85210   0.01267  Uiso   1.00
H7     H     0.31300   0.90250   0.11830   0.01267  Uiso   1.00
H8     H     0.46670   0.01960   0.13120   0.01267  Uiso   1.00
H9     H     0.64410   0.00990   0.06220   0.01267  Uiso   1.00
H10    H     0.38640   0.13010   0.75620   0.01267  Uiso   1.00
H11    H     0.57440   0.18450   0.81940   0.01267  Uiso   1.00
H12    H     0.71820   0.29050   0.80360   0.01267  Uiso   1.00
H13    H     0.64770   0.58360   0.53950   0.01267  Uiso   1.00
H14    H     0.47330   0.67740   0.59050   0.01267  Uiso   1.00
H15    H     0.31430   0.63080   0.64790   0.01267  Uiso   1.00
H16    H     0.31300   0.09750   0.38170   0.01267  Uiso   1.00
H17    H     0.46670   0.98040   0.36880   0.01267  Uiso   1.00
H18    H     0.64410   0.99010   0.43780   0.01267  Uiso   1.00
H19    H     0.61360   0.13010   0.25620   0.01267  Uiso   1.00
H20    H     0.42560   0.18450   0.31940   0.01267  Uiso   1.00
H21    H     0.28180   0.29050   0.30360   0.01267  Uiso   1.00
H22    H     0.35230   0.58360   0.03950   0.01267  Uiso   1.00
H23    H     0.52670   0.67740   0.09050   0.01267  Uiso   1.00
H24    H     0.68570   0.63080   0.14790   0.01267  Uiso   1.00
H25    H     0.68700   0.09750   0.88170   0.01267  Uiso   1.00
H26    H     0.53330   0.98040   0.86880   0.01267  Uiso   1.00
H27    H     0.35590   0.99010   0.93780   0.01267  Uiso   1.00
H28    H     0.61360   0.86990   0.24380   0.01267  Uiso   1.00
H29    H     0.42560   0.81550   0.18060   0.01267  Uiso   1.00
H30    H     0.28180   0.70950   0.19640   0.01267  Uiso   1.00
H31    H     0.35230   0.41640   0.46050   0.01267  Uiso   1.00
H32    H     0.52670   0.32260   0.40950   0.01267  Uiso   1.00
H33    H     0.68570   0.36920   0.35210   0.01267  Uiso   1.00
H34    H     0.68700   0.90250   0.61830   0.01267  Uiso   1.00
H35    H     0.53330   0.01960   0.63120   0.01267  Uiso   1.00
H36    H     0.35590   0.00990   0.56220   0.01267  Uiso   1.00
C1     C     0.31440   0.83260   0.84240   0.01267  Uiso   1.00
C2     C     0.42800   0.79810   0.79670   0.01267  Uiso   1.00
C3     C     0.44680   0.82830   0.75000   0.01267  Uiso   1.00
C4     C     0.55780   0.79520   0.71230   0.01267  Uiso   1.00
C5     C     0.64360   0.73260   0.72170   0.01267  Uiso   1.00
C6     C     0.61730   0.70430   0.76930   0.01267  Uiso   1.00
C7     C     0.70760   0.63740   0.78470   0.01267  Uiso   1.00
C8     C     0.68920   0.58570   0.96757   0.01267  Uiso   1.00
C9     C     0.58450   0.51770   0.93458   0.01267  Uiso   1.00
C10    C     0.58160   0.43450   0.93800   0.01267  Uiso   1.00
C11    C     0.47880   0.37890   0.90740   0.01267  Uiso   1.00
C12    C     0.38360   0.40660   0.87340   0.01267  Uiso   1.00
C13    C     0.39260   0.49080   0.87140   0.01267  Uiso   1.00
C14    C     0.29360   0.52960   0.83771   0.01267  Uiso   1.00
C15    C     0.29920   0.75330   0.02660   0.01267  Uiso   1.00
C16    C     0.39250   0.83110   0.04020   0.01267  Uiso   1.00
C17    C     0.38160   0.90150   0.09030   0.01267  Uiso   1.00
C18    C     0.47440   0.97060   0.09850   0.01267  Uiso   1.00
C19    C     0.57850   0.96540   0.05710   0.01267  Uiso   1.00
C20    C     0.58320   0.89330   0.00820   0.01267  Uiso   1.00
C21    C     0.68970   0.88270   0.96010   0.01267  Uiso   1.00
C22    C     0.31440   0.16740   0.65760   0.01267  Uiso   1.00
C23    C     0.42800   0.20190   0.70330   0.01267  Uiso   1.00
C24    C     0.44680   0.17170   0.75000   0.01267  Uiso   1.00
C25    C     0.55780   0.20480   0.78770   0.01267  Uiso   1.00
C26    C     0.64360   0.26740   0.77830   0.01267  Uiso   1.00
C27    C     0.61730   0.29570   0.73070   0.01267  Uiso   1.00
C28    C     0.70760   0.36260   0.71530   0.01267  Uiso   1.00
C29    C     0.68920   0.41430   0.53243   0.01267  Uiso   1.00
C30    C     0.58450   0.48230   0.56542   0.01267  Uiso   1.00
C31    C     0.58160   0.56550   0.56200   0.01267  Uiso   1.00
C32    C     0.47880   0.62110   0.59260   0.01267  Uiso   1.00
C33    C     0.38360   0.59340   0.62660   0.01267  Uiso   1.00
C34    C     0.39260   0.50920   0.62860   0.01267  Uiso   1.00
C35    C     0.29360   0.47040   0.66229   0.01267  Uiso   1.00
C36    C     0.29920   0.24670   0.47340   0.01267  Uiso   1.00
C37    C     0.39250   0.16890   0.45980   0.01267  Uiso   1.00
C38    C     0.38160   0.09850   0.40970   0.01267  Uiso   1.00
C39    C     0.47440   0.02940   0.40150   0.01267  Uiso   1.00
C40    C     0.57850   0.03460   0.44290   0.01267  Uiso   1.00
C41    C     0.58320   0.10670   0.49180   0.01267  Uiso   1.00
C42    C     0.68970   0.11730   0.53990   0.01267  Uiso   1.00
C43    C     0.68560   0.16740   0.15760   0.01267  Uiso   1.00
C44    C     0.57200   0.20190   0.20330   0.01267  Uiso   1.00
C45    C     0.55320   0.17170   0.25000   0.01267  Uiso   1.00
C46    C     0.44220   0.20480   0.28770   0.01267  Uiso   1.00
C47    C     0.35640   0.26740   0.27830   0.01267  Uiso   1.00
C48    C     0.38270   0.29570   0.23070   0.01267  Uiso   1.00
C49    C     0.29240   0.36260   0.21530   0.01267  Uiso   1.00
C50    C     0.31080   0.41430   0.03243   0.01267  Uiso   1.00
C51    C     0.41550   0.48230   0.06542   0.01267  Uiso   1.00
C52    C     0.41840   0.56550   0.06200   0.01267  Uiso   1.00
C53    C     0.52120   0.62110   0.09260   0.01267  Uiso   1.00
C54    C     0.61640   0.59340   0.12660   0.01267  Uiso   1.00
C55    C     0.60740   0.50920   0.12860   0.01267  Uiso   1.00
C56    C     0.70640   0.47040   0.16229   0.01267  Uiso   1.00
C57    C     0.70080   0.24670   0.97340   0.01267  Uiso   1.00
C58    C     0.60750   0.16890   0.95980   0.01267  Uiso   1.00
C59    C     0.61840   0.09850   0.90970   0.01267  Uiso   1.00
C60    C     0.52560   0.02940   0.90150   0.01267  Uiso   1.00
C61    C     0.42150   0.03460   0.94290   0.01267  Uiso   1.00
C62    C     0.41680   0.10670   0.99180   0.01267  Uiso   1.00
C63    C     0.31030   0.11730   0.03990   0.01267  Uiso   1.00
C64    C     0.68560   0.83260   0.34240   0.01267  Uiso   1.00
C65    C     0.57200   0.79810   0.29670   0.01267  Uiso   1.00
C66    C     0.55320   0.82830   0.25000   0.01267  Uiso   1.00
C67    C     0.44220   0.79520   0.21230   0.01267  Uiso   1.00
C68    C     0.35640   0.73260   0.22170   0.01267  Uiso   1.00
C69    C     0.38270   0.70430   0.26930   0.01267  Uiso   1.00
C70    C     0.29240   0.63740   0.28470   0.01267  Uiso   1.00
C71    C     0.31080   0.58570   0.46757   0.01267  Uiso   1.00
C72    C     0.41550   0.51770   0.43458   0.01267  Uiso   1.00
C73    C     0.41840   0.43450   0.43800   0.01267  Uiso   1.00
C74    C     0.52120   0.37890   0.40740   0.01267  Uiso   1.00
C75    C     0.61640   0.40660   0.37340   0.01267  Uiso   1.00
C76    C     0.60740   0.49080   0.37140   0.01267  Uiso   1.00
C77    C     0.70640   0.52960   0.33771   0.01267  Uiso   1.00
C78    C     0.70080   0.75330   0.52660   0.01267  Uiso   1.00
C79    C     0.60750   0.83110   0.54020   0.01267  Uiso   1.00
C80    C     0.61840   0.90150   0.59030   0.01267  Uiso   1.00
C81    C     0.52560   0.97060   0.59850   0.01267  Uiso   1.00
C82    C     0.42150   0.96540   0.55710   0.01267  Uiso   1.00
C83    C     0.41680   0.89330   0.50820   0.01267  Uiso   1.00
C84    C     0.31030   0.88270   0.46010   0.01267  Uiso   1.00
N1     N     0.51150   0.73750   0.80674   0.01267  Uiso   1.00
N2     N     0.49090   0.54600   0.90225   0.01267  Uiso   1.00
N3     N     0.49140   0.82820   0.99919   0.01267  Uiso   1.00
N4     N     0.51150   0.26250   0.69326   0.01267  Uiso   1.00
N5     N     0.49090   0.45400   0.59775   0.01267  Uiso   1.00
N6     N     0.49140   0.17180   0.50081   0.01267  Uiso   1.00
N7     N     0.48850   0.26250   0.19326   0.01267  Uiso   1.00
N8     N     0.50910   0.45400   0.09775   0.01267  Uiso   1.00
N9     N     0.50860   0.17180   0.00081   0.01267  Uiso   1.00
N10    N     0.48850   0.73750   0.30674   0.01267  Uiso   1.00
N11    N     0.50910   0.54600   0.40225   0.01267  Uiso   1.00
N12    N     0.50860   0.82820   0.49919   0.01267  Uiso   1.00
O1     O     0.32080   0.80700   0.88790   0.01267  Uiso   1.00
O2     O     0.22720   0.88480   0.83451   0.01267  Uiso   1.00
O3     O     0.67870   0.62700   0.83415   0.01267  Uiso   1.00
O4     O     0.79970   0.59950   0.75024   0.01267  Uiso   1.00
O5     O     0.66860   0.66230   0.96561   0.01267  Uiso   1.00
O6     O     0.78670   0.56310   0.99380   0.01267  Uiso   1.00
O7     O     0.31570   0.60900   0.84230   0.01267  Uiso   1.00
O8     O     0.19630   0.48410   0.80989   0.01267  Uiso   1.00
O9     O     0.31430   0.69770   0.97640   0.01267  Uiso   1.00
O10    O     0.21610   0.74670   0.06549   0.01267  Uiso   1.00
O11    O     0.67430   0.81800   0.91542   0.01267  Uiso   1.00
O12    O     0.78640   0.93730   0.96737   0.01267  Uiso   1.00
O13    O     0.32080   0.19300   0.61210   0.01267  Uiso   1.00
O14    O     0.22720   0.11520   0.66549   0.01267  Uiso   1.00
O15    O     0.67870   0.37300   0.66585   0.01267  Uiso   1.00
O16    O     0.79970   0.40050   0.74976   0.01267  Uiso   1.00
O17    O     0.66860   0.33770   0.53439   0.01267  Uiso   1.00
O18    O     0.78670   0.43690   0.50620   0.01267  Uiso   1.00
O19    O     0.31570   0.39100   0.65770   0.01267  Uiso   1.00
O20    O     0.19630   0.51590   0.69011   0.01267  Uiso   1.00
O21    O     0.31430   0.30230   0.52360   0.01267  Uiso   1.00
O22    O     0.21610   0.25330   0.43451   0.01267  Uiso   1.00
O23    O     0.67430   0.18200   0.58458   0.01267  Uiso   1.00
O24    O     0.78640   0.06270   0.53263   0.01267  Uiso   1.00
O25    O     0.67920   0.19300   0.11210   0.01267  Uiso   1.00
O26    O     0.77280   0.11520   0.16549   0.01267  Uiso   1.00
O27    O     0.32130   0.37300   0.16585   0.01267  Uiso   1.00
O28    O     0.20030   0.40050   0.24976   0.01267  Uiso   1.00
O29    O     0.33140   0.33770   0.03439   0.01267  Uiso   1.00
O30    O     0.21330   0.43690   0.00620   0.01267  Uiso   1.00
O31    O     0.68430   0.39100   0.15770   0.01267  Uiso   1.00
O32    O     0.80370   0.51590   0.19011   0.01267  Uiso   1.00
O33    O     0.68570   0.30230   0.02360   0.01267  Uiso   1.00
O34    O     0.78390   0.25330   0.93451   0.01267  Uiso   1.00
O35    O     0.32570   0.18200   0.08458   0.01267  Uiso   1.00
O36    O     0.21360   0.06270   0.03263   0.01267  Uiso   1.00
O37    O     0.67920   0.80700   0.38790   0.01267  Uiso   1.00
O38    O     0.77280   0.88480   0.33451   0.01267  Uiso   1.00
O39    O     0.32130   0.62700   0.33415   0.01267  Uiso   1.00
O40    O     0.20030   0.59950   0.25024   0.01267  Uiso   1.00
O41    O     0.33140   0.66230   0.46561   0.01267  Uiso   1.00
O42    O     0.21330   0.56310   0.49380   0.01267  Uiso   1.00
O43    O     0.68430   0.60900   0.34230   0.01267  Uiso   1.00
O44    O     0.80370   0.48410   0.30989   0.01267  Uiso   1.00
O45    O     0.68570   0.69770   0.47640   0.01267  Uiso   1.00
O46    O     0.78390   0.74670   0.56549   0.01267  Uiso   1.00
O47    O     0.32570   0.81800   0.41542   0.01267  Uiso   1.00
O48    O     0.21360   0.93730   0.46737   0.01267  Uiso   1.00
