data_GEHSAN_clean
_audit_creation_date              2014-07-02
_audit_creation_method            'Materials Studio'
_symmetry_space_group_name_H-M    'P1'
_symmetry_Int_Tables_number       1
_symmetry_cell_setting            triclinic
loop_
_symmetry_equiv_pos_as_xyz
  x,y,z
_cell_length_a                    8.8147
_cell_length_b                    8.8147
_cell_length_c                    13.7350
_cell_angle_alpha                 94.5895
_cell_angle_beta                  94.5895
_cell_angle_gamma                 100.2540
loop_
_atom_site_label
_atom_site_type_symbol
_atom_site_fract_x
_atom_site_fract_y
_atom_site_fract_z
_atom_site_U_iso_or_equiv
_atom_site_adp_type
_atom_site_occupancy
Ca1    Ca    0.87590   0.57430   0.60400   0.01267  Uiso   1.00
Ca2    Ca    0.42570   0.12410   0.89600   0.01267  Uiso   1.00
Ca3    Ca    0.12410   0.42570   0.39600   0.01267  Uiso   1.00
Ca4    Ca    0.57430   0.87590   0.10400   0.01267  Uiso   1.00
Fe1    Fe    0.50000   0.00000   0.50000   0.01267  Uiso   1.00
Fe2    Fe    0.00000   0.50000   0.00000   0.01267  Uiso   1.00
H1     H     0.48190   0.45910   0.55380   0.01267  Uiso   1.00
H2     H     0.44860   0.62740   0.62060   0.01267  Uiso   1.00
H3     H     0.58030   0.72810   0.70780   0.01267  Uiso   1.00
H4     H     0.74390   0.74050   0.79280   0.01267  Uiso   1.00
H5     H     0.25160   0.63760   0.78780   0.01267  Uiso   1.00
H6     H     0.69960   0.41380   0.80810   0.01267  Uiso   1.00
H7     H     0.96280   0.68900   0.40790   0.01267  Uiso   1.00
H8     H     0.83610   0.53310   0.39210   0.01267  Uiso   1.00
H9     H     0.54090   0.51810   0.94620   0.01267  Uiso   1.00
H10    H     0.37260   0.55140   0.87940   0.01267  Uiso   1.00
H11    H     0.27190   0.41970   0.79220   0.01267  Uiso   1.00
H12    H     0.25950   0.25610   0.70720   0.01267  Uiso   1.00
H13    H     0.36240   0.74840   0.71220   0.01267  Uiso   1.00
H14    H     0.58620   0.30040   0.69190   0.01267  Uiso   1.00
H15    H     0.31100   0.03720   0.09210   0.01267  Uiso   1.00
H16    H     0.46690   0.16390   0.10790   0.01267  Uiso   1.00
H17    H     0.51810   0.54090   0.44620   0.01267  Uiso   1.00
H18    H     0.55140   0.37260   0.37940   0.01267  Uiso   1.00
H19    H     0.41970   0.27190   0.29220   0.01267  Uiso   1.00
H20    H     0.25610   0.25950   0.20720   0.01267  Uiso   1.00
H21    H     0.74840   0.36240   0.21220   0.01267  Uiso   1.00
H22    H     0.30040   0.58620   0.19190   0.01267  Uiso   1.00
H23    H     0.03720   0.31100   0.59210   0.01267  Uiso   1.00
H24    H     0.16390   0.46690   0.60790   0.01267  Uiso   1.00
H25    H     0.45910   0.48190   0.05380   0.01267  Uiso   1.00
H26    H     0.62740   0.44860   0.12060   0.01267  Uiso   1.00
H27    H     0.72810   0.58030   0.20780   0.01267  Uiso   1.00
H28    H     0.74050   0.74390   0.29280   0.01267  Uiso   1.00
H29    H     0.63760   0.25160   0.28780   0.01267  Uiso   1.00
H30    H     0.41380   0.69960   0.30810   0.01267  Uiso   1.00
H31    H     0.68900   0.96280   0.90790   0.01267  Uiso   1.00
H32    H     0.53310   0.83610   0.89210   0.01267  Uiso   1.00
C1     C     0.64870   0.19010   0.52150   0.01267  Uiso   1.00
C2     C     0.46640   0.01740   0.63820   0.01267  Uiso   1.00
C3     C     0.65380   0.87400   0.52960   0.01267  Uiso   1.00
C4     C     0.48090   0.51570   0.62640   0.01267  Uiso   1.00
C5     C     0.63410   0.67010   0.76370   0.01267  Uiso   1.00
C6     C     0.80990   0.35130   0.97850   0.01267  Uiso   1.00
C7     C     0.98260   0.53360   0.86180   0.01267  Uiso   1.00
C8     C     0.12600   0.34620   0.97040   0.01267  Uiso   1.00
C9     C     0.48430   0.51910   0.87360   0.01267  Uiso   1.00
C10    C     0.32990   0.36590   0.73630   0.01267  Uiso   1.00
C11    C     0.35130   0.80990   0.47850   0.01267  Uiso   1.00
C12    C     0.53360   0.98260   0.36180   0.01267  Uiso   1.00
C13    C     0.34620   0.12600   0.47040   0.01267  Uiso   1.00
C14    C     0.51910   0.48430   0.37360   0.01267  Uiso   1.00
C15    C     0.36590   0.32990   0.23630   0.01267  Uiso   1.00
C16    C     0.19010   0.64870   0.02150   0.01267  Uiso   1.00
C17    C     0.01740   0.46640   0.13820   0.01267  Uiso   1.00
C18    C     0.87400   0.65380   0.02960   0.01267  Uiso   1.00
C19    C     0.51570   0.48090   0.12640   0.01267  Uiso   1.00
C20    C     0.67010   0.63410   0.26370   0.01267  Uiso   1.00
C21    C     0.35710   0.64290   0.75000   0.01267  Uiso   1.00
C22    C     0.60740   0.39260   0.75000   0.01267  Uiso   1.00
C23    C     0.64290   0.35710   0.25000   0.01267  Uiso   1.00
C24    C     0.39260   0.60740   0.25000   0.01267  Uiso   1.00
N1     N     0.73380   0.30940   0.53390   0.01267  Uiso   1.00
N2     N     0.44720   0.03040   0.72090   0.01267  Uiso   1.00
N3     N     0.73870   0.79130   0.54950   0.01267  Uiso   1.00
N4     N     0.62370   0.53130   0.69360   0.01267  Uiso   1.00
N5     N     0.34050   0.50310   0.68020   0.01267  Uiso   1.00
N6     N     0.69060   0.26620   0.96610   0.01267  Uiso   1.00
N7     N     0.96960   0.55280   0.77910   0.01267  Uiso   1.00
N8     N     0.20870   0.26130   0.95050   0.01267  Uiso   1.00
N9     N     0.46870   0.37630   0.80640   0.01267  Uiso   1.00
N10    N     0.49690   0.65950   0.81980   0.01267  Uiso   1.00
N11    N     0.26620   0.69060   0.46610   0.01267  Uiso   1.00
N12    N     0.55280   0.96960   0.27910   0.01267  Uiso   1.00
N13    N     0.26130   0.20870   0.45050   0.01267  Uiso   1.00
N14    N     0.37630   0.46870   0.30640   0.01267  Uiso   1.00
N15    N     0.65950   0.49690   0.31980   0.01267  Uiso   1.00
N16    N     0.30940   0.73380   0.03390   0.01267  Uiso   1.00
N17    N     0.03040   0.44720   0.22090   0.01267  Uiso   1.00
N18    N     0.79130   0.73870   0.04950   0.01267  Uiso   1.00
N19    N     0.53130   0.62370   0.19360   0.01267  Uiso   1.00
N20    N     0.50310   0.34050   0.18020   0.01267  Uiso   1.00
O1     O     0.92810   0.58290   0.43000   0.01267  Uiso   1.00
O2     O     0.41710   0.07190   0.07000   0.01267  Uiso   1.00
O3     O     0.07190   0.41710   0.57000   0.01267  Uiso   1.00
O4     O     0.58290   0.92810   0.93000   0.01267  Uiso   1.00
