data_image0
_cell_length_a       7.8354
_cell_length_b       12.0496
_cell_length_c       12.2524
_cell_angle_alpha    112.015
_cell_angle_beta     89.967
_cell_angle_gamma    99.921

_symmetry_space_group_name_H-M    "P 1"
_symmetry_int_tables_number       1

loop_
  _symmetry_equiv_pos_as_xyz
  'x, y, z'

loop_
  _atom_site_label
  _atom_site_occupancy
  _atom_site_fract_x
  _atom_site_fract_y
  _atom_site_fract_z
  _atom_site_thermal_displace_type
  _atom_site_B_iso_or_equiv
  _atom_site_type_symbol
  C1       1.0000 0.64700  0.42900  0.14900  Biso   1.000  C
  C2       1.0000 0.72200  0.31000  0.08570  Biso   1.000  C
  H1       1.0000 0.74410  0.27600  0.14320  Biso   1.000  H
  H2       1.0000 0.63560  0.25110  0.02620  Biso   1.000  H
  C3       1.0000 0.89400  0.33300  0.02570  Biso   1.000  C
  H3       1.0000 0.97290  0.40210  0.08170  Biso   1.000  H
  H4       1.0000 0.94850  0.26240  0.00510  Biso   1.000  H
  C4       1.0000 0.86300  0.35900  0.91360  Biso   1.000  C
  C5       1.0000 0.14400  0.42600  0.29710  Biso   1.000  C
  C6       1.0000 0.22400  0.30880  0.27180  Biso   1.000  C
  C7       1.0000 0.38800  0.33300  0.35120  Biso   1.000  C
  C8       1.0000 0.36500  0.36300  0.47600  Biso   1.000  C
  C9       1.0000 0.32300  0.86100  0.31510  Biso   1.000  C
  C10      1.0000 0.24800  0.96900  0.36500  Biso   1.000  C
  H5       1.0000 0.28630  0.02160  0.32330  Biso   1.000  H
  H6       1.0000 0.12260  0.94440  0.35070  Biso   1.000  H
  C11      1.0000 0.28600  0.03700  0.48800  Biso   1.000  C
  H7       1.0000 0.40930  0.07230  0.50120  Biso   1.000  H
  H8       1.0000 0.26470  0.98170  0.52920  Biso   1.000  H
  C12      1.0000 0.17900  0.14400  0.54500  Biso   1.000  C
  Nd1      1.0000 0.99131  0.64570  0.35421  Biso   1.000  Nd
  Nd2      1.0000 0.49093  0.64513  0.25275  Biso   1.000  Nd
  O1       1.0000 0.73630  0.51840  0.22070  Biso   1.000  O
  O2       1.0000 0.48800  0.42840  0.11800  Biso   1.000  O
  O3       1.0000 0.23170  0.51790  0.28990  Biso   1.000  O
  O4       1.0000 0.99090  0.42850  0.32680  Biso   1.000  O
  O5       1.0000 0.27160  0.77710  0.35910  Biso   1.000  O
  O6       1.0000 0.45000  0.85500  0.25890  Biso   1.000  O
  O7       1.0000 0.72140  0.39100  0.90130  Biso   1.000  O
  O8       1.0000 0.98440  0.34610  0.84900  Biso   1.000  O
  O9       1.0000 0.23110  0.22310  0.65340  Biso   1.000  O
  O10      1.0000 0.04720  0.14950  0.49510  Biso   1.000  O
  O11      1.0000 0.48620  0.35000  0.53550  Biso   1.000  O
  O12      1.0000 0.22690  0.39690  0.51680  Biso   1.000  O
  C13      1.0000 0.35300  0.57100  0.85100  Biso   1.000  C
  C14      1.0000 0.27800  0.69000  0.91430  Biso   1.000  C
  H9       1.0000 0.25590  0.72400  0.85680  Biso   1.000  H
  H10      1.0000 0.36440  0.74890  0.97380  Biso   1.000  H
  C15      1.0000 0.10600  0.66700  0.97430  Biso   1.000  C
  H11      1.0000 0.02710  0.59790  0.91830  Biso   1.000  H
  H12      1.0000 0.05150  0.73760  0.99490  Biso   1.000  H
  C16      1.0000 0.13700  0.64100  0.08640  Biso   1.000  C
  C17      1.0000 0.85600  0.57400  0.70290  Biso   1.000  C
  C18      1.0000 0.77600  0.69120  0.72820  Biso   1.000  C
  C19      1.0000 0.61200  0.66700  0.64880  Biso   1.000  C
  C20      1.0000 0.63500  0.63700  0.52400  Biso   1.000  C
  C21      1.0000 0.67700  0.13900  0.68490  Biso   1.000  C
  C22      1.0000 0.75200  0.03100  0.63500  Biso   1.000  C
  H13      1.0000 0.71370  0.97840  0.67670  Biso   1.000  H
  H14      1.0000 0.87740  0.05560  0.64930  Biso   1.000  H
  C23      1.0000 0.71400  0.96300  0.51200  Biso   1.000  C
  H15      1.0000 0.59070  0.92770  0.49880  Biso   1.000  H
  H16      1.0000 0.73530  0.01830  0.47080  Biso   1.000  H
  C24      1.0000 0.82100  0.85600  0.45500  Biso   1.000  C
  Nd3      1.0000 0.00869  0.35430  0.64579  Biso   1.000  Nd
  Nd4      1.0000 0.50907  0.35487  0.74725  Biso   1.000  Nd
  O13      1.0000 0.26370  0.48160  0.77930  Biso   1.000  O
  O14      1.0000 0.51200  0.57160  0.88200  Biso   1.000  O
  O15      1.0000 0.76830  0.48210  0.71010  Biso   1.000  O
  O16      1.0000 0.00910  0.57150  0.67320  Biso   1.000  O
  O17      1.0000 0.72840  0.22290  0.64090  Biso   1.000  O
  O18      1.0000 0.55000  0.14500  0.74110  Biso   1.000  O
  O19      1.0000 0.27860  0.60900  0.09870  Biso   1.000  O
  O20      1.0000 0.01560  0.65390  0.15100  Biso   1.000  O
  O21      1.0000 0.76890  0.77690  0.34660  Biso   1.000  O
  O22      1.0000 0.95280  0.85050  0.50490  Biso   1.000  O
  O23      1.0000 0.51380  0.65000  0.46450  Biso   1.000  O
  O24      1.0000 0.77310  0.60310  0.48320  Biso   1.000  O
