data_image0
_cell_length_a       9.841
_cell_length_b       10.226
_cell_length_c       13.404
_cell_angle_alpha    82.02
_cell_angle_beta     86.86
_cell_angle_gamma    65.1

_symmetry_space_group_name_H-M    "P 1"
_symmetry_int_tables_number       1

loop_
  _symmetry_equiv_pos_as_xyz
  'x, y, z'

loop_
  _atom_site_label
  _atom_site_occupancy
  _atom_site_fract_x
  _atom_site_fract_y
  _atom_site_fract_z
  _atom_site_thermal_displace_type
  _atom_site_B_iso_or_equiv
  _atom_site_type_symbol
  Yb1      1.0000 0.33414  0.21872  0.18262  Biso   1.000  Yb
  Cs1      1.0000 0.14983  0.54990  0.38392  Biso   1.000  Cs
  Mo1      1.0000 0.74440  0.62576  0.23865  Biso   1.000  Mo
  O1       1.0000 0.34950  0.44320  0.18420  Biso   1.000  O
  H1       1.0000 0.45340  0.42040  0.20090  Biso   1.000  H
  N1       1.0000 0.90860  0.33740  0.40580  Biso   1.000  N
  N2       1.0000 0.74860  0.74090  0.45780  Biso   1.000  N
  N3       1.0000 0.43280  0.60990  0.33250  Biso   1.000  N
  N4       1.0000 0.48180  0.96300  0.20780  Biso   1.000  N
  N5       1.0000 0.67720  0.37430  0.15030  Biso   1.000  N
  N6       1.0000 0.29380  0.28000  0.00730  Biso   1.000  N
  N7       1.0000 0.08430  0.41150  0.17230  Biso   1.000  N
  N8       1.0000 0.94580  0.81920  0.20160  Biso   1.000  N
  C1       1.0000 0.84570  0.43940  0.34930  Biso   1.000  C
  C2       1.0000 0.74550  0.70340  0.38170  Biso   1.000  C
  C3       1.0000 0.54250  0.61720  0.30430  Biso   1.000  C
  C4       1.0000 0.57050  0.84490  0.21740  Biso   1.000  C
  C5       1.0000 0.70360  0.46160  0.17800  Biso   1.000  C
  C6       1.0000 0.28090  0.31210  0.92200  Biso   1.000  C
  C7       1.0000 0.96440  0.48910  0.18940  Biso   1.000  C
  C8       1.0000 0.87330  0.75490  0.21320  Biso   1.000  C
  C9       1.0000 0.30350  0.56290  0.10380  Biso   1.000  C
  H2       1.0000 0.36570  0.53390  0.04600  Biso   1.000  H
  H3       1.0000 0.31340  0.64410  0.12560  Biso   1.000  H
  H4       1.0000 0.20090  0.59050  0.08630  Biso   1.000  H
  Yb2      1.0000 0.66586  0.78128  0.81738  Biso   1.000  Yb
  Cs2      1.0000 0.85017  0.45010  0.61608  Biso   1.000  Cs
  Mo2      1.0000 0.25560  0.37424  0.76135  Biso   1.000  Mo
  O2       1.0000 0.65050  0.55680  0.81580  Biso   1.000  O
  H5       1.0000 0.54660  0.57960  0.79910  Biso   1.000  H
  N9       1.0000 0.09140  0.66260  0.59420  Biso   1.000  N
  N10      1.0000 0.25140  0.25910  0.54220  Biso   1.000  N
  N11      1.0000 0.56720  0.39010  0.66750  Biso   1.000  N
  N12      1.0000 0.51820  0.03700  0.79220  Biso   1.000  N
  N13      1.0000 0.32280  0.62570  0.84970  Biso   1.000  N
  N14      1.0000 0.70620  0.72000  0.99270  Biso   1.000  N
  N15      1.0000 0.91570  0.58850  0.82770  Biso   1.000  N
  N16      1.0000 0.05420  0.18080  0.79840  Biso   1.000  N
  C10      1.0000 0.15430  0.56060  0.65070  Biso   1.000  C
  C11      1.0000 0.25450  0.29660  0.61830  Biso   1.000  C
  C12      1.0000 0.45750  0.38280  0.69570  Biso   1.000  C
  C13      1.0000 0.42950  0.15510  0.78260  Biso   1.000  C
  C14      1.0000 0.29640  0.53840  0.82200  Biso   1.000  C
  C15      1.0000 0.71910  0.68790  0.07800  Biso   1.000  C
  C16      1.0000 0.03560  0.51090  0.81060  Biso   1.000  C
  C17      1.0000 0.12670  0.24510  0.78680  Biso   1.000  C
  C18      1.0000 0.69650  0.43710  0.89620  Biso   1.000  C
  H6       1.0000 0.63430  0.46610  0.95400  Biso   1.000  H
  H7       1.0000 0.68660  0.35590  0.87440  Biso   1.000  H
  H8       1.0000 0.79910  0.40950  0.91370  Biso   1.000  H
