data_GELVEZ_clean
_audit_creation_date              2014-07-02
_audit_creation_method            'Materials Studio'
_symmetry_space_group_name_H-M    'P1'
_symmetry_Int_Tables_number       1
_symmetry_cell_setting            triclinic
loop_
_symmetry_equiv_pos_as_xyz
  x,y,z
_cell_length_a                    9.0630
_cell_length_b                    9.0630
_cell_length_c                    10.9470
_cell_angle_alpha                 90.0000
_cell_angle_beta                  90.0000
_cell_angle_gamma                 120.0000
loop_
_atom_site_label
_atom_site_type_symbol
_atom_site_fract_x
_atom_site_fract_y
_atom_site_fract_z
_atom_site_U_iso_or_equiv
_atom_site_adp_type
_atom_site_occupancy
Mn1    Mn    0.02779   0.02779   0.33333   0.01267  Uiso   1.00
Mn2    Mn    0.00000   0.97221   0.66667   0.01267  Uiso   1.00
Mn3    Mn    0.97221   0.00000   0.00000   0.01267  Uiso   1.00
H1     H     0.37000   0.14300   0.25000   0.01267  Uiso   1.00
H2     H     0.59700   0.09100   0.33200   0.01267  Uiso   1.00
H3     H     0.77300   0.63000   0.58333   0.01267  Uiso   1.00
H4     H     0.49400   0.40300   0.66533   0.01267  Uiso   1.00
H5     H     0.85700   0.22700   0.91667   0.01267  Uiso   1.00
H6     H     0.90900   0.50600   0.99867   0.01267  Uiso   1.00
H7     H     0.22700   0.85700   0.75000   0.01267  Uiso   1.00
H8     H     0.50600   0.90900   0.66800   0.01267  Uiso   1.00
H9     H     0.14300   0.37000   0.41667   0.01267  Uiso   1.00
H10    H     0.09100   0.59700   0.33467   0.01267  Uiso   1.00
H11    H     0.63000   0.77300   0.08333   0.01267  Uiso   1.00
H12    H     0.40300   0.49400   0.00133   0.01267  Uiso   1.00
C1     C     0.52120   0.04540   0.39490   0.01267  Uiso   1.00
C2     C     0.37170   0.04920   0.39590   0.01267  Uiso   1.00
C3     C     0.52420   0.47880   0.72823   0.01267  Uiso   1.00
C4     C     0.67750   0.62830   0.72923   0.01267  Uiso   1.00
C5     C     0.95460   0.47580   0.06157   0.01267  Uiso   1.00
C6     C     0.95080   0.32250   0.06257   0.01267  Uiso   1.00
C7     C     0.47580   0.95460   0.60510   0.01267  Uiso   1.00
C8     C     0.32250   0.95080   0.60410   0.01267  Uiso   1.00
C9     C     0.04540   0.52120   0.27177   0.01267  Uiso   1.00
C10    C     0.04920   0.37170   0.27077   0.01267  Uiso   1.00
C11    C     0.47880   0.52420   0.93843   0.01267  Uiso   1.00
C12    C     0.62830   0.67750   0.93743   0.01267  Uiso   1.00
C13    C     0.73870   0.00000   0.50000   0.01267  Uiso   1.00
C14    C     0.26710   0.00000   0.50000   0.01267  Uiso   1.00
C15    C     0.57460   0.00000   0.50000   0.01267  Uiso   1.00
C16    C     0.26130   0.26130   0.83333   0.01267  Uiso   1.00
C17    C     0.73290   0.73290   0.83333   0.01267  Uiso   1.00
C18    C     0.42540   0.42540   0.83333   0.01267  Uiso   1.00
C19    C     0.00000   0.73870   0.16667   0.01267  Uiso   1.00
C20    C     0.00000   0.26710   0.16667   0.01267  Uiso   1.00
C21    C     0.00000   0.57460   0.16667   0.01267  Uiso   1.00
O1     O     0.30710   0.09660   0.29969   0.01267  Uiso   1.00
O2     O     0.78120   0.95450   0.40323   0.01267  Uiso   1.00
O3     O     0.78950   0.69290   0.63302   0.01267  Uiso   1.00
O4     O     0.17330   0.21880   0.73656   0.01267  Uiso   1.00
O5     O     0.90340   0.21050   0.96636   0.01267  Uiso   1.00
O6     O     0.04550   0.82670   0.06990   0.01267  Uiso   1.00
O7     O     0.21050   0.90340   0.70031   0.01267  Uiso   1.00
O8     O     0.82670   0.04550   0.59677   0.01267  Uiso   1.00
O9     O     0.09660   0.30710   0.36698   0.01267  Uiso   1.00
O10    O     0.95450   0.78120   0.26344   0.01267  Uiso   1.00
O11    O     0.69290   0.78950   0.03364   0.01267  Uiso   1.00
O12    O     0.21880   0.17330   0.93010   0.01267  Uiso   1.00
O13    O     0.12060   0.00000   0.50000   0.01267  Uiso   1.00
O14    O     0.87940   0.87940   0.83333   0.01267  Uiso   1.00
O15    O     0.00000   0.12060   0.16667   0.01267  Uiso   1.00
