data_GELVID_clean
_audit_creation_date              2014-07-02
_audit_creation_method            'Materials Studio'
_symmetry_space_group_name_H-M    'P1'
_symmetry_Int_Tables_number       1
_symmetry_cell_setting            triclinic
loop_
_symmetry_equiv_pos_as_xyz
  x,y,z
_cell_length_a                    8.8240
_cell_length_b                    8.8240
_cell_length_c                    10.6440
_cell_angle_alpha                 90.0000
_cell_angle_beta                  90.0000
_cell_angle_gamma                 120.0000
loop_
_atom_site_label
_atom_site_type_symbol
_atom_site_fract_x
_atom_site_fract_y
_atom_site_fract_z
_atom_site_U_iso_or_equiv
_atom_site_adp_type
_atom_site_occupancy
Ni1    Ni    0.00000   0.95806   0.83333   0.01267  Uiso   1.00
Ni2    Ni    0.95806   0.00000   0.50000   0.01267  Uiso   1.00
Ni3    Ni    0.04194   0.04194   0.16667   0.01267  Uiso   1.00
H1     H     0.21100   0.86400   0.72900   0.01267  Uiso   1.00
H2     H     0.51200   0.90400   0.83100   0.01267  Uiso   1.00
H3     H     0.65300   0.78900   0.39567   0.01267  Uiso   1.00
H4     H     0.39200   0.48800   0.49767   0.01267  Uiso   1.00
H5     H     0.13600   0.34700   0.06233   0.01267  Uiso   1.00
H6     H     0.09600   0.60800   0.16433   0.01267  Uiso   1.00
H7     H     0.34700   0.13600   0.27100   0.01267  Uiso   1.00
H8     H     0.60800   0.09600   0.16900   0.01267  Uiso   1.00
H9     H     0.86400   0.21100   0.60433   0.01267  Uiso   1.00
H10    H     0.90400   0.51200   0.50233   0.01267  Uiso   1.00
H11    H     0.78900   0.65300   0.93767   0.01267  Uiso   1.00
H12    H     0.48800   0.39200   0.83567   0.01267  Uiso   1.00
C1     C     0.47280   0.94450   0.89330   0.01267  Uiso   1.00
C2     C     0.31480   0.94260   0.89440   0.01267  Uiso   1.00
C3     C     0.47170   0.52720   0.55997   0.01267  Uiso   1.00
C4     C     0.62780   0.68520   0.56107   0.01267  Uiso   1.00
C5     C     0.05550   0.52830   0.22663   0.01267  Uiso   1.00
C6     C     0.05740   0.37220   0.22773   0.01267  Uiso   1.00
C7     C     0.52830   0.05550   0.10670   0.01267  Uiso   1.00
C8     C     0.37220   0.05740   0.10560   0.01267  Uiso   1.00
C9     C     0.94450   0.47280   0.44003   0.01267  Uiso   1.00
C10    C     0.94260   0.31480   0.43893   0.01267  Uiso   1.00
C11    C     0.52720   0.47170   0.77337   0.01267  Uiso   1.00
C12    C     0.68520   0.62780   0.77227   0.01267  Uiso   1.00
C13    C     0.26330   0.00000   0.00000   0.01267  Uiso   1.00
C14    C     0.74740   0.00000   0.00000   0.01267  Uiso   1.00
C15    C     0.57910   0.00000   0.00000   0.01267  Uiso   1.00
C16    C     0.73670   0.73670   0.66667   0.01267  Uiso   1.00
C17    C     0.25260   0.25260   0.66667   0.01267  Uiso   1.00
C18    C     0.42090   0.42090   0.66667   0.01267  Uiso   1.00
C19    C     1.00000   0.26330   0.33333   0.01267  Uiso   1.00
C20    C     0.00000   0.74740   0.33333   0.01267  Uiso   1.00
C21    C     0.00000   0.57910   0.33333   0.01267  Uiso   1.00
O1     O     0.19590   0.88550   0.79820   0.01267  Uiso   1.00
O2     O     0.82900   0.03210   0.89690   0.01267  Uiso   1.00
O3     O     0.68960   0.80410   0.46487   0.01267  Uiso   1.00
O4     O     0.20310   0.17100   0.56357   0.01267  Uiso   1.00
O5     O     0.11450   0.31040   0.13153   0.01267  Uiso   1.00
O6     O     0.96790   0.79690   0.23023   0.01267  Uiso   1.00
O7     O     0.31040   0.11450   0.20180   0.01267  Uiso   1.00
O8     O     0.79690   0.96790   0.10310   0.01267  Uiso   1.00
O9     O     0.88550   0.19590   0.53513   0.01267  Uiso   1.00
O10    O     0.03210   0.82900   0.43643   0.01267  Uiso   1.00
O11    O     0.80410   0.68960   0.86847   0.01267  Uiso   1.00
O12    O     0.17100   0.20310   0.76977   0.01267  Uiso   1.00
O13    O     0.11330   0.00000   0.00000   0.01267  Uiso   1.00
O14    O     0.88670   0.88670   0.66667   0.01267  Uiso   1.00
O15    O     0.00000   0.11330   0.33333   0.01267  Uiso   1.00
