data_GEPDEM_clean
_audit_creation_date              2014-07-02
_audit_creation_method            'Materials Studio'
_symmetry_space_group_name_H-M    'P1'
_symmetry_Int_Tables_number       1
_symmetry_cell_setting            triclinic
loop_
_symmetry_equiv_pos_as_xyz
  x,y,z
_cell_length_a                    9.5731
_cell_length_b                    9.5731
_cell_length_c                    16.3828
_cell_angle_alpha                 87.2580
_cell_angle_beta                  74.7977
_cell_angle_gamma                 117.9940
loop_
_atom_site_label
_atom_site_type_symbol
_atom_site_fract_x
_atom_site_fract_y
_atom_site_fract_z
_atom_site_U_iso_or_equiv
_atom_site_adp_type
_atom_site_occupancy
Zn1    Zn    0.32775   0.44011   0.67790   0.01267  Uiso   1.00
Zn2    Zn    0.61801   0.00565   0.82210   0.01267  Uiso   1.00
Zn3    Zn    0.67225   0.55989   0.32210   0.01267  Uiso   1.00
Zn4    Zn    0.38199   0.99435   0.17790   0.01267  Uiso   1.00
H1     H     0.87870   0.79510   0.78460   0.01267  Uiso   1.00
H2     H     0.01930   0.85920   0.69450   0.01267  Uiso   1.00
H3     H     0.68200   0.46120   0.57180   0.01267  Uiso   1.00
H4     H     0.58960   0.65920   0.76440   0.01267  Uiso   1.00
H5     H     0.93170   0.25810   0.95480   0.01267  Uiso   1.00
H6     H     0.07970   0.66330   0.71540   0.01267  Uiso   1.00
H7     H     0.05370   0.71380   0.80550   0.01267  Uiso   1.00
H8     H     0.53300   0.25380   0.92820   0.01267  Uiso   1.00
H9     H     0.92360   0.35400   0.73560   0.01267  Uiso   1.00
H10    H     0.71290   0.88650   0.54520   0.01267  Uiso   1.00
H11    H     0.12130   0.20490   0.21540   0.01267  Uiso   1.00
H12    H     0.98070   0.14080   0.30550   0.01267  Uiso   1.00
H13    H     0.31800   0.53880   0.42820   0.01267  Uiso   1.00
H14    H     0.41040   0.34080   0.23560   0.01267  Uiso   1.00
H15    H     0.06830   0.74190   0.04520   0.01267  Uiso   1.00
H16    H     0.92030   0.33670   0.28460   0.01267  Uiso   1.00
H17    H     0.94630   0.28620   0.19450   0.01267  Uiso   1.00
H18    H     0.46700   0.74620   0.07180   0.01267  Uiso   1.00
H19    H     0.07640   0.64600   0.26440   0.01267  Uiso   1.00
H20    H     0.28710   0.11350   0.45480   0.01267  Uiso   1.00
C1     C     0.92900   0.76240   0.73540   0.01267  Uiso   1.00
C2     C     0.69680   0.52160   0.61480   0.01267  Uiso   1.00
C3     C     0.64290   0.62770   0.71940   0.01267  Uiso   1.00
C4     C     0.11310   0.48990   0.92920   0.01267  Uiso   1.00
C5     C     0.15590   0.63700   0.95610   0.01267  Uiso   1.00
C6     C     0.95950   0.35570   0.97280   0.01267  Uiso   1.00
C7     C     0.22360   0.46300   0.85400   0.01267  Uiso   1.00
C8     C     0.32160   0.78580   0.91380   0.01267  Uiso   1.00
C9     C     0.99780   0.66440   0.76460   0.01267  Uiso   1.00
C10    C     0.63640   0.31160   0.88520   0.01267  Uiso   1.00
C11    C     0.84710   0.36230   0.78060   0.01267  Uiso   1.00
C12    C     0.91910   0.04230   0.57080   0.01267  Uiso   1.00
C13    C     0.09310   0.11200   0.54390   0.01267  Uiso   1.00
C14    C     0.82850   0.93230   0.52720   0.01267  Uiso   1.00
C15    C     0.81700   0.07760   0.64600   0.01267  Uiso   1.00
C16    C     0.19960   0.23540   0.58620   0.01267  Uiso   1.00
C17    C     0.07100   0.23760   0.26460   0.01267  Uiso   1.00
C18    C     0.30320   0.47840   0.38520   0.01267  Uiso   1.00
C19    C     0.35710   0.37230   0.28060   0.01267  Uiso   1.00
C20    C     0.88690   0.51010   0.07080   0.01267  Uiso   1.00
C21    C     0.84410   0.36300   0.04390   0.01267  Uiso   1.00
C22    C     0.04050   0.64430   0.02720   0.01267  Uiso   1.00
C23    C     0.77640   0.53700   0.14600   0.01267  Uiso   1.00
C24    C     0.67840   0.21420   0.08620   0.01267  Uiso   1.00
C25    C     0.00220   0.33560   0.23540   0.01267  Uiso   1.00
C26    C     0.36360   0.68840   0.11480   0.01267  Uiso   1.00
C27    C     0.15290   0.63770   0.21940   0.01267  Uiso   1.00
C28    C     0.08090   0.95770   0.42920   0.01267  Uiso   1.00
C29    C     0.90690   0.88800   0.45610   0.01267  Uiso   1.00
C30    C     0.17150   0.06770   0.47280   0.01267  Uiso   1.00
C31    C     0.18300   0.92240   0.35400   0.01267  Uiso   1.00
C32    C     0.80040   0.76460   0.41380   0.01267  Uiso   1.00
N1     N     0.80460   0.67110   0.69510   0.01267  Uiso   1.00
N2     N     0.83980   0.60190   0.62770   0.01267  Uiso   1.00
N3     N     0.57060   0.53320   0.66960   0.01267  Uiso   1.00
N4     N     0.86620   0.49970   0.80490   0.01267  Uiso   1.00
N5     N     0.72960   0.46750   0.87230   0.01267  Uiso   1.00
N6     N     0.70280   0.24020   0.83040   0.01267  Uiso   1.00
N7     N     0.19540   0.32890   0.30490   0.01267  Uiso   1.00
N8     N     0.16020   0.39810   0.37230   0.01267  Uiso   1.00
N9     N     0.42940   0.46680   0.33040   0.01267  Uiso   1.00
N10    N     0.13380   0.50030   0.19510   0.01267  Uiso   1.00
N11    N     0.27040   0.53250   0.12770   0.01267  Uiso   1.00
N12    N     0.29720   0.75980   0.16960   0.01267  Uiso   1.00
O1     O     0.21590   0.49490   0.78100   0.01267  Uiso   1.00
O2     O     0.30310   0.40050   0.87020   0.01267  Uiso   1.00
O3     O     0.42950   0.77430   0.85400   0.01267  Uiso   1.00
O4     O     0.35450   0.91750   0.93800   0.01267  Uiso   1.00
O5     O     0.77590   0.99690   0.71900   0.01267  Uiso   1.00
O6     O     0.77070   0.17330   0.62980   0.01267  Uiso   1.00
O7     O     0.12830   0.28350   0.64600   0.01267  Uiso   1.00
O8     O     0.35550   0.29250   0.56200   0.01267  Uiso   1.00
O9     O     0.78410   0.50510   0.21900   0.01267  Uiso   1.00
O10    O     0.69690   0.59950   0.12980   0.01267  Uiso   1.00
O11    O     0.57050   0.22570   0.14600   0.01267  Uiso   1.00
O12    O     0.64550   0.08250   0.06200   0.01267  Uiso   1.00
O13    O     0.22410   0.00310   0.28100   0.01267  Uiso   1.00
O14    O     0.22930   0.82670   0.37020   0.01267  Uiso   1.00
O15    O     0.87170   0.71650   0.35400   0.01267  Uiso   1.00
O16    O     0.64450   0.70750   0.43800   0.01267  Uiso   1.00
