data_GERPUP_clean
_audit_creation_date              2014-07-02
_audit_creation_method            'Materials Studio'
_symmetry_space_group_name_H-M    'P1'
_symmetry_Int_Tables_number       1
_symmetry_cell_setting            triclinic
loop_
_symmetry_equiv_pos_as_xyz
  x,y,z
_cell_length_a                    14.8650
_cell_length_b                    14.9830
_cell_length_c                    14.9830
_cell_angle_alpha                 120.0000
_cell_angle_beta                  90.0000
_cell_angle_gamma                 90.0000
loop_
_atom_site_label
_atom_site_type_symbol
_atom_site_fract_x
_atom_site_fract_y
_atom_site_fract_z
_atom_site_U_iso_or_equiv
_atom_site_adp_type
_atom_site_occupancy
Sm1    Sm    0.75000   0.33333   0.66666   0.01267  Uiso   1.00
Sm2    Sm    0.75000   0.66667   0.33334   0.01267  Uiso   1.00
Sm3    Sm    0.25000   0.66667   0.33334   0.01267  Uiso   1.00
Sm4    Sm    0.25000   0.33333   0.66666   0.01267  Uiso   1.00
Cu1    Cu    0.00000   0.50000   0.50000   0.01267  Uiso   1.00
Cu2    Cu    0.00000   0.00000   0.50000   0.01267  Uiso   1.00
Cu3    Cu    0.00000   0.50000   0.00000   0.01267  Uiso   1.00
Cu4    Cu    0.50000   0.00000   0.50000   0.01267  Uiso   1.00
Cu5    Cu    0.50000   0.50000   0.50000   0.01267  Uiso   1.00
Cu6    Cu    0.50000   0.50000   0.00000   0.01267  Uiso   1.00
H1     H     0.83910   0.63260   0.79050   0.01267  Uiso   1.00
H2     H     0.76270   0.62420   0.71410   0.01267  Uiso   1.00
H3     H     0.83910   0.15790   0.36740   0.01267  Uiso   1.00
H4     H     0.76270   0.08990   0.37580   0.01267  Uiso   1.00
H5     H     0.83910   0.20950   0.84210   0.01267  Uiso   1.00
H6     H     0.76270   0.28590   0.91010   0.01267  Uiso   1.00
H7     H     0.83910   0.36740   0.20950   0.01267  Uiso   1.00
H8     H     0.76270   0.37580   0.28590   0.01267  Uiso   1.00
H9     H     0.83910   0.84210   0.63260   0.01267  Uiso   1.00
H10    H     0.76270   0.91010   0.62420   0.01267  Uiso   1.00
H11    H     0.83910   0.79050   0.15790   0.01267  Uiso   1.00
H12    H     0.76270   0.71410   0.08990   0.01267  Uiso   1.00
H13    H     0.66090   0.84210   0.20950   0.01267  Uiso   1.00
H14    H     0.73730   0.91010   0.28590   0.01267  Uiso   1.00
H15    H     0.66090   0.79050   0.63260   0.01267  Uiso   1.00
H16    H     0.73730   0.71410   0.62420   0.01267  Uiso   1.00
H17    H     0.66090   0.36740   0.15790   0.01267  Uiso   1.00
H18    H     0.73730   0.37580   0.08990   0.01267  Uiso   1.00
H19    H     0.66090   0.15790   0.79050   0.01267  Uiso   1.00
H20    H     0.73730   0.08990   0.71410   0.01267  Uiso   1.00
H21    H     0.66090   0.20950   0.36740   0.01267  Uiso   1.00
H22    H     0.73730   0.28590   0.37580   0.01267  Uiso   1.00
H23    H     0.66090   0.63260   0.84210   0.01267  Uiso   1.00
H24    H     0.73730   0.62420   0.91010   0.01267  Uiso   1.00
H25    H     0.16090   0.36740   0.20950   0.01267  Uiso   1.00
H26    H     0.23730   0.37580   0.28590   0.01267  Uiso   1.00
H27    H     0.16090   0.84210   0.63260   0.01267  Uiso   1.00
H28    H     0.23730   0.91010   0.62420   0.01267  Uiso   1.00
H29    H     0.16090   0.79050   0.15790   0.01267  Uiso   1.00
H30    H     0.23730   0.71410   0.08990   0.01267  Uiso   1.00
H31    H     0.16090   0.63260   0.79050   0.01267  Uiso   1.00
H32    H     0.23730   0.62420   0.71410   0.01267  Uiso   1.00
H33    H     0.16090   0.15790   0.36740   0.01267  Uiso   1.00
H34    H     0.23730   0.08990   0.37580   0.01267  Uiso   1.00
H35    H     0.16090   0.20950   0.84210   0.01267  Uiso   1.00
H36    H     0.23730   0.28590   0.91010   0.01267  Uiso   1.00
H37    H     0.33910   0.15790   0.79050   0.01267  Uiso   1.00
H38    H     0.26270   0.08990   0.71410   0.01267  Uiso   1.00
H39    H     0.33910   0.20950   0.36740   0.01267  Uiso   1.00
H40    H     0.26270   0.28590   0.37580   0.01267  Uiso   1.00
H41    H     0.33910   0.63260   0.84210   0.01267  Uiso   1.00
H42    H     0.26270   0.62420   0.91010   0.01267  Uiso   1.00
H43    H     0.33910   0.84210   0.20950   0.01267  Uiso   1.00
H44    H     0.26270   0.91010   0.28590   0.01267  Uiso   1.00
H45    H     0.33910   0.79050   0.63260   0.01267  Uiso   1.00
H46    H     0.26270   0.71410   0.62420   0.01267  Uiso   1.00
H47    H     0.33910   0.36740   0.15790   0.01267  Uiso   1.00
H48    H     0.26270   0.37580   0.08990   0.01267  Uiso   1.00
C1     C     0.86000   0.51400   0.64350   0.01267  Uiso   1.00
C2     C     0.80170   0.58470   0.73350   0.01267  Uiso   1.00
C3     C     0.86000   0.12950   0.48600   0.01267  Uiso   1.00
C4     C     0.80170   0.14880   0.41530   0.01267  Uiso   1.00
C5     C     0.86000   0.35650   0.87050   0.01267  Uiso   1.00
C6     C     0.80170   0.26650   0.85120   0.01267  Uiso   1.00
C7     C     0.86000   0.48600   0.35650   0.01267  Uiso   1.00
C8     C     0.80170   0.41530   0.26650   0.01267  Uiso   1.00
C9     C     0.86000   0.87050   0.51400   0.01267  Uiso   1.00
C10    C     0.80170   0.85120   0.58470   0.01267  Uiso   1.00
C11    C     0.86000   0.64350   0.12950   0.01267  Uiso   1.00
C12    C     0.80170   0.73350   0.14880   0.01267  Uiso   1.00
C13    C     0.64000   0.87050   0.35650   0.01267  Uiso   1.00
C14    C     0.69830   0.85120   0.26650   0.01267  Uiso   1.00
C15    C     0.64000   0.64350   0.51400   0.01267  Uiso   1.00
C16    C     0.69830   0.73350   0.58470   0.01267  Uiso   1.00
C17    C     0.64000   0.48600   0.12950   0.01267  Uiso   1.00
C18    C     0.69830   0.41530   0.14880   0.01267  Uiso   1.00
C19    C     0.64000   0.12950   0.64350   0.01267  Uiso   1.00
C20    C     0.69830   0.14880   0.73350   0.01267  Uiso   1.00
C21    C     0.64000   0.35650   0.48600   0.01267  Uiso   1.00
C22    C     0.69830   0.26650   0.41530   0.01267  Uiso   1.00
C23    C     0.64000   0.51400   0.87050   0.01267  Uiso   1.00
C24    C     0.69830   0.58470   0.85120   0.01267  Uiso   1.00
C25    C     0.14000   0.48600   0.35650   0.01267  Uiso   1.00
C26    C     0.19830   0.41530   0.26650   0.01267  Uiso   1.00
C27    C     0.14000   0.87050   0.51400   0.01267  Uiso   1.00
C28    C     0.19830   0.85120   0.58470   0.01267  Uiso   1.00
C29    C     0.14000   0.64350   0.12950   0.01267  Uiso   1.00
C30    C     0.19830   0.73350   0.14880   0.01267  Uiso   1.00
C31    C     0.14000   0.51400   0.64350   0.01267  Uiso   1.00
C32    C     0.19830   0.58470   0.73350   0.01267  Uiso   1.00
C33    C     0.14000   0.12950   0.48600   0.01267  Uiso   1.00
C34    C     0.19830   0.14880   0.41530   0.01267  Uiso   1.00
C35    C     0.14000   0.35650   0.87050   0.01267  Uiso   1.00
C36    C     0.19830   0.26650   0.85120   0.01267  Uiso   1.00
C37    C     0.36000   0.12950   0.64350   0.01267  Uiso   1.00
C38    C     0.30170   0.14880   0.73350   0.01267  Uiso   1.00
C39    C     0.36000   0.35650   0.48600   0.01267  Uiso   1.00
C40    C     0.30170   0.26650   0.41530   0.01267  Uiso   1.00
C41    C     0.36000   0.51400   0.87050   0.01267  Uiso   1.00
C42    C     0.30170   0.58470   0.85120   0.01267  Uiso   1.00
C43    C     0.36000   0.87050   0.35650   0.01267  Uiso   1.00
C44    C     0.30170   0.85120   0.26650   0.01267  Uiso   1.00
C45    C     0.36000   0.64350   0.51400   0.01267  Uiso   1.00
C46    C     0.30170   0.73350   0.58470   0.01267  Uiso   1.00
C47    C     0.36000   0.48600   0.12950   0.01267  Uiso   1.00
C48    C     0.30170   0.41530   0.14880   0.01267  Uiso   1.00
O1     O     0.90760   0.55680   0.60740   0.01267  Uiso   1.00
O2     O     0.85730   0.41960   0.61320   0.01267  Uiso   1.00
O3     O     0.90760   0.05060   0.44320   0.01267  Uiso   1.00
O4     O     0.85730   0.19360   0.58040   0.01267  Uiso   1.00
O5     O     0.90760   0.39260   0.94940   0.01267  Uiso   1.00
O6     O     0.85730   0.38680   0.80640   0.01267  Uiso   1.00
O7     O     0.90760   0.44320   0.39260   0.01267  Uiso   1.00
O8     O     0.85730   0.58040   0.38680   0.01267  Uiso   1.00
O9     O     0.90760   0.94940   0.55680   0.01267  Uiso   1.00
O10    O     0.85730   0.80640   0.41960   0.01267  Uiso   1.00
O11    O     0.90760   0.60740   0.05060   0.01267  Uiso   1.00
O12    O     0.85730   0.61320   0.19360   0.01267  Uiso   1.00
O13    O     0.59240   0.94940   0.39260   0.01267  Uiso   1.00
O14    O     0.64270   0.80640   0.38680   0.01267  Uiso   1.00
O15    O     0.59240   0.60740   0.55680   0.01267  Uiso   1.00
O16    O     0.64270   0.61320   0.41960   0.01267  Uiso   1.00
O17    O     0.59240   0.44320   0.05060   0.01267  Uiso   1.00
O18    O     0.64270   0.58040   0.19360   0.01267  Uiso   1.00
O19    O     0.59240   0.05060   0.60740   0.01267  Uiso   1.00
O20    O     0.64270   0.19360   0.61320   0.01267  Uiso   1.00
O21    O     0.59240   0.39260   0.44320   0.01267  Uiso   1.00
O22    O     0.64270   0.38680   0.58040   0.01267  Uiso   1.00
O23    O     0.59240   0.55680   0.94940   0.01267  Uiso   1.00
O24    O     0.64270   0.41960   0.80640   0.01267  Uiso   1.00
O25    O     0.09240   0.44320   0.39260   0.01267  Uiso   1.00
O26    O     0.14270   0.58040   0.38680   0.01267  Uiso   1.00
O27    O     0.09240   0.94940   0.55680   0.01267  Uiso   1.00
O28    O     0.14270   0.80640   0.41960   0.01267  Uiso   1.00
O29    O     0.09240   0.60740   0.05060   0.01267  Uiso   1.00
O30    O     0.14270   0.61320   0.19360   0.01267  Uiso   1.00
O31    O     0.09240   0.55680   0.60740   0.01267  Uiso   1.00
O32    O     0.14270   0.41960   0.61320   0.01267  Uiso   1.00
O33    O     0.09240   0.05060   0.44320   0.01267  Uiso   1.00
O34    O     0.14270   0.19360   0.58040   0.01267  Uiso   1.00
O35    O     0.09240   0.39260   0.94940   0.01267  Uiso   1.00
O36    O     0.14270   0.38680   0.80640   0.01267  Uiso   1.00
O37    O     0.40760   0.05060   0.60740   0.01267  Uiso   1.00
O38    O     0.35730   0.19360   0.61320   0.01267  Uiso   1.00
O39    O     0.40760   0.39260   0.44320   0.01267  Uiso   1.00
O40    O     0.35730   0.38680   0.58040   0.01267  Uiso   1.00
O41    O     0.40760   0.55680   0.94940   0.01267  Uiso   1.00
O42    O     0.35730   0.41960   0.80640   0.01267  Uiso   1.00
O43    O     0.40760   0.94940   0.39260   0.01267  Uiso   1.00
O44    O     0.35730   0.80640   0.38680   0.01267  Uiso   1.00
O45    O     0.40760   0.60740   0.55680   0.01267  Uiso   1.00
O46    O     0.35730   0.61320   0.41960   0.01267  Uiso   1.00
O47    O     0.40760   0.44320   0.05060   0.01267  Uiso   1.00
O48    O     0.35730   0.58040   0.19360   0.01267  Uiso   1.00
O49    O     0.75000   0.52710   0.76355   0.01267  Uiso   1.00
O50    O     0.75000   0.23645   0.47290   0.01267  Uiso   1.00
O51    O     0.75000   0.23645   0.76355   0.01267  Uiso   1.00
O52    O     0.75000   0.47290   0.23645   0.01267  Uiso   1.00
O53    O     0.75000   0.76355   0.52710   0.01267  Uiso   1.00
O54    O     0.75000   0.76355   0.23645   0.01267  Uiso   1.00
O55    O     0.25000   0.47290   0.23645   0.01267  Uiso   1.00
O56    O     0.25000   0.76355   0.52710   0.01267  Uiso   1.00
O57    O     0.25000   0.76355   0.23645   0.01267  Uiso   1.00
O58    O     0.25000   0.52710   0.76355   0.01267  Uiso   1.00
O59    O     0.25000   0.23645   0.47290   0.01267  Uiso   1.00
O60    O     0.25000   0.23645   0.76355   0.01267  Uiso   1.00
