data_image0
_cell_length_a       14.303
_cell_length_b       18.7159
_cell_length_c       17.0511
_cell_angle_alpha    90
_cell_angle_beta     102.118
_cell_angle_gamma    90

_symmetry_space_group_name_H-M    "P 1"
_symmetry_int_tables_number       1

loop_
  _symmetry_equiv_pos_as_xyz
  'x, y, z'

loop_
  _atom_site_label
  _atom_site_occupancy
  _atom_site_fract_x
  _atom_site_fract_y
  _atom_site_fract_z
  _atom_site_thermal_displace_type
  _atom_site_B_iso_or_equiv
  _atom_site_type_symbol
  P1       1.0000 0.50998  0.66327  0.30974  Biso   1.000  P
  P2       1.0000 0.72302  0.75539  0.50144  Biso   1.000  P
  S1       1.0000 0.00730  0.53030  0.70360  Biso   1.000  S
  C1       1.0000 0.70890  0.81360  0.27480  Biso   1.000  C
  H1       1.0000 0.69850  0.84590  0.31660  Biso   1.000  H
  H2       1.0000 0.67620  0.83300  0.22360  Biso   1.000  H
  C2       1.0000 0.68480  0.69130  0.22350  Biso   1.000  C
  H3       1.0000 0.65120  0.70780  0.17120  Biso   1.000  H
  H4       1.0000 0.66030  0.64440  0.23280  Biso   1.000  H
  C3       1.0000 0.56390  0.74870  0.28930  Biso   1.000  C
  H5       1.0000 0.52930  0.76710  0.23830  Biso   1.000  H
  H6       1.0000 0.55700  0.78280  0.33050  Biso   1.000  H
  C4       1.0000 0.79900  0.68650  0.73710  Biso   1.000  C
  H7       1.0000 0.86500  0.70240  0.74950  Biso   1.000  H
  H8       1.0000 0.79860  0.63630  0.72270  Biso   1.000  H
  C5       1.0000 0.74350  0.80520  0.68920  Biso   1.000  C
  H9       1.0000 0.70560  0.83180  0.64490  Biso   1.000  H
  H10      1.0000 0.80800  0.82410  0.69990  Biso   1.000  H
  C6       1.0000 0.78770  0.71530  0.59470  Biso   1.000  C
  H11      1.0000 0.79120  0.66410  0.58660  Biso   1.000  H
  H12      1.0000 0.85250  0.73360  0.60590  Biso   1.000  H
  N1       1.0000 0.66790  0.74220  0.28690  Biso   1.000  N
  H13      1.0000 0.69930  0.72510  0.33530  Biso   1.000  H
  N2       1.0000 0.74510  0.72820  0.66730  Biso   1.000  N
  H14      1.0000 0.68370  0.71200  0.65590  Biso   1.000  H
  O1       1.0000 0.46770  0.62990  0.23030  Biso   1.000  O
  O2       1.0000 0.43640  0.68500  0.35940  Biso   1.000  O
  O3       1.0000 0.58820  0.62070  0.36350  Biso   1.000  O
  O4       1.0000 0.74160  0.83560  0.50610  Biso   1.000  O
  O5       1.0000 0.76650  0.71940  0.43790  Biso   1.000  O
  O6       1.0000 0.61780  0.73950  0.49630  Biso   1.000  O
  O7       1.0000 0.62920  0.56550  0.52500  Biso   1.000  O
  O8       1.0000 0.99400  0.60220  0.67040  Biso   1.000  O
  O9       1.0000 0.06100  0.54540  0.77730  Biso   1.000  O
  P3       1.0000 0.00998  0.16327  0.80974  Biso   1.000  P
  P4       1.0000 0.22302  0.25539  0.00144  Biso   1.000  P
  S2       1.0000 0.50730  0.03030  0.20360  Biso   1.000  S
  C7       1.0000 0.20890  0.31360  0.77480  Biso   1.000  C
  H15      1.0000 0.19850  0.34590  0.81660  Biso   1.000  H
  H16      1.0000 0.17620  0.33300  0.72360  Biso   1.000  H
  C8       1.0000 0.18480  0.19130  0.72350  Biso   1.000  C
  H17      1.0000 0.15120  0.20780  0.67120  Biso   1.000  H
  H18      1.0000 0.16030  0.14440  0.73280  Biso   1.000  H
  C9       1.0000 0.06390  0.24870  0.78930  Biso   1.000  C
  H19      1.0000 0.02930  0.26710  0.73830  Biso   1.000  H
  H20      1.0000 0.05700  0.28280  0.83050  Biso   1.000  H
  C10      1.0000 0.29900  0.18650  0.23710  Biso   1.000  C
  H21      1.0000 0.36500  0.20240  0.24950  Biso   1.000  H
  H22      1.0000 0.29860  0.13630  0.22270  Biso   1.000  H
  C11      1.0000 0.24350  0.30520  0.18920  Biso   1.000  C
  H23      1.0000 0.20560  0.33180  0.14490  Biso   1.000  H
  H24      1.0000 0.30800  0.32410  0.19990  Biso   1.000  H
  C12      1.0000 0.28770  0.21530  0.09470  Biso   1.000  C
  H25      1.0000 0.29120  0.16410  0.08660  Biso   1.000  H
  H26      1.0000 0.35250  0.23360  0.10590  Biso   1.000  H
  N3       1.0000 0.16790  0.24220  0.78690  Biso   1.000  N
  H27      1.0000 0.19930  0.22510  0.83530  Biso   1.000  H
  N4       1.0000 0.24510  0.22820  0.16730  Biso   1.000  N
  H28      1.0000 0.18370  0.21200  0.15590  Biso   1.000  H
  O10      1.0000 0.96770  0.12990  0.73030  Biso   1.000  O
  O11      1.0000 0.93640  0.18500  0.85940  Biso   1.000  O
  O12      1.0000 0.08820  0.12070  0.86350  Biso   1.000  O
  O13      1.0000 0.24160  0.33560  0.00610  Biso   1.000  O
  O14      1.0000 0.26650  0.21940  0.93790  Biso   1.000  O
  O15      1.0000 0.11780  0.23950  0.99630  Biso   1.000  O
  O16      1.0000 0.12920  0.06550  0.02500  Biso   1.000  O
  O17      1.0000 0.49400  0.10220  0.17040  Biso   1.000  O
  O18      1.0000 0.56100  0.04540  0.27730  Biso   1.000  O
  P5       1.0000 0.49002  0.66327  0.69026  Biso   1.000  P
  P6       1.0000 0.27698  0.75539  0.49856  Biso   1.000  P
  S3       1.0000 0.99270  0.53030  0.29640  Biso   1.000  S
  C13      1.0000 0.29110  0.81360  0.72520  Biso   1.000  C
  H29      1.0000 0.30150  0.84590  0.68340  Biso   1.000  H
  H30      1.0000 0.32380  0.83300  0.77640  Biso   1.000  H
  C14      1.0000 0.31520  0.69130  0.77650  Biso   1.000  C
  H31      1.0000 0.34880  0.70780  0.82880  Biso   1.000  H
  H32      1.0000 0.33970  0.64440  0.76720  Biso   1.000  H
  C15      1.0000 0.43610  0.74870  0.71070  Biso   1.000  C
  H33      1.0000 0.47070  0.76710  0.76170  Biso   1.000  H
  H34      1.0000 0.44300  0.78280  0.66950  Biso   1.000  H
  C16      1.0000 0.20100  0.68650  0.26290  Biso   1.000  C
  H35      1.0000 0.13500  0.70240  0.25050  Biso   1.000  H
  H36      1.0000 0.20140  0.63630  0.27730  Biso   1.000  H
  C17      1.0000 0.25650  0.80520  0.31080  Biso   1.000  C
  H37      1.0000 0.29440  0.83180  0.35510  Biso   1.000  H
  H38      1.0000 0.19200  0.82410  0.30010  Biso   1.000  H
  C18      1.0000 0.21230  0.71530  0.40530  Biso   1.000  C
  H39      1.0000 0.20880  0.66410  0.41340  Biso   1.000  H
  H40      1.0000 0.14750  0.73360  0.39410  Biso   1.000  H
  N5       1.0000 0.33210  0.74220  0.71310  Biso   1.000  N
  H41      1.0000 0.30070  0.72510  0.66470  Biso   1.000  H
  N6       1.0000 0.25490  0.72820  0.33270  Biso   1.000  N
  H42      1.0000 0.31630  0.71200  0.34410  Biso   1.000  H
  O19      1.0000 0.53230  0.62990  0.76970  Biso   1.000  O
  O20      1.0000 0.56360  0.68500  0.64060  Biso   1.000  O
  O21      1.0000 0.41180  0.62070  0.63650  Biso   1.000  O
  O22      1.0000 0.25840  0.83560  0.49390  Biso   1.000  O
  O23      1.0000 0.23350  0.71940  0.56210  Biso   1.000  O
  O24      1.0000 0.38220  0.73950  0.50370  Biso   1.000  O
  O25      1.0000 0.37080  0.56550  0.47500  Biso   1.000  O
  O26      1.0000 0.00600  0.60220  0.32960  Biso   1.000  O
  O27      1.0000 0.93900  0.54540  0.22270  Biso   1.000  O
  P7       1.0000 0.99002  0.16327  0.19026  Biso   1.000  P
  P8       1.0000 0.77698  0.25539  0.99856  Biso   1.000  P
  S4       1.0000 0.49270  0.03030  0.79640  Biso   1.000  S
  C19      1.0000 0.79110  0.31360  0.22520  Biso   1.000  C
  H43      1.0000 0.80150  0.34590  0.18340  Biso   1.000  H
  H44      1.0000 0.82380  0.33300  0.27640  Biso   1.000  H
  C20      1.0000 0.81520  0.19130  0.27650  Biso   1.000  C
  H45      1.0000 0.84880  0.20780  0.32880  Biso   1.000  H
  H46      1.0000 0.83970  0.14440  0.26720  Biso   1.000  H
  C21      1.0000 0.93610  0.24870  0.21070  Biso   1.000  C
  H47      1.0000 0.97070  0.26710  0.26170  Biso   1.000  H
  H48      1.0000 0.94300  0.28280  0.16950  Biso   1.000  H
  C22      1.0000 0.70100  0.18650  0.76290  Biso   1.000  C
  H49      1.0000 0.63500  0.20240  0.75050  Biso   1.000  H
  H50      1.0000 0.70140  0.13630  0.77730  Biso   1.000  H
  C23      1.0000 0.75650  0.30520  0.81080  Biso   1.000  C
  H51      1.0000 0.79440  0.33180  0.85510  Biso   1.000  H
  H52      1.0000 0.69200  0.32410  0.80010  Biso   1.000  H
  C24      1.0000 0.71230  0.21530  0.90530  Biso   1.000  C
  H53      1.0000 0.70880  0.16410  0.91340  Biso   1.000  H
  H54      1.0000 0.64750  0.23360  0.89410  Biso   1.000  H
  N7       1.0000 0.83210  0.24220  0.21310  Biso   1.000  N
  H55      1.0000 0.80070  0.22510  0.16470  Biso   1.000  H
  N8       1.0000 0.75490  0.22820  0.83270  Biso   1.000  N
  H56      1.0000 0.81630  0.21200  0.84410  Biso   1.000  H
  O28      1.0000 0.03230  0.12990  0.26970  Biso   1.000  O
  O29      1.0000 0.06360  0.18500  0.14060  Biso   1.000  O
  O30      1.0000 0.91180  0.12070  0.13650  Biso   1.000  O
  O31      1.0000 0.75840  0.33560  0.99390  Biso   1.000  O
  O32      1.0000 0.73350  0.21940  0.06210  Biso   1.000  O
  O33      1.0000 0.88220  0.23950  0.00370  Biso   1.000  O
  O34      1.0000 0.87080  0.06550  0.97500  Biso   1.000  O
  O35      1.0000 0.50600  0.10220  0.82960  Biso   1.000  O
  O36      1.0000 0.43900  0.04540  0.72270  Biso   1.000  O
  P9       1.0000 0.49002  0.33673  0.69026  Biso   1.000  P
  P10      1.0000 0.27698  0.24461  0.49856  Biso   1.000  P
  S5       1.0000 0.99270  0.46970  0.29640  Biso   1.000  S
  C25      1.0000 0.29110  0.18640  0.72520  Biso   1.000  C
  H57      1.0000 0.30150  0.15410  0.68340  Biso   1.000  H
  H58      1.0000 0.32380  0.16700  0.77640  Biso   1.000  H
  C26      1.0000 0.31520  0.30870  0.77650  Biso   1.000  C
  H59      1.0000 0.34880  0.29220  0.82880  Biso   1.000  H
  H60      1.0000 0.33970  0.35560  0.76720  Biso   1.000  H
  C27      1.0000 0.43610  0.25130  0.71070  Biso   1.000  C
  H61      1.0000 0.47070  0.23290  0.76170  Biso   1.000  H
  H62      1.0000 0.44300  0.21720  0.66950  Biso   1.000  H
  C28      1.0000 0.20100  0.31350  0.26290  Biso   1.000  C
  H63      1.0000 0.13500  0.29760  0.25050  Biso   1.000  H
  H64      1.0000 0.20140  0.36370  0.27730  Biso   1.000  H
  C29      1.0000 0.25650  0.19480  0.31080  Biso   1.000  C
  H65      1.0000 0.29440  0.16820  0.35510  Biso   1.000  H
  H66      1.0000 0.19200  0.17590  0.30010  Biso   1.000  H
  C30      1.0000 0.21230  0.28470  0.40530  Biso   1.000  C
  H67      1.0000 0.20880  0.33590  0.41340  Biso   1.000  H
  H68      1.0000 0.14750  0.26640  0.39410  Biso   1.000  H
  N9       1.0000 0.33210  0.25780  0.71310  Biso   1.000  N
  H69      1.0000 0.30070  0.27490  0.66470  Biso   1.000  H
  N10      1.0000 0.25490  0.27180  0.33270  Biso   1.000  N
  H70      1.0000 0.31630  0.28800  0.34410  Biso   1.000  H
  O37      1.0000 0.53230  0.37010  0.76970  Biso   1.000  O
  O38      1.0000 0.56360  0.31500  0.64060  Biso   1.000  O
  O39      1.0000 0.41180  0.37930  0.63650  Biso   1.000  O
  O40      1.0000 0.25840  0.16440  0.49390  Biso   1.000  O
  O41      1.0000 0.23350  0.28060  0.56210  Biso   1.000  O
  O42      1.0000 0.38220  0.26050  0.50370  Biso   1.000  O
  O43      1.0000 0.37080  0.43450  0.47500  Biso   1.000  O
  O44      1.0000 0.00600  0.39780  0.32960  Biso   1.000  O
  O45      1.0000 0.93900  0.45460  0.22270  Biso   1.000  O
  P11      1.0000 0.99002  0.83673  0.19026  Biso   1.000  P
  P12      1.0000 0.77698  0.74461  0.99856  Biso   1.000  P
  S6       1.0000 0.49270  0.96970  0.79640  Biso   1.000  S
  C31      1.0000 0.79110  0.68640  0.22520  Biso   1.000  C
  H71      1.0000 0.80150  0.65410  0.18340  Biso   1.000  H
  H72      1.0000 0.82380  0.66700  0.27640  Biso   1.000  H
  C32      1.0000 0.81520  0.80870  0.27650  Biso   1.000  C
  H73      1.0000 0.84880  0.79220  0.32880  Biso   1.000  H
  H74      1.0000 0.83970  0.85560  0.26720  Biso   1.000  H
  C33      1.0000 0.93610  0.75130  0.21070  Biso   1.000  C
  H75      1.0000 0.97070  0.73290  0.26170  Biso   1.000  H
  H76      1.0000 0.94300  0.71720  0.16950  Biso   1.000  H
  C34      1.0000 0.70100  0.81350  0.76290  Biso   1.000  C
  H77      1.0000 0.63500  0.79760  0.75050  Biso   1.000  H
  H78      1.0000 0.70140  0.86370  0.77730  Biso   1.000  H
  C35      1.0000 0.75650  0.69480  0.81080  Biso   1.000  C
  H79      1.0000 0.79440  0.66820  0.85510  Biso   1.000  H
  H80      1.0000 0.69200  0.67590  0.80010  Biso   1.000  H
  C36      1.0000 0.71230  0.78470  0.90530  Biso   1.000  C
  H81      1.0000 0.70880  0.83590  0.91340  Biso   1.000  H
  H82      1.0000 0.64750  0.76640  0.89410  Biso   1.000  H
  N11      1.0000 0.83210  0.75780  0.21310  Biso   1.000  N
  H83      1.0000 0.80070  0.77490  0.16470  Biso   1.000  H
  N12      1.0000 0.75490  0.77180  0.83270  Biso   1.000  N
  H84      1.0000 0.81630  0.78800  0.84410  Biso   1.000  H
  O46      1.0000 0.03230  0.87010  0.26970  Biso   1.000  O
  O47      1.0000 0.06360  0.81500  0.14060  Biso   1.000  O
  O48      1.0000 0.91180  0.87930  0.13650  Biso   1.000  O
  O49      1.0000 0.75840  0.66440  0.99390  Biso   1.000  O
  O50      1.0000 0.73350  0.78060  0.06210  Biso   1.000  O
  O51      1.0000 0.88220  0.76050  0.00370  Biso   1.000  O
  O52      1.0000 0.87080  0.93450  0.97500  Biso   1.000  O
  O53      1.0000 0.50600  0.89780  0.82960  Biso   1.000  O
  O54      1.0000 0.43900  0.95460  0.72270  Biso   1.000  O
  P13      1.0000 0.50998  0.33673  0.30974  Biso   1.000  P
  P14      1.0000 0.72302  0.24461  0.50144  Biso   1.000  P
  S7       1.0000 0.00730  0.46970  0.70360  Biso   1.000  S
  C37      1.0000 0.70890  0.18640  0.27480  Biso   1.000  C
  H85      1.0000 0.69850  0.15410  0.31660  Biso   1.000  H
  H86      1.0000 0.67620  0.16700  0.22360  Biso   1.000  H
  C38      1.0000 0.68480  0.30870  0.22350  Biso   1.000  C
  H87      1.0000 0.65120  0.29220  0.17120  Biso   1.000  H
  H88      1.0000 0.66030  0.35560  0.23280  Biso   1.000  H
  C39      1.0000 0.56390  0.25130  0.28930  Biso   1.000  C
  H89      1.0000 0.52930  0.23290  0.23830  Biso   1.000  H
  H90      1.0000 0.55700  0.21720  0.33050  Biso   1.000  H
  C40      1.0000 0.79900  0.31350  0.73710  Biso   1.000  C
  H91      1.0000 0.86500  0.29760  0.74950  Biso   1.000  H
  H92      1.0000 0.79860  0.36370  0.72270  Biso   1.000  H
  C41      1.0000 0.74350  0.19480  0.68920  Biso   1.000  C
  H93      1.0000 0.70560  0.16820  0.64490  Biso   1.000  H
  H94      1.0000 0.80800  0.17590  0.69990  Biso   1.000  H
  C42      1.0000 0.78770  0.28470  0.59470  Biso   1.000  C
  H95      1.0000 0.79120  0.33590  0.58660  Biso   1.000  H
  H96      1.0000 0.85250  0.26640  0.60590  Biso   1.000  H
  N13      1.0000 0.66790  0.25780  0.28690  Biso   1.000  N
  H97      1.0000 0.69930  0.27490  0.33530  Biso   1.000  H
  N14      1.0000 0.74510  0.27180  0.66730  Biso   1.000  N
  H98      1.0000 0.68370  0.28800  0.65590  Biso   1.000  H
  O55      1.0000 0.46770  0.37010  0.23030  Biso   1.000  O
  O56      1.0000 0.43640  0.31500  0.35940  Biso   1.000  O
  O57      1.0000 0.58820  0.37930  0.36350  Biso   1.000  O
  O58      1.0000 0.74160  0.16440  0.50610  Biso   1.000  O
  O59      1.0000 0.76650  0.28060  0.43790  Biso   1.000  O
  O60      1.0000 0.61780  0.26050  0.49630  Biso   1.000  O
  O61      1.0000 0.62920  0.43450  0.52500  Biso   1.000  O
  O62      1.0000 0.99400  0.39780  0.67040  Biso   1.000  O
  O63      1.0000 0.06100  0.45460  0.77730  Biso   1.000  O
  P15      1.0000 0.00998  0.83673  0.80974  Biso   1.000  P
  P16      1.0000 0.22302  0.74461  0.00144  Biso   1.000  P
  S8       1.0000 0.50730  0.96970  0.20360  Biso   1.000  S
  C43      1.0000 0.20890  0.68640  0.77480  Biso   1.000  C
  H99      1.0000 0.19850  0.65410  0.81660  Biso   1.000  H
  H100     1.0000 0.17620  0.66700  0.72360  Biso   1.000  H
  C44      1.0000 0.18480  0.80870  0.72350  Biso   1.000  C
  H101     1.0000 0.15120  0.79220  0.67120  Biso   1.000  H
  H102     1.0000 0.16030  0.85560  0.73280  Biso   1.000  H
  C45      1.0000 0.06390  0.75130  0.78930  Biso   1.000  C
  H103     1.0000 0.02930  0.73290  0.73830  Biso   1.000  H
  H104     1.0000 0.05700  0.71720  0.83050  Biso   1.000  H
  C46      1.0000 0.29900  0.81350  0.23710  Biso   1.000  C
  H105     1.0000 0.36500  0.79760  0.24950  Biso   1.000  H
  H106     1.0000 0.29860  0.86370  0.22270  Biso   1.000  H
  C47      1.0000 0.24350  0.69480  0.18920  Biso   1.000  C
  H107     1.0000 0.20560  0.66820  0.14490  Biso   1.000  H
  H108     1.0000 0.30800  0.67590  0.19990  Biso   1.000  H
  C48      1.0000 0.28770  0.78470  0.09470  Biso   1.000  C
  H109     1.0000 0.29120  0.83590  0.08660  Biso   1.000  H
  H110     1.0000 0.35250  0.76640  0.10590  Biso   1.000  H
  N15      1.0000 0.16790  0.75780  0.78690  Biso   1.000  N
  H111     1.0000 0.19930  0.77490  0.83530  Biso   1.000  H
  N16      1.0000 0.24510  0.77180  0.16730  Biso   1.000  N
  H112     1.0000 0.18370  0.78800  0.15590  Biso   1.000  H
  O64      1.0000 0.96770  0.87010  0.73030  Biso   1.000  O
  O65      1.0000 0.93640  0.81500  0.85940  Biso   1.000  O
  O66      1.0000 0.08820  0.87930  0.86350  Biso   1.000  O
  O67      1.0000 0.24160  0.66440  0.00610  Biso   1.000  O
  O68      1.0000 0.26650  0.78060  0.93790  Biso   1.000  O
  O69      1.0000 0.11780  0.76050  0.99630  Biso   1.000  O
  O70      1.0000 0.12920  0.93450  0.02500  Biso   1.000  O
  O71      1.0000 0.49400  0.89780  0.17040  Biso   1.000  O
  O72      1.0000 0.56100  0.95460  0.27730  Biso   1.000  O
  Nd1      1.0000 0.50000  0.65277  0.50000  Biso   1.000  Nd
  Nd2      1.0000 0.00000  0.15277  0.00000  Biso   1.000  Nd
  Nd3      1.0000 0.50000  0.34723  0.50000  Biso   1.000  Nd
  Nd4      1.0000 0.00000  0.84723  0.00000  Biso   1.000  Nd
  Nd5      1.0000 0.64316  0.50000  0.39023  Biso   1.000  Nd
  P17      1.0000 0.61953  0.50000  0.57575  Biso   1.000  P
  C49      1.0000 0.88560  0.50000  0.71950  Biso   1.000  C
  C50      1.0000 0.86930  0.50000  0.79610  Biso   1.000  C
  H113     1.0000 0.92010  0.50000  0.84030  Biso   1.000  H
  C51      1.0000 0.77520  0.50000  0.80630  Biso   1.000  C
  H114     1.0000 0.76250  0.50000  0.85760  Biso   1.000  H
  C52      1.0000 0.70000  0.50000  0.73920  Biso   1.000  C
  H115     1.0000 0.63730  0.50000  0.74630  Biso   1.000  H
  C53      1.0000 0.71710  0.50000  0.66110  Biso   1.000  C
  C54      1.0000 0.81170  0.50000  0.65190  Biso   1.000  C
  H116     1.0000 0.82520  0.50000  0.60090  Biso   1.000  H
  O73      1.0000 0.52650  0.50000  0.60240  Biso   1.000  O
  O74      1.0000 0.01600  0.50000  0.62700  Biso   1.000  O
  Nd6      1.0000 0.14316  0.00000  0.89023  Biso   1.000  Nd
  P18      1.0000 0.11953  0.00000  0.07575  Biso   1.000  P
  C55      1.0000 0.38560  0.00000  0.21950  Biso   1.000  C
  C56      1.0000 0.36930  0.00000  0.29610  Biso   1.000  C
  H117     1.0000 0.42010  0.00000  0.34030  Biso   1.000  H
  C57      1.0000 0.27520  0.00000  0.30630  Biso   1.000  C
  H118     1.0000 0.26250  0.00000  0.35760  Biso   1.000  H
  C58      1.0000 0.20000  0.00000  0.23920  Biso   1.000  C
  H119     1.0000 0.13730  0.00000  0.24630  Biso   1.000  H
  C59      1.0000 0.21710  0.00000  0.16110  Biso   1.000  C
  C60      1.0000 0.31170  0.00000  0.15190  Biso   1.000  C
  H120     1.0000 0.32520  0.00000  0.10090  Biso   1.000  H
  O75      1.0000 0.02650  0.00000  0.10240  Biso   1.000  O
  O76      1.0000 0.51600  0.00000  0.12700  Biso   1.000  O
  Nd7      1.0000 0.35684  0.50000  0.60977  Biso   1.000  Nd
  P19      1.0000 0.38047  0.50000  0.42425  Biso   1.000  P
  C61      1.0000 0.11440  0.50000  0.28050  Biso   1.000  C
  C62      1.0000 0.13070  0.50000  0.20390  Biso   1.000  C
  H121     1.0000 0.07990  0.50000  0.15970  Biso   1.000  H
  C63      1.0000 0.22480  0.50000  0.19370  Biso   1.000  C
  H122     1.0000 0.23750  0.50000  0.14240  Biso   1.000  H
  C64      1.0000 0.30000  0.50000  0.26080  Biso   1.000  C
  H123     1.0000 0.36270  0.50000  0.25370  Biso   1.000  H
  C65      1.0000 0.28290  0.50000  0.33890  Biso   1.000  C
  C66      1.0000 0.18830  0.50000  0.34810  Biso   1.000  C
  H124     1.0000 0.17480  0.50000  0.39910  Biso   1.000  H
  O77      1.0000 0.47350  0.50000  0.39760  Biso   1.000  O
  O78      1.0000 0.98400  0.50000  0.37300  Biso   1.000  O
  Nd8      1.0000 0.85684  0.00000  0.10977  Biso   1.000  Nd
  P20      1.0000 0.88047  0.00000  0.92425  Biso   1.000  P
  C67      1.0000 0.61440  0.00000  0.78050  Biso   1.000  C
  C68      1.0000 0.63070  0.00000  0.70390  Biso   1.000  C
  H125     1.0000 0.57990  0.00000  0.65970  Biso   1.000  H
  C69      1.0000 0.72480  0.00000  0.69370  Biso   1.000  C
  H126     1.0000 0.73750  0.00000  0.64240  Biso   1.000  H
  C70      1.0000 0.80000  0.00000  0.76080  Biso   1.000  C
  H127     1.0000 0.86270  0.00000  0.75370  Biso   1.000  H
  C71      1.0000 0.78290  0.00000  0.83890  Biso   1.000  C
  C72      1.0000 0.68830  0.00000  0.84810  Biso   1.000  C
  H128     1.0000 0.67480  0.00000  0.89910  Biso   1.000  H
  O79      1.0000 0.97350  0.00000  0.89760  Biso   1.000  O
  O80      1.0000 0.48400  0.00000  0.87300  Biso   1.000  O
