data_GETXAG01_clean
_audit_creation_date              2015-10-16
_audit_creation_method            'Materials Studio'
_symmetry_space_group_name_H-M    'P1'
_symmetry_Int_Tables_number       1
_symmetry_cell_setting            triclinic
loop_
_symmetry_equiv_pos_as_xyz
  x,y,z
_cell_length_a                    6.6673
_cell_length_b                    13.0771
_cell_length_c                    21.2751
_cell_angle_alpha                 90.0000
_cell_angle_beta                  90.0000
_cell_angle_gamma                 102.4920
loop_
_atom_site_label
_atom_site_type_symbol
_atom_site_fract_x
_atom_site_fract_y
_atom_site_fract_z
_atom_site_U_iso_or_equiv
_atom_site_adp_type
_atom_site_occupancy
Co1    Co    0.51751   0.54656   0.06695   0.01267  Uiso   1.00
Co2    Co    0.98249   0.95344   0.56695   0.01267  Uiso   1.00
Co3    Co    0.48249   0.45344   0.93305   0.01267  Uiso   1.00
Co4    Co    0.00000   0.50000   0.00000   0.01267  Uiso   1.00
Co5    Co    0.01751   0.04656   0.43305   0.01267  Uiso   1.00
Co6    Co    0.50000   0.00000   0.50000   0.01267  Uiso   1.00
H1     H     0.46460   0.88930   0.67570   0.01267  Uiso   1.00
H2     H     0.76600   0.89130   0.47510   0.01267  Uiso   1.00
H3     H     0.59800   0.74490   0.30480   0.01267  Uiso   1.00
H4     H     0.36000   0.24150   0.58970   0.01267  Uiso   1.00
H5     H     0.51770   0.24290   0.25210   0.01267  Uiso   1.00
H6     H     0.26600   0.39130   0.02490   0.01267  Uiso   1.00
H7     H     0.06770   0.47030   0.42170   0.01267  Uiso   1.00
H8     H     0.90300   0.97140   0.32610   0.01267  Uiso   1.00
H9     H     0.56770   0.97030   0.07830   0.01267  Uiso   1.00
H10    H     0.40300   0.47140   0.17390   0.01267  Uiso   1.00
H11    H     0.44700   0.40550   0.43170   0.01267  Uiso   1.00
H12    H     0.21600   0.47920   0.14620   0.01267  Uiso   1.00
H13    H     0.71600   0.97920   0.35380   0.01267  Uiso   1.00
H14    H     0.28400   0.02080   0.64620   0.01267  Uiso   1.00
H15    H     0.23400   0.10870   0.52490   0.01267  Uiso   1.00
H16    H     0.03540   0.61070   0.17570   0.01267  Uiso   1.00
H17    H     0.09700   0.02860   0.67390   0.01267  Uiso   1.00
H18    H     0.01770   0.74290   0.24790   0.01267  Uiso   1.00
H19    H     0.88500   0.88860   0.73390   0.01267  Uiso   1.00
H20    H     0.09800   0.24490   0.19520   0.01267  Uiso   1.00
H21    H     0.12700   0.21960   0.60130   0.01267  Uiso   1.00
H22    H     0.64000   0.75850   0.41030   0.01267  Uiso   1.00
H23    H     0.57100   0.14800   0.08590   0.01267  Uiso   1.00
H24    H     0.53540   0.11070   0.32430   0.01267  Uiso   1.00
H25    H     0.11500   0.11140   0.26610   0.01267  Uiso   1.00
H26    H     0.78400   0.52080   0.85380   0.01267  Uiso   1.00
H27    H     0.86000   0.74150   0.91030   0.01267  Uiso   1.00
H28    H     0.04990   0.91690   0.92300   0.01267  Uiso   1.00
H29    H     0.38500   0.38860   0.76610   0.01267  Uiso   1.00
H30    H     0.87300   0.78040   0.39870   0.01267  Uiso   1.00
H31    H     0.43230   0.02970   0.92170   0.01267  Uiso   1.00
H32    H     0.92900   0.35200   0.58590   0.01267  Uiso   1.00
H33    H     0.48230   0.75710   0.74790   0.01267  Uiso   1.00
H34    H     0.90200   0.75510   0.80480   0.01267  Uiso   1.00
H35    H     0.07100   0.64800   0.41410   0.01267  Uiso   1.00
H36    H     0.55300   0.59450   0.56830   0.01267  Uiso   1.00
H37    H     0.54990   0.41690   0.57700   0.01267  Uiso   1.00
H38    H     0.45010   0.58310   0.42300   0.01267  Uiso   1.00
H39    H     0.05300   0.09450   0.93170   0.01267  Uiso   1.00
H40    H     0.94700   0.90550   0.06830   0.01267  Uiso   1.00
H41    H     0.95010   0.08310   0.07700   0.01267  Uiso   1.00
H42    H     0.59700   0.52860   0.82610   0.01267  Uiso   1.00
H43    H     0.62700   0.71960   0.89870   0.01267  Uiso   1.00
H44    H     0.14000   0.25850   0.08970   0.01267  Uiso   1.00
H45    H     0.73400   0.60870   0.97510   0.01267  Uiso   1.00
H46    H     0.98230   0.25710   0.75210   0.01267  Uiso   1.00
H47    H     0.61500   0.61140   0.23390   0.01267  Uiso   1.00
H48    H     0.40200   0.25510   0.69520   0.01267  Uiso   1.00
H49    H     0.42900   0.85200   0.91410   0.01267  Uiso   1.00
H50    H     0.96460   0.38930   0.82430   0.01267  Uiso   1.00
H51    H     0.37300   0.28040   0.10130   0.01267  Uiso   1.00
H52    H     0.93230   0.52970   0.57830   0.01267  Uiso   1.00
C1     C     0.55820   0.00691   0.92285   0.01267  Uiso   1.00
C2     C     0.63860   0.21576   0.25462   0.01267  Uiso   1.00
C3     C     0.25630   0.80869   0.06099   0.01267  Uiso   1.00
C4     C     0.25740   0.91940   0.07091   0.01267  Uiso   1.00
C5     C     0.26040   0.13417   0.08029   0.01267  Uiso   1.00
C6     C     0.74370   0.19131   0.93901   0.01267  Uiso   1.00
C7     C     0.05820   0.50691   0.57715   0.01267  Uiso   1.00
C8     C     0.49310   0.63757   0.23694   0.01267  Uiso   1.00
C9     C     0.05610   0.40109   0.58174   0.01267  Uiso   1.00
C10    C     0.51760   0.28335   0.72077   0.01267  Uiso   1.00
C11    C     0.57630   0.56054   0.42368   0.01267  Uiso   1.00
C12    C     0.00690   0.86243   0.73694   0.01267  Uiso   1.00
C13    C     0.82510   0.09645   0.30112   0.01267  Uiso   1.00
C14    C     0.86140   0.28424   0.75462   0.01267  Uiso   1.00
C15    C     0.07630   0.06054   0.07632   0.01267  Uiso   1.00
C16    C     0.19610   0.74459   0.78478   0.01267  Uiso   1.00
C17    C     0.20830   0.66696   0.83395   0.01267  Uiso   1.00
C18    C     0.44390   0.09891   0.08174   0.01267  Uiso   1.00
C19    C     0.57440   0.45460   0.42859   0.01267  Uiso   1.00
C20    C     0.94180   0.49309   0.42285   0.01267  Uiso   1.00
C21    C     0.01760   0.78335   0.77923   0.01267  Uiso   1.00
C22    C     0.55610   0.90109   0.91826   0.01267  Uiso   1.00
C23    C     0.42370   0.43946   0.57632   0.01267  Uiso   1.00
C24    C     0.23960   0.36583   0.58029   0.01267  Uiso   1.00
C25    C     0.48240   0.71665   0.27923   0.01267  Uiso   1.00
C26    C     0.44180   0.99309   0.07715   0.01267  Uiso   1.00
C27    C     0.94390   0.59891   0.41826   0.01267  Uiso   1.00
C28    C     0.35120   0.86306   0.70251   0.01267  Uiso   1.00
C29    C     0.85120   0.36306   0.79749   0.01267  Uiso   1.00
C30    C     0.98240   0.21665   0.22077   0.01267  Uiso   1.00
C31    C     0.73960   0.86583   0.91971   0.01267  Uiso   1.00
C32    C     0.42560   0.54540   0.57141   0.01267  Uiso   1.00
C33    C     0.14880   0.63694   0.20251   0.01267  Uiso   1.00
C34    C     0.50690   0.36243   0.76306   0.01267  Uiso   1.00
C35    C     0.75740   0.41940   0.42909   0.01267  Uiso   1.00
C36    C     0.64880   0.13694   0.29749   0.01267  Uiso   1.00
C37    C     0.13860   0.71576   0.24538   0.01267  Uiso   1.00
C38    C     0.36140   0.78424   0.74538   0.01267  Uiso   1.00
C39    C     0.32510   0.59645   0.19888   0.01267  Uiso   1.00
C40    C     0.67490   0.40355   0.80112   0.01267  Uiso   1.00
C41    C     0.76040   0.63417   0.41971   0.01267  Uiso   1.00
C42    C     0.07440   0.95460   0.07141   0.01267  Uiso   1.00
C43    C     0.24370   0.69131   0.56099   0.01267  Uiso   1.00
C44    C     0.92560   0.04540   0.92859   0.01267  Uiso   1.00
C45    C     0.74260   0.08060   0.92909   0.01267  Uiso   1.00
C46    C     0.79170   0.33304   0.16605   0.01267  Uiso   1.00
C47    C     0.70830   0.16696   0.66605   0.01267  Uiso   1.00
C48    C     0.29170   0.83304   0.33395   0.01267  Uiso   1.00
C49    C     0.69610   0.24459   0.71522   0.01267  Uiso   1.00
C50    C     0.30390   0.75541   0.28478   0.01267  Uiso   1.00
C51    C     0.99310   0.13757   0.26306   0.01267  Uiso   1.00
C52    C     0.80390   0.25541   0.21522   0.01267  Uiso   1.00
C53    C     0.17490   0.90355   0.69888   0.01267  Uiso   1.00
C54    C     0.75630   0.30869   0.43901   0.01267  Uiso   1.00
C55    C     0.92370   0.93946   0.92368   0.01267  Uiso   1.00
C56    C     0.24260   0.58060   0.57091   0.01267  Uiso   1.00
N1     N     0.14140   0.83340   0.54858   0.01267  Uiso   1.00
N2     N     0.43980   0.86454   0.37719   0.01267  Uiso   1.00
N3     N     0.16010   0.98558   0.65570   0.01267  Uiso   1.00
N4     N     0.56020   0.13546   0.62281   0.01267  Uiso   1.00
N5     N     0.64140   0.33340   0.95142   0.01267  Uiso   1.00
N6     N     0.13160   0.87800   0.34361   0.01267  Uiso   1.00
N7     N     0.76360   0.74153   0.41936   0.01267  Uiso   1.00
N8     N     0.36750   0.93142   0.41409   0.01267  Uiso   1.00
N9     N     0.91030   0.26477   0.95538   0.01267  Uiso   1.00
N10    N     0.18420   0.93897   0.39461   0.01267  Uiso   1.00
N11    N     0.13250   0.56858   0.91409   0.01267  Uiso   1.00
N12    N     0.63160   0.37800   0.15639   0.01267  Uiso   1.00
N13    N     0.66010   0.48558   0.84430   0.01267  Uiso   1.00
N14    N     0.58970   0.23523   0.45538   0.01267  Uiso   1.00
N15    N     0.65470   0.14637   0.46153   0.01267  Uiso   1.00
N16    N     0.73640   0.75847   0.91936   0.01267  Uiso   1.00
N17    N     0.42420   0.76698   0.06393   0.01267  Uiso   1.00
N18    N     0.06020   0.63546   0.87719   0.01267  Uiso   1.00
N19    N     0.92420   0.26698   0.43607   0.01267  Uiso   1.00
N20    N     0.31580   0.56103   0.89461   0.01267  Uiso   1.00
N21    N     0.86840   0.12200   0.65639   0.01267  Uiso   1.00
N22    N     0.63250   0.06858   0.58591   0.01267  Uiso   1.00
N23    N     0.07580   0.73302   0.56393   0.01267  Uiso   1.00
N24    N     0.36840   0.62200   0.84361   0.01267  Uiso   1.00
N25    N     0.08970   0.73523   0.04462   0.01267  Uiso   1.00
N26    N     0.57580   0.23302   0.93607   0.01267  Uiso   1.00
N27    N     0.26360   0.24153   0.08064   0.01267  Uiso   1.00
N28    N     0.23640   0.25847   0.58064   0.01267  Uiso   1.00
N29    N     0.93980   0.36454   0.12281   0.01267  Uiso   1.00
N30    N     0.33990   0.51442   0.15570   0.01267  Uiso   1.00
N31    N     0.81580   0.06103   0.60539   0.01267  Uiso   1.00
N32    N     0.15470   0.64637   0.03847   0.01267  Uiso   1.00
N33    N     0.85860   0.16660   0.45142   0.01267  Uiso   1.00
N34    N     0.83990   0.01442   0.34430   0.01267  Uiso   1.00
N35    N     0.41030   0.76477   0.54462   0.01267  Uiso   1.00
N36    N     0.84530   0.35363   0.96153   0.01267  Uiso   1.00
N37    N     0.35860   0.66660   0.04858   0.01267  Uiso   1.00
N38    N     0.34530   0.85363   0.53847   0.01267  Uiso   1.00
N39    N     0.86750   0.43142   0.08591   0.01267  Uiso   1.00
N40    N     0.68420   0.43897   0.10539   0.01267  Uiso   1.00
O1     O     0.78658   0.94987   0.48780   0.01267  Uiso   1.00
O2     O     0.71342   0.55013   0.98780   0.01267  Uiso   1.00
O3     O     0.21342   0.05013   0.51220   0.01267  Uiso   1.00
O4     O     0.28658   0.44987   0.01220   0.01267  Uiso   1.00
