data_GEVKID_clean
_audit_creation_date              2014-07-02
_audit_creation_method            'Materials Studio'
_symmetry_space_group_name_H-M    'P1'
_symmetry_Int_Tables_number       1
_symmetry_cell_setting            triclinic
loop_
_symmetry_equiv_pos_as_xyz
  x,y,z
_cell_length_a                    11.7110
_cell_length_b                    11.7110
_cell_length_c                    17.1962
_cell_angle_alpha                 95.3250
_cell_angle_beta                  95.3250
_cell_angle_gamma                 105.7790
loop_
_atom_site_label
_atom_site_type_symbol
_atom_site_fract_x
_atom_site_fract_y
_atom_site_fract_z
_atom_site_U_iso_or_equiv
_atom_site_adp_type
_atom_site_occupancy
Cd1    Cd    0.08557   0.58758   0.82456   0.01267  Uiso   1.00
Cd2    Cd    0.41242   0.91443   0.67544   0.01267  Uiso   1.00
Cd3    Cd    0.91443   0.41242   0.17544   0.01267  Uiso   1.00
Cd4    Cd    0.58758   0.08557   0.32456   0.01267  Uiso   1.00
Cd5    Cd    0.36320   0.63681   0.75000   0.01267  Uiso   1.00
Cd6    Cd    0.63681   0.36319   0.25000   0.01267  Uiso   1.00
Cd7    Cd    0.00000   0.50000  -0.00000   0.01267  Uiso   1.00
Cd8    Cd    0.50000  -0.00000   0.50000   0.01267  Uiso   1.00
H1     H     0.47130   0.62510   0.94400   0.01267  Uiso   1.00
H2     H     0.42320   0.63820   0.07360   0.01267  Uiso   1.00
H3     H     0.37650   0.49550   0.06780   0.01267  Uiso   1.00
H4     H     0.42840   0.44000   0.86420   0.01267  Uiso   1.00
H5     H     0.37920   0.37000   0.93550   0.01267  Uiso   1.00
H6     H     0.83650   0.23450   0.89010   0.01267  Uiso   1.00
H7     H     0.95210   0.13030   0.81720   0.01267  Uiso   1.00
H8     H     0.81250   0.06150   0.80780   0.01267  Uiso   1.00
H9     H     0.71840   0.33780   0.81840   0.01267  Uiso   1.00
H10    H     0.66190   0.19570   0.80120   0.01267  Uiso   1.00
H11    H     0.10350   0.91330   0.03420   0.01267  Uiso   1.00
H12    H     0.14800   0.98960   0.91550   0.01267  Uiso   1.00
H13    H     0.00850   0.96950   0.88840   0.01267  Uiso   1.00
H14    H     0.85520   0.86800   0.97800   0.01267  Uiso   1.00
H15    H     0.90460   0.82800   0.05810   0.01267  Uiso   1.00
H16    H     0.11350   0.63850   0.55940   0.01267  Uiso   1.00
H17    H     0.02550   0.38610   0.56960   0.01267  Uiso   1.00
H18    H     0.16390   0.45770   0.57260   0.01267  Uiso   1.00
H19    H     0.86830   0.50330   0.55910   0.01267  Uiso   1.00
H20    H     0.91260   0.64460   0.55620   0.01267  Uiso   1.00
H21    H     0.37490   0.52870   0.55600   0.01267  Uiso   1.00
H22    H     0.36180   0.57680   0.42640   0.01267  Uiso   1.00
H23    H     0.50450   0.62350   0.43220   0.01267  Uiso   1.00
H24    H     0.56000   0.57160   0.63580   0.01267  Uiso   1.00
H25    H     0.63000   0.62080   0.56450   0.01267  Uiso   1.00
H26    H     0.76550   0.16350   0.60990   0.01267  Uiso   1.00
H27    H     0.86970   0.04790   0.68280   0.01267  Uiso   1.00
H28    H     0.93850   0.18750   0.69220   0.01267  Uiso   1.00
H29    H     0.66220   0.28160   0.68160   0.01267  Uiso   1.00
H30    H     0.80430   0.33810   0.69880   0.01267  Uiso   1.00
H31    H     0.08670   0.89650   0.46580   0.01267  Uiso   1.00
H32    H     0.01040   0.85200   0.58450   0.01267  Uiso   1.00
H33    H     0.03050   0.99150   0.61160   0.01267  Uiso   1.00
H34    H     0.13200   0.14480   0.52200   0.01267  Uiso   1.00
H35    H     0.17200   0.09540   0.44190   0.01267  Uiso   1.00
H36    H     0.36150   0.88650   0.94060   0.01267  Uiso   1.00
H37    H     0.61390   0.97450   0.93040   0.01267  Uiso   1.00
H38    H     0.54230   0.83610   0.92740   0.01267  Uiso   1.00
H39    H     0.49670   0.13170   0.94090   0.01267  Uiso   1.00
H40    H     0.35540   0.08740   0.94380   0.01267  Uiso   1.00
H41    H     0.52870   0.37490   0.05600   0.01267  Uiso   1.00
H42    H     0.57680   0.36180   0.92640   0.01267  Uiso   1.00
H43    H     0.62350   0.50450   0.93220   0.01267  Uiso   1.00
H44    H     0.57160   0.56000   0.13580   0.01267  Uiso   1.00
H45    H     0.62080   0.63000   0.06450   0.01267  Uiso   1.00
H46    H     0.16350   0.76550   0.10990   0.01267  Uiso   1.00
H47    H     0.04790   0.86970   0.18280   0.01267  Uiso   1.00
H48    H     0.18750   0.93850   0.19220   0.01267  Uiso   1.00
H49    H     0.28160   0.66220   0.18160   0.01267  Uiso   1.00
H50    H     0.33810   0.80430   0.19880   0.01267  Uiso   1.00
H51    H     0.89650   0.08670   0.96580   0.01267  Uiso   1.00
H52    H     0.85200   0.01040   0.08450   0.01267  Uiso   1.00
H53    H     0.99150   0.03050   0.11160   0.01267  Uiso   1.00
H54    H     0.14480   0.13200   0.02200   0.01267  Uiso   1.00
H55    H     0.09540   0.17200   0.94190   0.01267  Uiso   1.00
H56    H     0.88650   0.36150   0.44060   0.01267  Uiso   1.00
H57    H     0.97450   0.61390   0.43040   0.01267  Uiso   1.00
H58    H     0.83610   0.54230   0.42740   0.01267  Uiso   1.00
H59    H     0.13170   0.49670   0.44090   0.01267  Uiso   1.00
H60    H     0.08740   0.35540   0.44380   0.01267  Uiso   1.00
H61    H     0.62510   0.47130   0.44400   0.01267  Uiso   1.00
H62    H     0.63820   0.42320   0.57360   0.01267  Uiso   1.00
H63    H     0.49550   0.37650   0.56780   0.01267  Uiso   1.00
H64    H     0.44000   0.42840   0.36420   0.01267  Uiso   1.00
H65    H     0.37000   0.37920   0.43550   0.01267  Uiso   1.00
H66    H     0.23450   0.83650   0.39010   0.01267  Uiso   1.00
H67    H     0.13030   0.95210   0.31720   0.01267  Uiso   1.00
H68    H     0.06150   0.81250   0.30780   0.01267  Uiso   1.00
H69    H     0.33780   0.71840   0.31840   0.01267  Uiso   1.00
H70    H     0.19570   0.66190   0.30120   0.01267  Uiso   1.00
H71    H     0.91330   0.10350   0.53420   0.01267  Uiso   1.00
H72    H     0.98960   0.14800   0.41550   0.01267  Uiso   1.00
H73    H     0.96950   0.00850   0.38840   0.01267  Uiso   1.00
H74    H     0.86800   0.85520   0.47800   0.01267  Uiso   1.00
H75    H     0.82800   0.90460   0.55810   0.01267  Uiso   1.00
H76    H     0.63850   0.11350   0.05940   0.01267  Uiso   1.00
H77    H     0.38610   0.02550   0.06960   0.01267  Uiso   1.00
H78    H     0.45770   0.16390   0.07260   0.01267  Uiso   1.00
H79    H     0.50330   0.86830   0.05910   0.01267  Uiso   1.00
H80    H     0.64460   0.91260   0.05620   0.01267  Uiso   1.00
C1     C     0.28772   0.55888   0.93067   0.01267  Uiso   1.00
C2     C     0.41301   0.55459   0.96043   0.01267  Uiso   1.00
C3     C     0.43518   0.56262   0.04980   0.01267  Uiso   1.00
C4     C     0.43806   0.44154   0.92220   0.01267  Uiso   1.00
C5     C     0.94752   0.35788   0.83279   0.01267  Uiso   1.00
C6     C     0.84695   0.24525   0.83393   0.01267  Uiso   1.00
C7     C     0.87198   0.13302   0.79500   0.01267  Uiso   1.00
C8     C     0.73080   0.26300   0.79370   0.01267  Uiso   1.00
C9     C     0.03630   0.76750   0.95090   0.01267  Uiso   1.00
C10    C     0.03920   0.89120   0.98840   0.01267  Uiso   1.00
C11    C     0.07040   0.98780   0.93460   0.01267  Uiso   1.00
C12    C     0.92170   0.88950   0.02160   0.01267  Uiso   1.00
C13    C     0.06607   0.58893   0.66670   0.01267  Uiso   1.00
C14    C     0.05360   0.57080   0.57740   0.01267  Uiso   1.00
C15    C     0.08180   0.45380   0.55010   0.01267  Uiso   1.00
C16    C     0.92890   0.56770   0.54000   0.01267  Uiso   1.00
C17    C     0.44112   0.71228   0.56933   0.01267  Uiso   1.00
C18    C     0.44541   0.58699   0.53957   0.01267  Uiso   1.00
C19    C     0.43738   0.56482   0.45020   0.01267  Uiso   1.00
C20    C     0.55846   0.56194   0.57780   0.01267  Uiso   1.00
C21    C     0.64212   0.05248   0.66721   0.01267  Uiso   1.00
C22    C     0.75475   0.15305   0.66607   0.01267  Uiso   1.00
C23    C     0.86698   0.12802   0.70500   0.01267  Uiso   1.00
C24    C     0.73700   0.26920   0.70630   0.01267  Uiso   1.00
C25    C     0.23250   0.96370   0.54910   0.01267  Uiso   1.00
C26    C     0.10880   0.96080   0.51160   0.01267  Uiso   1.00
C27    C     0.01220   0.92960   0.56540   0.01267  Uiso   1.00
C28    C     0.11050   0.07830   0.47840   0.01267  Uiso   1.00
C29    C     0.41107   0.93393   0.83330   0.01267  Uiso   1.00
C30    C     0.42920   0.94640   0.92260   0.01267  Uiso   1.00
C31    C     0.54620   0.91820   0.94990   0.01267  Uiso   1.00
C32    C     0.43230   0.07110   0.96000   0.01267  Uiso   1.00
C33    C     0.71228   0.44112   0.06933   0.01267  Uiso   1.00
C34    C     0.58699   0.44541   0.03957   0.01267  Uiso   1.00
C35    C     0.56482   0.43738   0.95020   0.01267  Uiso   1.00
C36    C     0.56194   0.55846   0.07780   0.01267  Uiso   1.00
C37    C     0.05248   0.64212   0.16721   0.01267  Uiso   1.00
C38    C     0.15305   0.75475   0.16607   0.01267  Uiso   1.00
C39    C     0.12802   0.86698   0.20500   0.01267  Uiso   1.00
C40    C     0.26920   0.73700   0.20630   0.01267  Uiso   1.00
C41    C     0.96370   0.23250   0.04910   0.01267  Uiso   1.00
C42    C     0.96080   0.10880   0.01160   0.01267  Uiso   1.00
C43    C     0.92960   0.01220   0.06540   0.01267  Uiso   1.00
C44    C     0.07830   0.11050   0.97840   0.01267  Uiso   1.00
C45    C     0.93393   0.41107   0.33330   0.01267  Uiso   1.00
C46    C     0.94640   0.42920   0.42260   0.01267  Uiso   1.00
C47    C     0.91820   0.54620   0.44990   0.01267  Uiso   1.00
C48    C     0.07110   0.43230   0.46000   0.01267  Uiso   1.00
C49    C     0.55888   0.28772   0.43067   0.01267  Uiso   1.00
C50    C     0.55459   0.41301   0.46043   0.01267  Uiso   1.00
C51    C     0.56262   0.43518   0.54980   0.01267  Uiso   1.00
C52    C     0.44154   0.43806   0.42220   0.01267  Uiso   1.00
C53    C     0.35788   0.94752   0.33279   0.01267  Uiso   1.00
C54    C     0.24525   0.84695   0.33393   0.01267  Uiso   1.00
C55    C     0.13302   0.87198   0.29500   0.01267  Uiso   1.00
C56    C     0.26300   0.73080   0.29370   0.01267  Uiso   1.00
C57    C     0.76750   0.03630   0.45090   0.01267  Uiso   1.00
C58    C     0.89120   0.03920   0.48840   0.01267  Uiso   1.00
C59    C     0.98780   0.07040   0.43460   0.01267  Uiso   1.00
C60    C     0.88950   0.92170   0.52160   0.01267  Uiso   1.00
C61    C     0.58893   0.06607   0.16670   0.01267  Uiso   1.00
C62    C     0.57080   0.05360   0.07740   0.01267  Uiso   1.00
C63    C     0.45380   0.08180   0.05010   0.01267  Uiso   1.00
C64    C     0.56770   0.92890   0.04000   0.01267  Uiso   1.00
O1     O     0.27201   0.58099   0.85870   0.01267  Uiso   1.00
O2     O     0.20641   0.54299   0.97286   0.01267  Uiso   1.00
O3     O     0.93678   0.45468   0.87097   0.01267  Uiso   1.00
O4     O     0.03333   0.36107   0.79520   0.01267  Uiso   1.00
O5     O     0.07258   0.75602   0.88450   0.01267  Uiso   1.00
O6     O     0.99732   0.68428   0.99089   0.01267  Uiso   1.00
O7     O     0.16980   0.61760   0.70524   0.01267  Uiso   1.00
O8     O     0.97520   0.57120   0.70150   0.01267  Uiso   1.00
O9     O     0.41901   0.72799   0.64130   0.01267  Uiso   1.00
O10    O     0.45701   0.79359   0.52714   0.01267  Uiso   1.00
O11    O     0.54532   0.06322   0.62903   0.01267  Uiso   1.00
O12    O     0.63893   0.96667   0.70480   0.01267  Uiso   1.00
O13    O     0.24398   0.92742   0.61550   0.01267  Uiso   1.00
O14    O     0.31572   0.00268   0.50911   0.01267  Uiso   1.00
O15    O     0.38240   0.83020   0.79476   0.01267  Uiso   1.00
O16    O     0.42880   0.02480   0.79850   0.01267  Uiso   1.00
O17    O     0.72799   0.41901   0.14130   0.01267  Uiso   1.00
O18    O     0.79359   0.45701   0.02714   0.01267  Uiso   1.00
O19    O     0.06322   0.54532   0.12903   0.01267  Uiso   1.00
O20    O     0.96667   0.63893   0.20480   0.01267  Uiso   1.00
O21    O     0.92742   0.24398   0.11550   0.01267  Uiso   1.00
O22    O     0.00268   0.31572   0.00911   0.01267  Uiso   1.00
O23    O     0.83020   0.38240   0.29476   0.01267  Uiso   1.00
O24    O     0.02480   0.42880   0.29850   0.01267  Uiso   1.00
O25    O     0.58099   0.27201   0.35870   0.01267  Uiso   1.00
O26    O     0.54299   0.20641   0.47286   0.01267  Uiso   1.00
O27    O     0.45468   0.93678   0.37097   0.01267  Uiso   1.00
O28    O     0.36107   0.03333   0.29520   0.01267  Uiso   1.00
O29    O     0.75602   0.07258   0.38450   0.01267  Uiso   1.00
O30    O     0.68428   0.99732   0.49089   0.01267  Uiso   1.00
O31    O     0.61760   0.16980   0.20524   0.01267  Uiso   1.00
O32    O     0.57120   0.97520   0.20150   0.01267  Uiso   1.00
