data_GEVXIQ_clean
_audit_creation_date              2014-07-02
_audit_creation_method            'Materials Studio'
_symmetry_space_group_name_H-M    'P1'
_symmetry_Int_Tables_number       1
_symmetry_cell_setting            triclinic
loop_
_symmetry_equiv_pos_as_xyz
  x,y,z
_cell_length_a                    10.0662
_cell_length_b                    11.4492
_cell_length_c                    12.7746
_cell_angle_alpha                 108.7300
_cell_angle_beta                  96.9480
_cell_angle_gamma                 96.8020
loop_
_atom_site_label
_atom_site_type_symbol
_atom_site_fract_x
_atom_site_fract_y
_atom_site_fract_z
_atom_site_U_iso_or_equiv
_atom_site_adp_type
_atom_site_occupancy
Gd1    Gd    0.93186   0.92366   0.61605   0.01267  Uiso   1.00
Gd2    Gd    0.54836   0.40184   0.24178   0.01267  Uiso   1.00
Gd3    Gd    0.06814   0.07634   0.38395   0.01267  Uiso   1.00
Gd4    Gd    0.45164   0.59816   0.75822   0.01267  Uiso   1.00
H1     H     0.86100   0.44600   0.37500   0.01267  Uiso   1.00
H2     H     0.23800   0.67600   0.31900   0.01267  Uiso   1.00
H3     H     0.98000   0.69300   0.11000   0.01267  Uiso   1.00
H4     H     0.13900   0.55400   0.62500   0.01267  Uiso   1.00
H5     H     0.76200   0.32400   0.68100   0.01267  Uiso   1.00
H6     H     0.02000   0.30700   0.89000   0.01267  Uiso   1.00
C1     C     0.06500   0.82200   0.37590   0.01267  Uiso   1.00
C2     C     0.04830   0.68600   0.36350   0.01267  Uiso   1.00
C3     C     0.93160   0.61540   0.37490   0.01267  Uiso   1.00
C4     C     0.80220   0.66960   0.39350   0.01267  Uiso   1.00
C5     C     0.93410   0.49100   0.36650   0.01267  Uiso   1.00
C6     C     0.04850   0.43610   0.34530   0.01267  Uiso   1.00
C7     C     0.05260   0.30630   0.34800   0.01267  Uiso   1.00
C8     C     0.16180   0.50570   0.32780   0.01267  Uiso   1.00
C9     C     0.28800   0.45570   0.29640   0.01267  Uiso   1.00
C10    C     0.16050   0.62910   0.33580   0.01267  Uiso   1.00
C11    C     0.77080   0.53720   0.11600   0.01267  Uiso   1.00
C12    C     0.88600   0.51690   0.05200   0.01267  Uiso   1.00
C13    C     0.89860   0.39780   0.98130   0.01267  Uiso   1.00
C14    C     0.78930   0.28520   0.95440   0.01267  Uiso   1.00
C15    C     0.98790   0.61700   0.06900   0.01267  Uiso   1.00
C16    C     0.93500   0.17800   0.62410   0.01267  Uiso   1.00
C17    C     0.95170   0.31400   0.63650   0.01267  Uiso   1.00
C18    C     0.06840   0.38460   0.62510   0.01267  Uiso   1.00
C19    C     0.19780   0.33040   0.60650   0.01267  Uiso   1.00
C20    C     0.06590   0.50900   0.63350   0.01267  Uiso   1.00
C21    C     0.95150   0.56390   0.65470   0.01267  Uiso   1.00
C22    C     0.94740   0.69370   0.65200   0.01267  Uiso   1.00
C23    C     0.83820   0.49430   0.67220   0.01267  Uiso   1.00
C24    C     0.71200   0.54430   0.70360   0.01267  Uiso   1.00
C25    C     0.83950   0.37090   0.66420   0.01267  Uiso   1.00
C26    C     0.22920   0.46280   0.88400   0.01267  Uiso   1.00
C27    C     0.11400   0.48310   0.94800   0.01267  Uiso   1.00
C28    C     0.10140   0.60220   0.01870   0.01267  Uiso   1.00
C29    C     0.21070   0.71480   0.04560   0.01267  Uiso   1.00
C30    C     0.01210   0.38300   0.93100   0.01267  Uiso   1.00
O1     O     0.07550   0.90510   0.47340   0.01267  Uiso   1.00
O2     O     0.07800   0.85370   0.29290   0.01267  Uiso   1.00
O3     O     0.81450   0.78790   0.43530   0.01267  Uiso   1.00
O4     O     0.69120   0.59690   0.36750   0.01267  Uiso   1.00
O5     O     0.94480   0.23710   0.34750   0.01267  Uiso   1.00
O6     O     0.16520   0.26960   0.35480   0.01267  Uiso   1.00
O7     O     0.28860   0.38810   0.19750   0.01267  Uiso   1.00
O8     O     0.39560   0.49280   0.36960   0.01267  Uiso   1.00
O9     O     0.71870   0.44600   0.14070   0.01267  Uiso   1.00
O10    O     0.73490   0.64330   0.14450   0.01267  Uiso   1.00
O11    O     0.82270   0.19370   0.98000   0.01267  Uiso   1.00
O12    O     0.67370   0.28830   0.90600   0.01267  Uiso   1.00
O13    O     0.92450   0.09490   0.52660   0.01267  Uiso   1.00
O14    O     0.92200   0.14630   0.70710   0.01267  Uiso   1.00
O15    O     0.18550   0.21210   0.56470   0.01267  Uiso   1.00
O16    O     0.30880   0.40310   0.63250   0.01267  Uiso   1.00
O17    O     0.05520   0.76290   0.65250   0.01267  Uiso   1.00
O18    O     0.83480   0.73040   0.64520   0.01267  Uiso   1.00
O19    O     0.71140   0.61190   0.80250   0.01267  Uiso   1.00
O20    O     0.60440   0.50720   0.63040   0.01267  Uiso   1.00
O21    O     0.28130   0.55400   0.85930   0.01267  Uiso   1.00
O22    O     0.26510   0.35670   0.85550   0.01267  Uiso   1.00
O23    O     0.17730   0.80630   0.02000   0.01267  Uiso   1.00
O24    O     0.32630   0.71170   0.09400   0.01267  Uiso   1.00
