data_image0
_cell_length_a       7.6978
_cell_length_b       17.25
_cell_length_c       14.089
_cell_angle_alpha    90
_cell_angle_beta     93.102
_cell_angle_gamma    90

_symmetry_space_group_name_H-M    "P 1"
_symmetry_int_tables_number       1

loop_
  _symmetry_equiv_pos_as_xyz
  'x, y, z'

loop_
  _atom_site_label
  _atom_site_occupancy
  _atom_site_fract_x
  _atom_site_fract_y
  _atom_site_fract_z
  _atom_site_thermal_displace_type
  _atom_site_B_iso_or_equiv
  _atom_site_type_symbol
  Zn1      1.0000 0.41149  0.62629  0.29507  Biso   1.000  Zn
  O1       1.0000 0.34570  0.76508  0.79950  Biso   1.000  O
  O2       1.0000 0.28670  0.77715  0.64560  Biso   1.000  O
  O3       1.0000 0.95740  0.39795  0.64400  Biso   1.000  O
  O4       1.0000 0.75810  0.45461  0.72860  Biso   1.000  O
  N1       1.0000 0.59660  0.60033  0.20530  Biso   1.000  N
  N2       1.0000 0.49940  0.61632  0.43530  Biso   1.000  N
  C1       1.0000 0.65940  0.63510  0.47060  Biso   1.000  C
  H1       1.0000 0.74710  0.64290  0.42880  Biso   1.000  H
  C2       1.0000 0.69800  0.64330  0.56690  Biso   1.000  C
  H2       1.0000 0.81050  0.65590  0.58910  Biso   1.000  H
  C3       1.0000 0.57050  0.63280  0.62960  Biso   1.000  C
  H3       1.0000 0.59510  0.63860  0.69460  Biso   1.000  H
  C4       1.0000 0.40450  0.61330  0.59520  Biso   1.000  C
  C5       1.0000 0.37830  0.60440  0.49830  Biso   1.000  C
  H4       1.0000 0.26840  0.58910  0.47500  Biso   1.000  H
  C6       1.0000 0.25420  0.60250  0.65570  Biso   1.000  C
  C7       1.0000 0.20570  0.66100  0.71940  Biso   1.000  C
  C8       1.0000 0.06660  0.64860  0.77550  Biso   1.000  C
  H5       1.0000 0.03810  0.68610  0.81950  Biso   1.000  H
  C9       1.0000 0.73360  0.64500  0.19140  Biso   1.000  C
  H6       1.0000 0.74420  0.69150  0.22460  Biso   1.000  H
  C10      1.0000 0.86080  0.62570  0.13050  Biso   1.000  C
  H7       1.0000 0.95410  0.65900  0.12320  Biso   1.000  H
  C11      1.0000 0.84970  0.55680  0.08010  Biso   1.000  C
  C12      1.0000 0.70410  0.51110  0.09200  Biso   1.000  C
  H8       1.0000 0.68860  0.46520  0.05790  Biso   1.000  H
  C13      1.0000 0.58300  0.53400  0.15430  Biso   1.000  C
  H9       1.0000 0.48690  0.50240  0.16180  Biso   1.000  H
  C14      1.0000 0.99040  0.53380  0.01950  Biso   1.000  C
  H10      1.0000 0.07370  0.57120  0.00780  Biso   1.000  H
  C15      1.0000 0.90480  0.45280  0.69040  Biso   1.000  C
  C16      1.0000 0.01220  0.52460  0.70410  Biso   1.000  C
  C17      1.0000 0.15670  0.53500  0.64990  Biso   1.000  C
  H11      1.0000 0.18830  0.49580  0.60890  Biso   1.000  H
  C18      1.0000 0.96920  0.58160  0.76730  Biso   1.000  C
  H12      1.0000 0.87420  0.57480  0.80450  Biso   1.000  H
  C19      1.0000 0.28710  0.73960  0.71960  Biso   1.000  C
  Zn2      1.0000 0.58851  0.12629  0.20493  Biso   1.000  Zn
  O5       1.0000 0.65430  0.26508  0.70050  Biso   1.000  O
  O6       1.0000 0.71330  0.27715  0.85440  Biso   1.000  O
  O7       1.0000 0.04260  0.89795  0.85600  Biso   1.000  O
  O8       1.0000 0.24190  0.95461  0.77140  Biso   1.000  O
  N3       1.0000 0.40340  0.10033  0.29470  Biso   1.000  N
  N4       1.0000 0.50060  0.11632  0.06470  Biso   1.000  N
  C20      1.0000 0.34060  0.13510  0.02940  Biso   1.000  C
  H13      1.0000 0.25290  0.14290  0.07120  Biso   1.000  H
  C21      1.0000 0.30200  0.14330  0.93310  Biso   1.000  C
  H14      1.0000 0.18950  0.15590  0.91090  Biso   1.000  H
  C22      1.0000 0.42950  0.13280  0.87040  Biso   1.000  C
  H15      1.0000 0.40490  0.13860  0.80540  Biso   1.000  H
  C23      1.0000 0.59550  0.11330  0.90480  Biso   1.000  C
  C24      1.0000 0.62170  0.10440  0.00170  Biso   1.000  C
  H16      1.0000 0.73160  0.08910  0.02500  Biso   1.000  H
  C25      1.0000 0.74580  0.10250  0.84430  Biso   1.000  C
  C26      1.0000 0.79430  0.16100  0.78060  Biso   1.000  C
  C27      1.0000 0.93340  0.14860  0.72450  Biso   1.000  C
  H17      1.0000 0.96190  0.18610  0.68050  Biso   1.000  H
  C28      1.0000 0.26640  0.14500  0.30860  Biso   1.000  C
  H18      1.0000 0.25580  0.19150  0.27540  Biso   1.000  H
  C29      1.0000 0.13920  0.12570  0.36950  Biso   1.000  C
  H19      1.0000 0.04590  0.15900  0.37680  Biso   1.000  H
  C30      1.0000 0.15030  0.05680  0.41990  Biso   1.000  C
  C31      1.0000 0.29590  0.01110  0.40800  Biso   1.000  C
  H20      1.0000 0.31140  0.96520  0.44210  Biso   1.000  H
  C32      1.0000 0.41700  0.03400  0.34570  Biso   1.000  C
  H21      1.0000 0.51310  0.00240  0.33820  Biso   1.000  H
  C33      1.0000 0.00960  0.03380  0.48050  Biso   1.000  C
  H22      1.0000 0.92630  0.07120  0.49220  Biso   1.000  H
  C34      1.0000 0.09520  0.95280  0.80960  Biso   1.000  C
  C35      1.0000 0.98780  0.02460  0.79590  Biso   1.000  C
  C36      1.0000 0.84330  0.03500  0.85010  Biso   1.000  C
  H23      1.0000 0.81170  0.99580  0.89110  Biso   1.000  H
  C37      1.0000 0.03080  0.08160  0.73270  Biso   1.000  C
  H24      1.0000 0.12580  0.07480  0.69550  Biso   1.000  H
  C38      1.0000 0.71290  0.23960  0.78040  Biso   1.000  C
  Zn3      1.0000 0.58851  0.37371  0.70493  Biso   1.000  Zn
  O9       1.0000 0.65430  0.23492  0.20050  Biso   1.000  O
  O10      1.0000 0.71330  0.22285  0.35440  Biso   1.000  O
  O11      1.0000 0.04260  0.60205  0.35600  Biso   1.000  O
  O12      1.0000 0.24190  0.54539  0.27140  Biso   1.000  O
  N5       1.0000 0.40340  0.39967  0.79470  Biso   1.000  N
  N6       1.0000 0.50060  0.38368  0.56470  Biso   1.000  N
  C39      1.0000 0.34060  0.36490  0.52940  Biso   1.000  C
  H25      1.0000 0.25290  0.35710  0.57120  Biso   1.000  H
  C40      1.0000 0.30200  0.35670  0.43310  Biso   1.000  C
  H26      1.0000 0.18950  0.34410  0.41090  Biso   1.000  H
  C41      1.0000 0.42950  0.36720  0.37040  Biso   1.000  C
  H27      1.0000 0.40490  0.36140  0.30540  Biso   1.000  H
  C42      1.0000 0.59550  0.38670  0.40480  Biso   1.000  C
  C43      1.0000 0.62170  0.39560  0.50170  Biso   1.000  C
  H28      1.0000 0.73160  0.41090  0.52500  Biso   1.000  H
  C44      1.0000 0.74580  0.39750  0.34430  Biso   1.000  C
  C45      1.0000 0.79430  0.33900  0.28060  Biso   1.000  C
  C46      1.0000 0.93340  0.35140  0.22450  Biso   1.000  C
  H29      1.0000 0.96190  0.31390  0.18050  Biso   1.000  H
  C47      1.0000 0.26640  0.35500  0.80860  Biso   1.000  C
  H30      1.0000 0.25580  0.30850  0.77540  Biso   1.000  H
  C48      1.0000 0.13920  0.37430  0.86950  Biso   1.000  C
  H31      1.0000 0.04590  0.34100  0.87680  Biso   1.000  H
  C49      1.0000 0.15030  0.44320  0.91990  Biso   1.000  C
  C50      1.0000 0.29590  0.48890  0.90800  Biso   1.000  C
  H32      1.0000 0.31140  0.53480  0.94210  Biso   1.000  H
  C51      1.0000 0.41700  0.46600  0.84570  Biso   1.000  C
  H33      1.0000 0.51310  0.49760  0.83820  Biso   1.000  H
  C52      1.0000 0.00960  0.46620  0.98050  Biso   1.000  C
  H34      1.0000 0.92630  0.42880  0.99220  Biso   1.000  H
  C53      1.0000 0.09520  0.54720  0.30960  Biso   1.000  C
  C54      1.0000 0.98780  0.47540  0.29590  Biso   1.000  C
  C55      1.0000 0.84330  0.46500  0.35010  Biso   1.000  C
  H35      1.0000 0.81170  0.50420  0.39110  Biso   1.000  H
  C56      1.0000 0.03080  0.41840  0.23270  Biso   1.000  C
  H36      1.0000 0.12580  0.42520  0.19550  Biso   1.000  H
  C57      1.0000 0.71290  0.26040  0.28040  Biso   1.000  C
  Zn4      1.0000 0.41149  0.87371  0.79507  Biso   1.000  Zn
  O13      1.0000 0.34570  0.73492  0.29950  Biso   1.000  O
  O14      1.0000 0.28670  0.72285  0.14560  Biso   1.000  O
  O15      1.0000 0.95740  0.10205  0.14400  Biso   1.000  O
  O16      1.0000 0.75810  0.04539  0.22860  Biso   1.000  O
  N7       1.0000 0.59660  0.89967  0.70530  Biso   1.000  N
  N8       1.0000 0.49940  0.88368  0.93530  Biso   1.000  N
  C58      1.0000 0.65940  0.86490  0.97060  Biso   1.000  C
  H37      1.0000 0.74710  0.85710  0.92880  Biso   1.000  H
  C59      1.0000 0.69800  0.85670  0.06690  Biso   1.000  C
  H38      1.0000 0.81050  0.84410  0.08910  Biso   1.000  H
  C60      1.0000 0.57050  0.86720  0.12960  Biso   1.000  C
  H39      1.0000 0.59510  0.86140  0.19460  Biso   1.000  H
  C61      1.0000 0.40450  0.88670  0.09520  Biso   1.000  C
  C62      1.0000 0.37830  0.89560  0.99830  Biso   1.000  C
  H40      1.0000 0.26840  0.91090  0.97500  Biso   1.000  H
  C63      1.0000 0.25420  0.89750  0.15570  Biso   1.000  C
  C64      1.0000 0.20570  0.83900  0.21940  Biso   1.000  C
  C65      1.0000 0.06660  0.85140  0.27550  Biso   1.000  C
  H41      1.0000 0.03810  0.81390  0.31950  Biso   1.000  H
  C66      1.0000 0.73360  0.85500  0.69140  Biso   1.000  C
  H42      1.0000 0.74420  0.80850  0.72460  Biso   1.000  H
  C67      1.0000 0.86080  0.87430  0.63050  Biso   1.000  C
  H43      1.0000 0.95410  0.84100  0.62320  Biso   1.000  H
  C68      1.0000 0.84970  0.94320  0.58010  Biso   1.000  C
  C69      1.0000 0.70410  0.98890  0.59200  Biso   1.000  C
  H44      1.0000 0.68860  0.03480  0.55790  Biso   1.000  H
  C70      1.0000 0.58300  0.96600  0.65430  Biso   1.000  C
  H45      1.0000 0.48690  0.99760  0.66180  Biso   1.000  H
  C71      1.0000 0.99040  0.96620  0.51950  Biso   1.000  C
  H46      1.0000 0.07370  0.92880  0.50780  Biso   1.000  H
  C72      1.0000 0.90480  0.04720  0.19040  Biso   1.000  C
  C73      1.0000 0.01220  0.97540  0.20410  Biso   1.000  C
  C74      1.0000 0.15670  0.96500  0.14990  Biso   1.000  C
  H47      1.0000 0.18830  0.00420  0.10890  Biso   1.000  H
  C75      1.0000 0.96920  0.91840  0.26730  Biso   1.000  C
  H48      1.0000 0.87420  0.92520  0.30450  Biso   1.000  H
  C76      1.0000 0.28710  0.76040  0.21960  Biso   1.000  C
