data_GEWXAJ_clean
_audit_creation_date              2014-07-02
_audit_creation_method            'Materials Studio'
_symmetry_space_group_name_H-M    'P1'
_symmetry_Int_Tables_number       1
_symmetry_cell_setting            triclinic
loop_
_symmetry_equiv_pos_as_xyz
  x,y,z
_cell_length_a                    7.3960
_cell_length_b                    15.6660
_cell_length_c                    17.5706
_cell_angle_alpha                 110.8960
_cell_angle_beta                  102.1500
_cell_angle_gamma                 90.0000
loop_
_atom_site_label
_atom_site_type_symbol
_atom_site_fract_x
_atom_site_fract_y
_atom_site_fract_z
_atom_site_U_iso_or_equiv
_atom_site_adp_type
_atom_site_occupancy
Cu1    Cu    0.89038   0.41503   0.50522   0.01267  Uiso   1.00
Cu2    Cu    0.88923   0.40794   0.32454   0.01267  Uiso   1.00
Cu3    Cu    0.38516   0.08497   0.49478   0.01267  Uiso   1.00
Cu4    Cu    0.56469   0.09206   0.67546   0.01267  Uiso   1.00
Cu5    Cu    0.10962   0.58497   0.49478   0.01267  Uiso   1.00
Cu6    Cu    0.11077   0.59206   0.67546   0.01267  Uiso   1.00
Cu7    Cu    0.61484   0.91503   0.50522   0.01267  Uiso   1.00
Cu8    Cu    0.43531   0.90794   0.32454   0.01267  Uiso   1.00
H1     H     0.25850   0.46930   0.78720   0.01267  Uiso   1.00
H2     H     0.01530   0.26020   0.58840   0.01267  Uiso   1.00
H3     H     0.16980   0.22520   0.72540   0.01267  Uiso   1.00
H4     H     0.26700   0.30470   0.79980   0.01267  Uiso   1.00
H5     H     0.85540   0.11680   0.43600   0.01267  Uiso   1.00
H6     H     0.98680   0.13590   0.23240   0.01267  Uiso   1.00
H7     H     0.02420   0.98100   0.18160   0.01267  Uiso   1.00
H8     H     0.38630   0.31620   0.12380   0.01267  Uiso   1.00
H9     H     0.99350   0.89480   0.26200   0.01267  Uiso   1.00
H10    H     0.47130   0.03070   0.21280   0.01267  Uiso   1.00
H11    H     0.42690   0.23980   0.41160   0.01267  Uiso   1.00
H12    H     0.44440   0.27480   0.27460   0.01267  Uiso   1.00
H13    H     0.46720   0.19530   0.20020   0.01267  Uiso   1.00
H14    H     0.41940   0.38320   0.56400   0.01267  Uiso   1.00
H15    H     0.75440   0.36410   0.76760   0.01267  Uiso   1.00
H16    H     0.84260   0.51900   0.81840   0.01267  Uiso   1.00
H17    H     0.26250   0.18380   0.87620   0.01267  Uiso   1.00
H18    H     0.73150   0.60520   0.73800   0.01267  Uiso   1.00
H19    H     0.74150   0.53070   0.21280   0.01267  Uiso   1.00
H20    H     0.98470   0.73980   0.41160   0.01267  Uiso   1.00
H21    H     0.83020   0.77480   0.27460   0.01267  Uiso   1.00
H22    H     0.73300   0.69530   0.20020   0.01267  Uiso   1.00
H23    H     0.14460   0.88320   0.56400   0.01267  Uiso   1.00
H24    H     0.01320   0.86410   0.76760   0.01267  Uiso   1.00
H25    H     0.97580   0.01900   0.81840   0.01267  Uiso   1.00
H26    H     0.61370   0.68380   0.87620   0.01267  Uiso   1.00
H27    H     0.00650   0.10520   0.73800   0.01267  Uiso   1.00
H28    H     0.52870   0.96930   0.78720   0.01267  Uiso   1.00
H29    H     0.57310   0.76020   0.58840   0.01267  Uiso   1.00
H30    H     0.55560   0.72520   0.72540   0.01267  Uiso   1.00
H31    H     0.53280   0.80470   0.79980   0.01267  Uiso   1.00
H32    H     0.58060   0.61680   0.43600   0.01267  Uiso   1.00
H33    H     0.24560   0.63590   0.23240   0.01267  Uiso   1.00
H34    H     0.15740   0.48100   0.18160   0.01267  Uiso   1.00
H35    H     0.73750   0.81620   0.12380   0.01267  Uiso   1.00
H36    H     0.26850   0.39480   0.26200   0.01267  Uiso   1.00
H37    H     0.79210   0.25000   0.00000   0.01267  Uiso   1.00
H38    H     0.17080   0.25000   0.00000   0.01267  Uiso   1.00
H39    H     0.20790   0.75000   0.00000   0.01267  Uiso   1.00
H40    H     0.82920   0.75000   0.00000   0.01267  Uiso   1.00
C1     C     0.19070   0.43410   0.73400   0.01267  Uiso   1.00
C2     C     0.05740   0.31960   0.62500   0.01267  Uiso   1.00
C3     C     0.88181   0.93770   0.40402   0.01267  Uiso   1.00
C4     C     0.89100   0.08990   0.38540   0.01267  Uiso   1.00
C5     C     0.92110   0.14200   0.34000   0.01267  Uiso   1.00
C6     C     0.91460   0.99660   0.35520   0.01267  Uiso   1.00
C7     C     0.90300   0.24340   0.37080   0.01267  Uiso   1.00
C8     C     0.96980   0.10060   0.26340   0.01267  Uiso   1.00
C9     C     0.99350   0.00820   0.23320   0.01267  Uiso   1.00
C10    C     0.75720   0.32990   0.15640   0.01267  Uiso   1.00
C11    C     0.61290   0.28950   0.07560   0.01267  Uiso   1.00
C12    C     0.42560   0.28940   0.07420   0.01267  Uiso   1.00
C13    C     0.97100   0.95650   0.28020   0.01267  Uiso   1.00
C14    C     0.45670   0.06590   0.26600   0.01267  Uiso   1.00
C15    C     0.43240   0.18040   0.37500   0.01267  Uiso   1.00
C16    C     0.47779   0.56230   0.59598   0.01267  Uiso   1.00
C17    C     0.50560   0.41010   0.61460   0.01267  Uiso   1.00
C18    C     0.58110   0.35800   0.66000   0.01267  Uiso   1.00
C19    C     0.55940   0.50340   0.64480   0.01267  Uiso   1.00
C20    C     0.53220   0.25660   0.62920   0.01267  Uiso   1.00
C21    C     0.70640   0.39940   0.73660   0.01267  Uiso   1.00
C22    C     0.76030   0.49180   0.76680   0.01267  Uiso   1.00
C23    C     0.60080   0.17010   0.84360   0.01267  Uiso   1.00
C24    C     0.53730   0.21050   0.92440   0.01267  Uiso   1.00
C25    C     0.35140   0.21060   0.92580   0.01267  Uiso   1.00
C26    C     0.69080   0.54350   0.71980   0.01267  Uiso   1.00
C27    C     0.80930   0.56590   0.26600   0.01267  Uiso   1.00
C28    C     0.94260   0.68040   0.37500   0.01267  Uiso   1.00
C29    C     0.11819   0.06230   0.59598   0.01267  Uiso   1.00
C30    C     0.10900   0.91010   0.61460   0.01267  Uiso   1.00
C31    C     0.07890   0.85800   0.66000   0.01267  Uiso   1.00
C32    C     0.08540   0.00340   0.64480   0.01267  Uiso   1.00
C33    C     0.09700   0.75660   0.62920   0.01267  Uiso   1.00
C34    C     0.03020   0.89940   0.73660   0.01267  Uiso   1.00
C35    C     0.00650   0.99180   0.76680   0.01267  Uiso   1.00
C36    C     0.24280   0.67010   0.84360   0.01267  Uiso   1.00
C37    C     0.38710   0.71050   0.92440   0.01267  Uiso   1.00
C38    C     0.57440   0.71060   0.92580   0.01267  Uiso   1.00
C39    C     0.02900   0.04350   0.71980   0.01267  Uiso   1.00
C40    C     0.54330   0.93410   0.73400   0.01267  Uiso   1.00
C41    C     0.56760   0.81960   0.62500   0.01267  Uiso   1.00
C42    C     0.52221   0.43770   0.40402   0.01267  Uiso   1.00
C43    C     0.49440   0.58990   0.38540   0.01267  Uiso   1.00
C44    C     0.41890   0.64200   0.34000   0.01267  Uiso   1.00
C45    C     0.44060   0.49660   0.35520   0.01267  Uiso   1.00
C46    C     0.46780   0.74340   0.37080   0.01267  Uiso   1.00
C47    C     0.29360   0.60060   0.26340   0.01267  Uiso   1.00
C48    C     0.23970   0.50820   0.23320   0.01267  Uiso   1.00
C49    C     0.39920   0.82990   0.15640   0.01267  Uiso   1.00
C50    C     0.46270   0.78950   0.07560   0.01267  Uiso   1.00
C51    C     0.64860   0.78940   0.07420   0.01267  Uiso   1.00
C52    C     0.30920   0.45650   0.28020   0.01267  Uiso   1.00
C53    C     0.66640   0.25000  -0.00000   0.01267  Uiso   1.00
C54    C     0.29700   0.25000   0.00000   0.01267  Uiso   1.00
C55    C     0.33360   0.75000   0.00000   0.01267  Uiso   1.00
C56    C     0.70300   0.75000   0.00000   0.01267  Uiso   1.00
N1     N     0.03014   0.39260   0.60688   0.01267  Uiso   1.00
N2     N     0.11596   0.46580   0.67712   0.01267  Uiso   1.00
N3     N     0.15520   0.34190   0.70440   0.01267  Uiso   1.00
N4     N     0.20370   0.28290   0.74900   0.01267  Uiso   1.00
N5     N     0.42326   0.10740   0.39312   0.01267  Uiso   1.00
N6     N     0.43884   0.03420   0.32288   0.01267  Uiso   1.00
N7     N     0.45080   0.15810   0.29560   0.01267  Uiso   1.00
N8     N     0.45470   0.21710   0.25100   0.01267  Uiso   1.00
N9     N     0.96986   0.60740   0.39312   0.01267  Uiso   1.00
N10    N     0.88404   0.53420   0.32288   0.01267  Uiso   1.00
N11    N     0.84480   0.65810   0.29560   0.01267  Uiso   1.00
N12    N     0.79630   0.71710   0.25100   0.01267  Uiso   1.00
N13    N     0.57674   0.89260   0.60688   0.01267  Uiso   1.00
N14    N     0.56116   0.96580   0.67712   0.01267  Uiso   1.00
N15    N     0.54920   0.84190   0.70440   0.01267  Uiso   1.00
N16    N     0.54530   0.78290   0.74900   0.01267  Uiso   1.00
O1     O     0.90967   0.28220   0.31934   0.01267  Uiso   1.00
O2     O     0.87989   0.28270   0.44478   0.01267  Uiso   1.00
O3     O     0.00088   0.89040   0.42276   0.01267  Uiso   1.00
O4     O     0.72173   0.94210   0.42186   0.01267  Uiso   1.00
O5     O     0.07384   0.45560   0.42908   0.01267  Uiso   1.00
O6     O     0.69670   0.36230   0.22120   0.01267  Uiso   1.00
O7     O     0.92320   0.32820   0.15560   0.01267  Uiso   1.00
O8     O     0.59033   0.21780   0.68066   0.01267  Uiso   1.00
O9     O     0.43511   0.21730   0.55522   0.01267  Uiso   1.00
O10    O     0.57812   0.60960   0.57724   0.01267  Uiso   1.00
O11    O     0.29987   0.55790   0.57814   0.01267  Uiso   1.00
O12    O     0.64476   0.04440   0.57092   0.01267  Uiso   1.00
O13    O     0.47550   0.13770   0.77880   0.01267  Uiso   1.00
O14    O     0.76760   0.17180   0.84440   0.01267  Uiso   1.00
O15    O     0.09033   0.71780   0.68066   0.01267  Uiso   1.00
O16    O     0.12011   0.71730   0.55522   0.01267  Uiso   1.00
O17    O     0.99912   0.10960   0.57724   0.01267  Uiso   1.00
O18    O     0.27827   0.05790   0.57814   0.01267  Uiso   1.00
O19    O     0.92616   0.54440   0.57092   0.01267  Uiso   1.00
O20    O     0.30330   0.63770   0.77880   0.01267  Uiso   1.00
O21    O     0.07680   0.67180   0.84440   0.01267  Uiso   1.00
O22    O     0.40967   0.78220   0.31934   0.01267  Uiso   1.00
O23    O     0.56489   0.78270   0.44478   0.01267  Uiso   1.00
O24    O     0.42188   0.39040   0.42276   0.01267  Uiso   1.00
O25    O     0.70013   0.44210   0.42186   0.01267  Uiso   1.00
O26    O     0.35524   0.95560   0.42908   0.01267  Uiso   1.00
O27    O     0.52450   0.86230   0.22120   0.01267  Uiso   1.00
O28    O     0.23240   0.82820   0.15560   0.01267  Uiso   1.00
