data_GEZFOI_charged
_audit_creation_date              2014-07-02
_audit_creation_method            'Materials Studio'
_symmetry_space_group_name_H-M    'P1'
_symmetry_Int_Tables_number       1
_symmetry_cell_setting            triclinic
loop_
_symmetry_equiv_pos_as_xyz
  x,y,z
_cell_length_a                    10.5415
_cell_length_b                    10.5415
_cell_length_c                    16.9981
_cell_angle_alpha                 77.7990
_cell_angle_beta                  73.3610
_cell_angle_gamma                 101.3900
loop_
_atom_site_label
_atom_site_type_symbol
_atom_site_fract_x
_atom_site_fract_y
_atom_site_fract_z
_atom_site_U_iso_or_equiv
_atom_site_adp_type
_atom_site_occupancy
Cd1    Cd    0.50000   0.50000   0.00000   0.01267  Uiso   1.00
Cd2    Cd    0.00000   0.50000   0.50000   0.01267  Uiso   1.00
H1     H     0.19360   0.39520   0.75440   0.01267  Uiso   1.00
H2     H     0.09540   0.50350   0.66530   0.01267  Uiso   1.00
H3     H     0.14910   0.25910   0.52240   0.01267  Uiso   1.00
H4     H     0.24050   0.13840   0.60870   0.01267  Uiso   1.00
H5     H     0.44670   0.42850   0.71460   0.01267  Uiso   1.00
H6     H     0.52330   0.53010   0.80740   0.01267  Uiso   1.00
H7     H     0.32660   0.20350   0.99990   0.01267  Uiso   1.00
H8     H     0.24100   0.09290   0.91170   0.01267  Uiso   1.00
H9     H     0.28650   0.02620   0.69870   0.01267  Uiso   1.00
H10    H     0.64960   0.94800   0.74560   0.01267  Uiso   1.00
H11    H     0.66880   0.76070   0.83470   0.01267  Uiso   1.00
H12    H     0.28150   0.67150   0.97760   0.01267  Uiso   1.00
H13    H     0.24710   0.84920   0.89130   0.01267  Uiso   1.00
H14    H     0.64310   0.16130   0.78540   0.01267  Uiso   1.00
H15    H     0.83750   0.33070   0.69260   0.01267  Uiso   1.00
H16    H     0.70340   0.32650   0.50010   0.01267  Uiso   1.00
H17    H     0.50460   0.15270   0.58830   0.01267  Uiso   1.00
H18    H     0.22490   0.98520   0.80130   0.01267  Uiso   1.00
H19    H     0.80640   0.60480   0.24560   0.01267  Uiso   1.00
H20    H     0.90460   0.49650   0.33470   0.01267  Uiso   1.00
H21    H     0.85090   0.74090   0.47760   0.01267  Uiso   1.00
H22    H     0.75950   0.86160   0.39130   0.01267  Uiso   1.00
H23    H     0.55330   0.57150   0.28540   0.01267  Uiso   1.00
H24    H     0.47670   0.46990   0.19260   0.01267  Uiso   1.00
H25    H     0.67340   0.79650   0.00010   0.01267  Uiso   1.00
H26    H     0.75900   0.90710   0.08830   0.01267  Uiso   1.00
H27    H     0.71350   0.97380   0.30130   0.01267  Uiso   1.00
H28    H     0.35040   0.05200   0.25440   0.01267  Uiso   1.00
H29    H     0.33120   0.23930   0.16530   0.01267  Uiso   1.00
H30    H     0.71850   0.32850   0.02240   0.01267  Uiso   1.00
H31    H     0.75290   0.15080   0.10870   0.01267  Uiso   1.00
H32    H     0.35690   0.83870   0.21460   0.01267  Uiso   1.00
H33    H     0.16250   0.66930   0.30740   0.01267  Uiso   1.00
H34    H     0.29660   0.67350   0.49990   0.01267  Uiso   1.00
H35    H     0.49540   0.84730   0.41170   0.01267  Uiso   1.00
H36    H     0.77510   0.01480   0.19870   0.01267  Uiso   1.00
C1     C     0.18470   0.36410   0.70720   0.01267  Uiso   1.00
C2     C     0.12620   0.42850   0.65330   0.01267  Uiso   1.00
C3     C     0.15630   0.28610   0.57120   0.01267  Uiso   1.00
C4     C     0.21320   0.21440   0.62160   0.01267  Uiso   1.00
C5     C     0.23100   0.25280   0.69200   0.01267  Uiso   1.00
C6     C     0.33490   0.25030   0.80300   0.01267  Uiso   1.00
C7     C     0.41930   0.38000   0.77330   0.01267  Uiso   1.00
C8     C     0.46460   0.44040   0.82920   0.01267  Uiso   1.00
C9     C     0.34970   0.25060   0.94130   0.01267  Uiso   1.00
C10    C     0.29880   0.18290   0.88870   0.01267  Uiso   1.00
C11    C     0.57130   0.89190   0.79280   0.01267  Uiso   1.00
C12    C     0.58180   0.77950   0.84670   0.01267  Uiso   1.00
C13    C     0.35730   0.72750   0.92880   0.01267  Uiso   1.00
C14    C     0.33600   0.83480   0.87840   0.01267  Uiso   1.00
C15    C     0.44480   0.92300   0.80800   0.01267  Uiso   1.00
C16    C     0.55330   0.13790   0.69700   0.01267  Uiso   1.00
C17    C     0.65330   0.19260   0.72670   0.01267  Uiso   1.00
C18    C     0.76960   0.29380   0.67080   0.01267  Uiso   1.00
C19    C     0.69190   0.29100   0.55870   0.01267  Uiso   1.00
C20    C     0.57160   0.18750   0.61130   0.01267  Uiso   1.00
C21    C     0.81530   0.63590   0.29280   0.01267  Uiso   1.00
C22    C     0.87380   0.57150   0.34670   0.01267  Uiso   1.00
C23    C     0.84370   0.71390   0.42880   0.01267  Uiso   1.00
C24    C     0.78680   0.78560   0.37840   0.01267  Uiso   1.00
C25    C     0.76900   0.74720   0.30800   0.01267  Uiso   1.00
C26    C     0.66510   0.74970   0.19700   0.01267  Uiso   1.00
C27    C     0.58070   0.62000   0.22670   0.01267  Uiso   1.00
C28    C     0.53540   0.55960   0.17080   0.01267  Uiso   1.00
C29    C     0.65030   0.74940   0.05870   0.01267  Uiso   1.00
C30    C     0.70120   0.81710   0.11130   0.01267  Uiso   1.00
C31    C     0.42870   0.10810   0.20720   0.01267  Uiso   1.00
C32    C     0.41820   0.22050   0.15330   0.01267  Uiso   1.00
C33    C     0.64270   0.27250   0.07120   0.01267  Uiso   1.00
C34    C     0.66400   0.16520   0.12160   0.01267  Uiso   1.00
C35    C     0.55520   0.07700   0.19200   0.01267  Uiso   1.00
C36    C     0.44670   0.86210   0.30300   0.01267  Uiso   1.00
C37    C     0.34670   0.80740   0.27330   0.01267  Uiso   1.00
C38    C     0.23040   0.70620   0.32920   0.01267  Uiso   1.00
C39    C     0.30810   0.70900   0.44130   0.01267  Uiso   1.00
C40    C     0.42840   0.81250   0.38870   0.01267  Uiso   1.00
C41    C     0.29920   0.04920   0.75000   0.01267  Uiso   1.00
C42    C     0.70080   0.95080   0.25000   0.01267  Uiso   1.00
N1     N     0.10990   0.39170   0.58520   0.01267  Uiso   1.00
N2     N     0.29130   0.18710   0.74600   0.01267  Uiso   1.00
N3     N     0.42840   0.37690   0.91290   0.01267  Uiso   1.00
N4     N     0.47690   0.69510   0.91480   0.01267  Uiso   1.00
N5     N     0.43310   0.03730   0.75400   0.01267  Uiso   1.00
N6     N     0.78980   0.34130   0.58710   0.01267  Uiso   1.00
N7     N     0.89010   0.60830   0.41480   0.01267  Uiso   1.00
N8     N     0.70870   0.81290   0.25400   0.01267  Uiso   1.00
N9     N     0.57160   0.62310   0.08710   0.01267  Uiso   1.00
N10    N     0.52310   0.30490   0.08520   0.01267  Uiso   1.00
N11    N     0.56690   0.96270   0.24600   0.01267  Uiso   1.00
N12    N     0.21020   0.65870   0.41290   0.01267  Uiso   1.00
O1     O     0.72610   0.55330   0.90840   0.01267  Uiso   1.00
O2     O     0.96170   0.63450   0.59160   0.01267  Uiso   1.00
O3     O     0.27390   0.44670   0.09160   0.01267  Uiso   1.00
O4     O     0.03830   0.36550   0.40840   0.01267  Uiso   1.00
N13    N     0.91840   0.03290   0.83590   0.01267  Uiso   1.00
O5     O     0.94550   0.95010   0.80140   0.01267  Uiso   1.00
O6     O     0.94070   0.03650   0.89700   0.01267  Uiso   1.00
O7     O     0.86850   0.11310   0.80780   0.01267  Uiso   1.00
N14    N     0.36880   0.75430   0.66410   0.01267  Uiso   1.00
O8     O     0.25150   0.74690   0.69860   0.01267  Uiso   1.00
O9     O     0.43350   0.83770   0.60300   0.01267  Uiso   1.00
O10    O     0.42090   0.67630   0.69220   0.01267  Uiso   1.00
N15    N     0.08160   0.96710   0.16410   0.01267  Uiso   1.00
O11    O     0.05450   0.04990   0.19860   0.01267  Uiso   1.00
O12    O     0.05930   0.96350   0.10300   0.01267  Uiso   1.00
O13    O     0.13150   0.88690   0.19220   0.01267  Uiso   1.00
N16    N     0.63120   0.24570   0.33590   0.01267  Uiso   1.00
O14    O     0.74850   0.25310   0.30140   0.01267  Uiso   1.00
O15    O     0.56650   0.16230   0.39700   0.01267  Uiso   1.00
O16    O     0.57910   0.32370   0.30780   0.01267  Uiso   1.00
