data_image0
_cell_length_a       13.4125
_cell_length_b       13.4125
_cell_length_c       27.8003
_cell_angle_alpha    90
_cell_angle_beta     90
_cell_angle_gamma    120

_symmetry_space_group_name_H-M    "P 1"
_symmetry_int_tables_number       1

loop_
  _symmetry_equiv_pos_as_xyz
  'x, y, z'

loop_
  _atom_site_label
  _atom_site_occupancy
  _atom_site_fract_x
  _atom_site_fract_y
  _atom_site_fract_z
  _atom_site_thermal_displace_type
  _atom_site_B_iso_or_equiv
  _atom_site_type_symbol
  V1       1.0000 0.29251  0.85685  0.52686  Biso   1.000  V
  P1       1.0000 0.16281  0.97533  0.58404  Biso   1.000  P
  P2       1.0000 0.12690  0.63024  0.46386  Biso   1.000  P
  O1       1.0000 0.15020  0.71700  0.50377  Biso   1.000  O
  O2       1.0000 0.16820  0.54710  0.47567  Biso   1.000  O
  O3       1.0000 0.00050  0.56970  0.45009  Biso   1.000  O
  O4       1.0000 0.18660  0.87960  0.56980  Biso   1.000  O
  O5       1.0000 0.32600  0.77260  0.57592  Biso   1.000  O
  O6       1.0000 0.25800  0.94740  0.47394  Biso   1.000  O
  O7       1.0000 0.14120  0.08070  0.70447  Biso   1.000  O
  O8       1.0000 0.07130  0.92960  0.62249  Biso   1.000  O
  O9       1.0000 0.13640  0.02860  0.54050  Biso   1.000  O
  H1       1.0000 0.16500  0.67400  0.41980  Biso   1.000  H
  H2       1.0000 0.25900  0.06000  0.60390  Biso   1.000  H
  H3       1.0000 0.19000  0.93500  0.47300  Biso   1.000  H
  V2       1.0000 0.14315  0.43566  0.52686  Biso   1.000  V
  P3       1.0000 0.02467  0.18748  0.58404  Biso   1.000  P
  P4       1.0000 0.36976  0.49666  0.46386  Biso   1.000  P
  O10      1.0000 0.28300  0.43320  0.50377  Biso   1.000  O
  O11      1.0000 0.45290  0.62110  0.47567  Biso   1.000  O
  O12      1.0000 0.43030  0.43080  0.45009  Biso   1.000  O
  O13      1.0000 0.12040  0.30700  0.56980  Biso   1.000  O
  O14      1.0000 0.22740  0.55340  0.57592  Biso   1.000  O
  O15      1.0000 0.05260  0.31060  0.47394  Biso   1.000  O
  O16      1.0000 0.91930  0.06050  0.70447  Biso   1.000  O
  O17      1.0000 0.07040  0.14170  0.62249  Biso   1.000  O
  O18      1.0000 0.97140  0.10780  0.54050  Biso   1.000  O
  H4       1.0000 0.32600  0.49100  0.41980  Biso   1.000  H
  H5       1.0000 0.94000  0.19900  0.60390  Biso   1.000  H
  H6       1.0000 0.06500  0.25500  0.47300  Biso   1.000  H
  V3       1.0000 0.56434  0.70749  0.52686  Biso   1.000  V
  P5       1.0000 0.81252  0.83719  0.58404  Biso   1.000  P
  P6       1.0000 0.50334  0.87310  0.46386  Biso   1.000  P
  O19      1.0000 0.56680  0.84980  0.50377  Biso   1.000  O
  O20      1.0000 0.37890  0.83180  0.47567  Biso   1.000  O
  O21      1.0000 0.56920  0.99950  0.45009  Biso   1.000  O
  O22      1.0000 0.69300  0.81340  0.56980  Biso   1.000  O
  O23      1.0000 0.44660  0.67400  0.57592  Biso   1.000  O
  O24      1.0000 0.68940  0.74200  0.47394  Biso   1.000  O
  O25      1.0000 0.93950  0.85880  0.70447  Biso   1.000  O
  O26      1.0000 0.85830  0.92870  0.62249  Biso   1.000  O
  O27      1.0000 0.89220  0.86360  0.54050  Biso   1.000  O
  H7       1.0000 0.50900  0.83500  0.41980  Biso   1.000  H
  H8       1.0000 0.80100  0.74100  0.60390  Biso   1.000  H
  H9       1.0000 0.74500  0.81000  0.47300  Biso   1.000  H
  V4       1.0000 0.70749  0.14315  0.02686  Biso   1.000  V
  P7       1.0000 0.83719  0.02467  0.08404  Biso   1.000  P
  P8       1.0000 0.87310  0.36976  0.96386  Biso   1.000  P
  O28      1.0000 0.84980  0.28300  0.00377  Biso   1.000  O
  O29      1.0000 0.83180  0.45290  0.97567  Biso   1.000  O
  O30      1.0000 0.99950  0.43030  0.95009  Biso   1.000  O
  O31      1.0000 0.81340  0.12040  0.06980  Biso   1.000  O
  O32      1.0000 0.67400  0.22740  0.07592  Biso   1.000  O
  O33      1.0000 0.74200  0.05260  0.97394  Biso   1.000  O
  O34      1.0000 0.85880  0.91930  0.20447  Biso   1.000  O
  O35      1.0000 0.92870  0.07040  0.12249  Biso   1.000  O
  O36      1.0000 0.86360  0.97140  0.04050  Biso   1.000  O
  H10      1.0000 0.83500  0.32600  0.91980  Biso   1.000  H
  H11      1.0000 0.74100  0.94000  0.10390  Biso   1.000  H
  H12      1.0000 0.81000  0.06500  0.97300  Biso   1.000  H
  V5       1.0000 0.85685  0.56434  0.02686  Biso   1.000  V
  P9       1.0000 0.97533  0.81252  0.08404  Biso   1.000  P
  P10      1.0000 0.63024  0.50334  0.96386  Biso   1.000  P
  O37      1.0000 0.71700  0.56680  0.00377  Biso   1.000  O
  O38      1.0000 0.54710  0.37890  0.97567  Biso   1.000  O
  O39      1.0000 0.56970  0.56920  0.95009  Biso   1.000  O
  O40      1.0000 0.87960  0.69300  0.06980  Biso   1.000  O
  O41      1.0000 0.77260  0.44660  0.07592  Biso   1.000  O
  O42      1.0000 0.94740  0.68940  0.97394  Biso   1.000  O
  O43      1.0000 0.08070  0.93950  0.20447  Biso   1.000  O
  O44      1.0000 0.92960  0.85830  0.12249  Biso   1.000  O
  O45      1.0000 0.02860  0.89220  0.04050  Biso   1.000  O
  H13      1.0000 0.67400  0.50900  0.91980  Biso   1.000  H
  H14      1.0000 0.06000  0.80100  0.10390  Biso   1.000  H
  H15      1.0000 0.93500  0.74500  0.97300  Biso   1.000  H
  V6       1.0000 0.43566  0.29251  0.02686  Biso   1.000  V
  P11      1.0000 0.18748  0.16281  0.08404  Biso   1.000  P
  P12      1.0000 0.49666  0.12690  0.96386  Biso   1.000  P
  O46      1.0000 0.43320  0.15020  0.00377  Biso   1.000  O
  O47      1.0000 0.62110  0.16820  0.97567  Biso   1.000  O
  O48      1.0000 0.43080  0.00050  0.95009  Biso   1.000  O
  O49      1.0000 0.30700  0.18660  0.06980  Biso   1.000  O
  O50      1.0000 0.55340  0.32600  0.07592  Biso   1.000  O
  O51      1.0000 0.31060  0.25800  0.97394  Biso   1.000  O
  O52      1.0000 0.06050  0.14120  0.20447  Biso   1.000  O
  O53      1.0000 0.14170  0.07130  0.12249  Biso   1.000  O
  O54      1.0000 0.10780  0.13640  0.04050  Biso   1.000  O
  H16      1.0000 0.49100  0.16500  0.91980  Biso   1.000  H
  H17      1.0000 0.19900  0.25900  0.10390  Biso   1.000  H
  H18      1.0000 0.25500  0.19000  0.97300  Biso   1.000  H
  V7       1.0000 0.70749  0.14315  0.47314  Biso   1.000  V
  P13      1.0000 0.83719  0.02467  0.41596  Biso   1.000  P
  P14      1.0000 0.87310  0.36976  0.53614  Biso   1.000  P
  O55      1.0000 0.84980  0.28300  0.49623  Biso   1.000  O
  O56      1.0000 0.83180  0.45290  0.52433  Biso   1.000  O
  O57      1.0000 0.99950  0.43030  0.54991  Biso   1.000  O
  O58      1.0000 0.81340  0.12040  0.43020  Biso   1.000  O
  O59      1.0000 0.67400  0.22740  0.42408  Biso   1.000  O
  O60      1.0000 0.74200  0.05260  0.52606  Biso   1.000  O
  O61      1.0000 0.85880  0.91930  0.29553  Biso   1.000  O
  O62      1.0000 0.92870  0.07040  0.37751  Biso   1.000  O
  O63      1.0000 0.86360  0.97140  0.45950  Biso   1.000  O
  H19      1.0000 0.83500  0.32600  0.58020  Biso   1.000  H
  H20      1.0000 0.74100  0.94000  0.39610  Biso   1.000  H
  H21      1.0000 0.81000  0.06500  0.52700  Biso   1.000  H
  V8       1.0000 0.85685  0.56434  0.47314  Biso   1.000  V
  P15      1.0000 0.97533  0.81252  0.41596  Biso   1.000  P
  P16      1.0000 0.63024  0.50334  0.53614  Biso   1.000  P
  O64      1.0000 0.71700  0.56680  0.49623  Biso   1.000  O
  O65      1.0000 0.54710  0.37890  0.52433  Biso   1.000  O
  O66      1.0000 0.56970  0.56920  0.54991  Biso   1.000  O
  O67      1.0000 0.87960  0.69300  0.43020  Biso   1.000  O
  O68      1.0000 0.77260  0.44660  0.42408  Biso   1.000  O
  O69      1.0000 0.94740  0.68940  0.52606  Biso   1.000  O
  O70      1.0000 0.08070  0.93950  0.29553  Biso   1.000  O
  O71      1.0000 0.92960  0.85830  0.37751  Biso   1.000  O
  O72      1.0000 0.02860  0.89220  0.45950  Biso   1.000  O
  H22      1.0000 0.67400  0.50900  0.58020  Biso   1.000  H
  H23      1.0000 0.06000  0.80100  0.39610  Biso   1.000  H
  H24      1.0000 0.93500  0.74500  0.52700  Biso   1.000  H
  V9       1.0000 0.43566  0.29251  0.47314  Biso   1.000  V
  P17      1.0000 0.18748  0.16281  0.41596  Biso   1.000  P
  P18      1.0000 0.49666  0.12690  0.53614  Biso   1.000  P
  O73      1.0000 0.43320  0.15020  0.49623  Biso   1.000  O
  O74      1.0000 0.62110  0.16820  0.52433  Biso   1.000  O
  O75      1.0000 0.43080  0.00050  0.54991  Biso   1.000  O
  O76      1.0000 0.30700  0.18660  0.43020  Biso   1.000  O
  O77      1.0000 0.55340  0.32600  0.42408  Biso   1.000  O
  O78      1.0000 0.31060  0.25800  0.52606  Biso   1.000  O
  O79      1.0000 0.06050  0.14120  0.29553  Biso   1.000  O
  O80      1.0000 0.14170  0.07130  0.37751  Biso   1.000  O
  O81      1.0000 0.10780  0.13640  0.45950  Biso   1.000  O
  H25      1.0000 0.49100  0.16500  0.58020  Biso   1.000  H
  H26      1.0000 0.19900  0.25900  0.39610  Biso   1.000  H
  H27      1.0000 0.25500  0.19000  0.52700  Biso   1.000  H
  V10      1.0000 0.29251  0.85685  0.97314  Biso   1.000  V
  P19      1.0000 0.16281  0.97533  0.91596  Biso   1.000  P
  P20      1.0000 0.12690  0.63024  0.03614  Biso   1.000  P
  O82      1.0000 0.15020  0.71700  0.99623  Biso   1.000  O
  O83      1.0000 0.16820  0.54710  0.02433  Biso   1.000  O
  O84      1.0000 0.00050  0.56970  0.04991  Biso   1.000  O
  O85      1.0000 0.18660  0.87960  0.93020  Biso   1.000  O
  O86      1.0000 0.32600  0.77260  0.92408  Biso   1.000  O
  O87      1.0000 0.25800  0.94740  0.02606  Biso   1.000  O
  O88      1.0000 0.14120  0.08070  0.79553  Biso   1.000  O
  O89      1.0000 0.07130  0.92960  0.87751  Biso   1.000  O
  O90      1.0000 0.13640  0.02860  0.95950  Biso   1.000  O
  H28      1.0000 0.16500  0.67400  0.08020  Biso   1.000  H
  H29      1.0000 0.25900  0.06000  0.89610  Biso   1.000  H
  H30      1.0000 0.19000  0.93500  0.02700  Biso   1.000  H
  V11      1.0000 0.14315  0.43566  0.97314  Biso   1.000  V
  P21      1.0000 0.02467  0.18748  0.91596  Biso   1.000  P
  P22      1.0000 0.36976  0.49666  0.03614  Biso   1.000  P
  O91      1.0000 0.28300  0.43320  0.99623  Biso   1.000  O
  O92      1.0000 0.45290  0.62110  0.02433  Biso   1.000  O
  O93      1.0000 0.43030  0.43080  0.04991  Biso   1.000  O
  O94      1.0000 0.12040  0.30700  0.93020  Biso   1.000  O
  O95      1.0000 0.22740  0.55340  0.92408  Biso   1.000  O
  O96      1.0000 0.05260  0.31060  0.02606  Biso   1.000  O
  O97      1.0000 0.91930  0.06050  0.79553  Biso   1.000  O
  O98      1.0000 0.07040  0.14170  0.87751  Biso   1.000  O
  O99      1.0000 0.97140  0.10780  0.95950  Biso   1.000  O
  H31      1.0000 0.32600  0.49100  0.08020  Biso   1.000  H
  H32      1.0000 0.94000  0.19900  0.89610  Biso   1.000  H
  H33      1.0000 0.06500  0.25500  0.02700  Biso   1.000  H
  V12      1.0000 0.56434  0.70749  0.97314  Biso   1.000  V
  P23      1.0000 0.81252  0.83719  0.91596  Biso   1.000  P
  P24      1.0000 0.50334  0.87310  0.03614  Biso   1.000  P
  O100     1.0000 0.56680  0.84980  0.99623  Biso   1.000  O
  O101     1.0000 0.37890  0.83180  0.02433  Biso   1.000  O
  O102     1.0000 0.56920  0.99950  0.04991  Biso   1.000  O
  O103     1.0000 0.69300  0.81340  0.93020  Biso   1.000  O
  O104     1.0000 0.44660  0.67400  0.92408  Biso   1.000  O
  O105     1.0000 0.68940  0.74200  0.02606  Biso   1.000  O
  O106     1.0000 0.93950  0.85880  0.79553  Biso   1.000  O
  O107     1.0000 0.85830  0.92870  0.87751  Biso   1.000  O
  O108     1.0000 0.89220  0.86360  0.95950  Biso   1.000  O
  H34      1.0000 0.50900  0.83500  0.08020  Biso   1.000  H
  H35      1.0000 0.80100  0.74100  0.89610  Biso   1.000  H
  H36      1.0000 0.74500  0.81000  0.02700  Biso   1.000  H
  V13      1.0000 0.00000  0.00000  0.50000  Biso   1.000  V
  V14      1.0000 0.00000  0.00000  0.00000  Biso   1.000  V
  V15      1.0000 0.00000  0.00000  0.66429  Biso   1.000  V
  V16      1.0000 0.00000  0.00000  0.16429  Biso   1.000  V
  V17      1.0000 0.00000  0.00000  0.33571  Biso   1.000  V
  V18      1.0000 0.00000  0.00000  0.83571  Biso   1.000  V
  P25      1.0000 0.33333  0.66667  0.58962  Biso   1.000  P
  H37      1.0000 0.33333  0.66667  0.63840  Biso   1.000  H
  P26      1.0000 0.66667  0.33333  0.08962  Biso   1.000  P
  H38      1.0000 0.66667  0.33333  0.13840  Biso   1.000  H
  P27      1.0000 0.66667  0.33333  0.41038  Biso   1.000  P
  H39      1.0000 0.66667  0.33333  0.36160  Biso   1.000  H
  P28      1.0000 0.33333  0.66667  0.91038  Biso   1.000  P
  H40      1.0000 0.33333  0.66667  0.86160  Biso   1.000  H
  P29      1.0000 0.19121  0.06594  0.75000  Biso   1.000  P
  O109     1.0000 0.32090  0.15060  0.75000  Biso   1.000  O
  H41      1.0000 0.35560  0.11470  0.75000  Biso   1.000  H
  H42      1.0000 0.19400  0.96400  0.75000  Biso   1.000  H
  P30      1.0000 0.93406  0.12527  0.75000  Biso   1.000  P
  O110     1.0000 0.84940  0.17030  0.75000  Biso   1.000  O
  H43      1.0000 0.88530  0.24090  0.75000  Biso   1.000  H
  H44      1.0000 0.03600  0.23000  0.75000  Biso   1.000  H
  P31      1.0000 0.87473  0.80879  0.75000  Biso   1.000  P
  O111     1.0000 0.82970  0.67910  0.75000  Biso   1.000  O
  H45      1.0000 0.75910  0.64440  0.75000  Biso   1.000  H
  H46      1.0000 0.77000  0.80600  0.75000  Biso   1.000  H
  P32      1.0000 0.80879  0.93406  0.25000  Biso   1.000  P
  O112     1.0000 0.67910  0.84940  0.25000  Biso   1.000  O
  H47      1.0000 0.64440  0.88530  0.25000  Biso   1.000  H
  H48      1.0000 0.80600  0.03600  0.25000  Biso   1.000  H
  P33      1.0000 0.06594  0.87473  0.25000  Biso   1.000  P
  O113     1.0000 0.15060  0.82970  0.25000  Biso   1.000  O
  H49      1.0000 0.11470  0.75910  0.25000  Biso   1.000  H
  H50      1.0000 0.96400  0.77000  0.25000  Biso   1.000  H
  P34      1.0000 0.12527  0.19121  0.25000  Biso   1.000  P
  O114     1.0000 0.17030  0.32090  0.25000  Biso   1.000  O
  H51      1.0000 0.24090  0.35560  0.25000  Biso   1.000  H
  H52      1.0000 0.23000  0.19400  0.25000  Biso   1.000  H
