data_GIHPAQ_clean
_audit_creation_date              2014-07-02
_audit_creation_method            'Materials Studio'
_symmetry_space_group_name_H-M    'P1'
_symmetry_Int_Tables_number       1
_symmetry_cell_setting            triclinic
loop_
_symmetry_equiv_pos_as_xyz
  x,y,z
_cell_length_a                    13.5977
_cell_length_b                    13.5977
_cell_length_c                    13.5977
_cell_angle_alpha                 101.9650
_cell_angle_beta                  101.9650
_cell_angle_gamma                 101.9650
loop_
_atom_site_label
_atom_site_type_symbol
_atom_site_fract_x
_atom_site_fract_y
_atom_site_fract_z
_atom_site_U_iso_or_equiv
_atom_site_adp_type
_atom_site_occupancy
Ni1    Ni    0.61805   0.38195   0.00000   0.01267  Uiso   1.00
Ni2    Ni    0.00000   0.61805   0.38195   0.01267  Uiso   1.00
Ni3    Ni    0.38195   0.00000   0.61805   0.01267  Uiso   1.00
H1     H     0.82530   0.37950   0.12900   0.01267  Uiso   1.00
H2     H     0.90850   0.36570   0.81750   0.01267  Uiso   1.00
H3     H     0.24570   0.39450   0.88170   0.01267  Uiso   1.00
H4     H     0.41610   0.40630   0.87950   0.01267  Uiso   1.00
H5     H     0.47590   0.33170   0.14450   0.01267  Uiso   1.00
H6     H     0.98620   0.35900   0.11760   0.01267  Uiso   1.00
H7     H     0.08510   0.36030   0.88960   0.01267  Uiso   1.00
H8     H     0.13640   0.34810   0.09290   0.01267  Uiso   1.00
H9     H     0.30740   0.31770   0.15420   0.01267  Uiso   1.00
H10    H     0.74800   0.38250   0.83670   0.01267  Uiso   1.00
H11    H     0.12900   0.82530   0.37950   0.01267  Uiso   1.00
H12    H     0.81750   0.90850   0.36570   0.01267  Uiso   1.00
H13    H     0.88170   0.24570   0.39450   0.01267  Uiso   1.00
H14    H     0.87950   0.41610   0.40630   0.01267  Uiso   1.00
H15    H     0.14450   0.47590   0.33170   0.01267  Uiso   1.00
H16    H     0.11760   0.98620   0.35900   0.01267  Uiso   1.00
H17    H     0.88960   0.08510   0.36030   0.01267  Uiso   1.00
H18    H     0.09290   0.13640   0.34810   0.01267  Uiso   1.00
H19    H     0.15420   0.30740   0.31770   0.01267  Uiso   1.00
H20    H     0.83670   0.74800   0.38250   0.01267  Uiso   1.00
H21    H     0.37950   0.12900   0.82530   0.01267  Uiso   1.00
H22    H     0.36570   0.81750   0.90850   0.01267  Uiso   1.00
H23    H     0.39450   0.88170   0.24570   0.01267  Uiso   1.00
H24    H     0.40630   0.87950   0.41610   0.01267  Uiso   1.00
H25    H     0.33170   0.14450   0.47590   0.01267  Uiso   1.00
H26    H     0.35900   0.11760   0.98620   0.01267  Uiso   1.00
H27    H     0.36030   0.88960   0.08510   0.01267  Uiso   1.00
H28    H     0.34810   0.09290   0.13640   0.01267  Uiso   1.00
H29    H     0.31770   0.15420   0.30740   0.01267  Uiso   1.00
H30    H     0.38250   0.83670   0.74800   0.01267  Uiso   1.00
H31    H     0.62050   0.17470   0.87100   0.01267  Uiso   1.00
H32    H     0.63430   0.09150   0.18250   0.01267  Uiso   1.00
H33    H     0.60550   0.75430   0.11830   0.01267  Uiso   1.00
H34    H     0.59370   0.58390   0.12050   0.01267  Uiso   1.00
H35    H     0.66830   0.52410   0.85550   0.01267  Uiso   1.00
H36    H     0.64100   0.01380   0.88240   0.01267  Uiso   1.00
H37    H     0.63970   0.91490   0.11040   0.01267  Uiso   1.00
H38    H     0.65190   0.86360   0.90710   0.01267  Uiso   1.00
H39    H     0.68230   0.69260   0.84580   0.01267  Uiso   1.00
H40    H     0.61750   0.25200   0.16330   0.01267  Uiso   1.00
H41    H     0.17470   0.87100   0.62050   0.01267  Uiso   1.00
H42    H     0.09150   0.18250   0.63430   0.01267  Uiso   1.00
H43    H     0.75430   0.11830   0.60550   0.01267  Uiso   1.00
H44    H     0.58390   0.12050   0.59370   0.01267  Uiso   1.00
H45    H     0.52410   0.85550   0.66830   0.01267  Uiso   1.00
H46    H     0.01380   0.88240   0.64100   0.01267  Uiso   1.00
H47    H     0.91490   0.11040   0.63970   0.01267  Uiso   1.00
H48    H     0.86360   0.90710   0.65190   0.01267  Uiso   1.00
H49    H     0.69260   0.84580   0.68230   0.01267  Uiso   1.00
H50    H     0.25200   0.16330   0.61750   0.01267  Uiso   1.00
H51    H     0.87100   0.62050   0.17470   0.01267  Uiso   1.00
H52    H     0.18250   0.63430   0.09150   0.01267  Uiso   1.00
H53    H     0.11830   0.60550   0.75430   0.01267  Uiso   1.00
H54    H     0.12050   0.59370   0.58390   0.01267  Uiso   1.00
H55    H     0.85550   0.66830   0.52410   0.01267  Uiso   1.00
H56    H     0.88240   0.64100   0.01380   0.01267  Uiso   1.00
H57    H     0.11040   0.63970   0.91490   0.01267  Uiso   1.00
H58    H     0.90710   0.65190   0.86360   0.01267  Uiso   1.00
H59    H     0.84580   0.68230   0.69260   0.01267  Uiso   1.00
H60    H     0.16330   0.61750   0.25200   0.01267  Uiso   1.00
W1     W     0.50000   0.29285   0.70715   0.01267  Uiso   1.00
W2     W     0.70715   0.50000   0.29285   0.01267  Uiso   1.00
W3     W     0.29285   0.70715   0.50000   0.01267  Uiso   1.00
C1     C     0.84238   0.37652   0.06510   0.01267  Uiso   1.00
C2     C     0.89363   0.36887   0.88230   0.01267  Uiso   1.00
C3     C     0.29160   0.38210   0.93700   0.01267  Uiso   1.00
C4     C     0.96843   0.36365   0.96674   0.01267  Uiso   1.00
C5     C     0.39370   0.38830   0.93580   0.01267  Uiso   1.00
C6     C     0.42880   0.34470   0.09070   0.01267  Uiso   1.00
C7     C     0.25650   0.35730   0.01910   0.01267  Uiso   1.00
C8     C     0.93951   0.36535   0.05918   0.01267  Uiso   1.00
C9     C     0.07260   0.35940   0.95490   0.01267  Uiso   1.00
C10    C     0.15020   0.35420   0.02920   0.01267  Uiso   1.00
C11    C     0.32810   0.33690   0.09750   0.01267  Uiso   1.00
C12    C     0.79733   0.37882   0.89452   0.01267  Uiso   1.00
C13    C     0.06510   0.84238   0.37652   0.01267  Uiso   1.00
C14    C     0.88230   0.89363   0.36887   0.01267  Uiso   1.00
C15    C     0.93700   0.29160   0.38210   0.01267  Uiso   1.00
C16    C     0.96674   0.96843   0.36365   0.01267  Uiso   1.00
C17    C     0.93580   0.39370   0.38830   0.01267  Uiso   1.00
C18    C     0.09070   0.42880   0.34470   0.01267  Uiso   1.00
C19    C     0.01910   0.25650   0.35730   0.01267  Uiso   1.00
C20    C     0.05918   0.93951   0.36535   0.01267  Uiso   1.00
C21    C     0.95490   0.07260   0.35940   0.01267  Uiso   1.00
C22    C     0.02920   0.15020   0.35420   0.01267  Uiso   1.00
C23    C     0.09750   0.32810   0.33690   0.01267  Uiso   1.00
C24    C     0.89452   0.79733   0.37882   0.01267  Uiso   1.00
C25    C     0.37652   0.06510   0.84238   0.01267  Uiso   1.00
C26    C     0.36887   0.88230   0.89363   0.01267  Uiso   1.00
C27    C     0.38210   0.93700   0.29160   0.01267  Uiso   1.00
C28    C     0.36365   0.96674   0.96843   0.01267  Uiso   1.00
C29    C     0.38830   0.93580   0.39370   0.01267  Uiso   1.00
C30    C     0.34470   0.09070   0.42880   0.01267  Uiso   1.00
C31    C     0.35730   0.01910   0.25650   0.01267  Uiso   1.00
C32    C     0.36535   0.05918   0.93951   0.01267  Uiso   1.00
C33    C     0.35940   0.95490   0.07260   0.01267  Uiso   1.00
C34    C     0.35420   0.02920   0.15020   0.01267  Uiso   1.00
C35    C     0.33690   0.09750   0.32810   0.01267  Uiso   1.00
C36    C     0.37882   0.89452   0.79733   0.01267  Uiso   1.00
C37    C     0.62348   0.15762   0.93490   0.01267  Uiso   1.00
C38    C     0.63113   0.10637   0.11770   0.01267  Uiso   1.00
C39    C     0.61790   0.70840   0.06300   0.01267  Uiso   1.00
C40    C     0.63635   0.03157   0.03326   0.01267  Uiso   1.00
C41    C     0.61170   0.60630   0.06420   0.01267  Uiso   1.00
C42    C     0.65530   0.57120   0.90930   0.01267  Uiso   1.00
C43    C     0.64270   0.74350   0.98090   0.01267  Uiso   1.00
C44    C     0.63465   0.06049   0.94082   0.01267  Uiso   1.00
C45    C     0.64060   0.92740   0.04510   0.01267  Uiso   1.00
C46    C     0.64580   0.84980   0.97080   0.01267  Uiso   1.00
C47    C     0.66310   0.67190   0.90250   0.01267  Uiso   1.00
C48    C     0.62118   0.20267   0.10548   0.01267  Uiso   1.00
C49    C     0.15762   0.93490   0.62348   0.01267  Uiso   1.00
C50    C     0.10637   0.11770   0.63113   0.01267  Uiso   1.00
C51    C     0.70840   0.06300   0.61790   0.01267  Uiso   1.00
C52    C     0.03157   0.03326   0.63635   0.01267  Uiso   1.00
C53    C     0.60630   0.06420   0.61170   0.01267  Uiso   1.00
C54    C     0.57120   0.90930   0.65530   0.01267  Uiso   1.00
C55    C     0.74350   0.98090   0.64270   0.01267  Uiso   1.00
C56    C     0.06049   0.94082   0.63465   0.01267  Uiso   1.00
C57    C     0.92740   0.04510   0.64060   0.01267  Uiso   1.00
C58    C     0.84980   0.97080   0.64580   0.01267  Uiso   1.00
C59    C     0.67190   0.90250   0.66310   0.01267  Uiso   1.00
C60    C     0.20267   0.10548   0.62118   0.01267  Uiso   1.00
C61    C     0.93490   0.62348   0.15762   0.01267  Uiso   1.00
C62    C     0.11770   0.63113   0.10637   0.01267  Uiso   1.00
C63    C     0.06300   0.61790   0.70840   0.01267  Uiso   1.00
C64    C     0.03326   0.63635   0.03157   0.01267  Uiso   1.00
C65    C     0.06420   0.61170   0.60630   0.01267  Uiso   1.00
C66    C     0.90930   0.65530   0.57120   0.01267  Uiso   1.00
C67    C     0.98090   0.64270   0.74350   0.01267  Uiso   1.00
C68    C     0.94082   0.63465   0.06049   0.01267  Uiso   1.00
C69    C     0.04510   0.64060   0.92740   0.01267  Uiso   1.00
C70    C     0.97080   0.64580   0.84980   0.01267  Uiso   1.00
C71    C     0.90250   0.66310   0.67190   0.01267  Uiso   1.00
C72    C     0.10548   0.62118   0.20267   0.01267  Uiso   1.00
N1     N     0.77106   0.38334   0.98431   0.01267  Uiso   1.00
N2     N     0.46338   0.37004   0.01140   0.01267  Uiso   1.00
N3     N     0.98431   0.77106   0.38334   0.01267  Uiso   1.00
N4     N     0.01140   0.46338   0.37004   0.01267  Uiso   1.00
N5     N     0.38334   0.98431   0.77106   0.01267  Uiso   1.00
N6     N     0.37004   0.01140   0.46338   0.01267  Uiso   1.00
N7     N     0.61666   0.22894   0.01569   0.01267  Uiso   1.00
N8     N     0.62996   0.53662   0.98860   0.01267  Uiso   1.00
N9     N     0.22894   0.01569   0.61666   0.01267  Uiso   1.00
N10    N     0.53662   0.98860   0.62996   0.01267  Uiso   1.00
N11    N     0.01569   0.61666   0.22894   0.01267  Uiso   1.00
N12    N     0.98860   0.62996   0.53662   0.01267  Uiso   1.00
O1     O     0.56274   0.33053   0.84229   0.01267  Uiso   1.00
O2     O     0.84229   0.56274   0.33053   0.01267  Uiso   1.00
O3     O     0.33053   0.84229   0.56274   0.01267  Uiso   1.00
O4     O     0.66947   0.43726   0.15771   0.01267  Uiso   1.00
O5     O     0.43726   0.15771   0.66947   0.01267  Uiso   1.00
O6     O     0.15771   0.66947   0.43726   0.01267  Uiso   1.00
