data_GIHPEU_clean
_audit_creation_date              2014-07-02
_audit_creation_method            'Materials Studio'
_symmetry_space_group_name_H-M    'P1'
_symmetry_Int_Tables_number       1
_symmetry_cell_setting            triclinic
loop_
_symmetry_equiv_pos_as_xyz
  x,y,z
_cell_length_a                    13.6872
_cell_length_b                    13.6872
_cell_length_c                    13.6872
_cell_angle_alpha                 102.2900
_cell_angle_beta                  102.2900
_cell_angle_gamma                 102.2900
loop_
_atom_site_label
_atom_site_type_symbol
_atom_site_fract_x
_atom_site_fract_y
_atom_site_fract_z
_atom_site_U_iso_or_equiv
_atom_site_adp_type
_atom_site_occupancy
Co1    Co    0.88331   0.11669   0.50000   0.01267  Uiso   1.00
Co2    Co    0.50000   0.88331   0.11669   0.01267  Uiso   1.00
Co3    Co    0.11669   0.50000   0.88331   0.01267  Uiso   1.00
H1     H     0.86620   0.40820   0.31690   0.01267  Uiso   1.00
H2     H     0.87900   0.32530   0.62730   0.01267  Uiso   1.00
H3     H     0.90070   0.91080   0.37740   0.01267  Uiso   1.00
H4     H     0.82370   0.80620   0.65470   0.01267  Uiso   1.00
H5     H     0.85850   0.48520   0.61570   0.01267  Uiso   1.00
H6     H     0.85620   0.58210   0.38790   0.01267  Uiso   1.00
H7     H     0.83760   0.97450   0.64440   0.01267  Uiso   1.00
H8     H     0.88860   0.74080   0.37920   0.01267  Uiso   1.00
H9     H     0.88390   0.24880   0.33680   0.01267  Uiso   1.00
H10    H     0.85050   0.63480   0.59080   0.01267  Uiso   1.00
H11    H     0.31690   0.86620   0.40820   0.01267  Uiso   1.00
H12    H     0.62730   0.87900   0.32530   0.01267  Uiso   1.00
H13    H     0.37740   0.90070   0.91080   0.01267  Uiso   1.00
H14    H     0.65470   0.82370   0.80620   0.01267  Uiso   1.00
H15    H     0.61570   0.85850   0.48520   0.01267  Uiso   1.00
H16    H     0.38790   0.85620   0.58210   0.01267  Uiso   1.00
H17    H     0.64440   0.83760   0.97450   0.01267  Uiso   1.00
H18    H     0.37920   0.88860   0.74080   0.01267  Uiso   1.00
H19    H     0.33680   0.88390   0.24880   0.01267  Uiso   1.00
H20    H     0.59080   0.85050   0.63480   0.01267  Uiso   1.00
H21    H     0.40820   0.31690   0.86620   0.01267  Uiso   1.00
H22    H     0.32530   0.62730   0.87900   0.01267  Uiso   1.00
H23    H     0.91080   0.37740   0.90070   0.01267  Uiso   1.00
H24    H     0.80620   0.65470   0.82370   0.01267  Uiso   1.00
H25    H     0.48520   0.61570   0.85850   0.01267  Uiso   1.00
H26    H     0.58210   0.38790   0.85620   0.01267  Uiso   1.00
H27    H     0.97450   0.64440   0.83760   0.01267  Uiso   1.00
H28    H     0.74080   0.37920   0.88860   0.01267  Uiso   1.00
H29    H     0.24880   0.33680   0.88390   0.01267  Uiso   1.00
H30    H     0.63480   0.59080   0.85050   0.01267  Uiso   1.00
H31    H     0.59180   0.13380   0.68310   0.01267  Uiso   1.00
H32    H     0.67470   0.12100   0.37270   0.01267  Uiso   1.00
H33    H     0.08920   0.09930   0.62260   0.01267  Uiso   1.00
H34    H     0.19380   0.17630   0.34530   0.01267  Uiso   1.00
H35    H     0.51480   0.14150   0.38430   0.01267  Uiso   1.00
H36    H     0.41790   0.14380   0.61210   0.01267  Uiso   1.00
H37    H     0.02550   0.16240   0.35560   0.01267  Uiso   1.00
H38    H     0.25920   0.11140   0.62080   0.01267  Uiso   1.00
H39    H     0.75120   0.11610   0.66320   0.01267  Uiso   1.00
H40    H     0.36520   0.14950   0.40920   0.01267  Uiso   1.00
H41    H     0.13380   0.68310   0.59180   0.01267  Uiso   1.00
H42    H     0.12100   0.37270   0.67470   0.01267  Uiso   1.00
H43    H     0.09930   0.62260   0.08920   0.01267  Uiso   1.00
H44    H     0.17630   0.34530   0.19380   0.01267  Uiso   1.00
H45    H     0.14150   0.38430   0.51480   0.01267  Uiso   1.00
H46    H     0.14380   0.61210   0.41790   0.01267  Uiso   1.00
H47    H     0.16240   0.35560   0.02550   0.01267  Uiso   1.00
H48    H     0.11140   0.62080   0.25920   0.01267  Uiso   1.00
H49    H     0.11610   0.66320   0.75120   0.01267  Uiso   1.00
H50    H     0.14950   0.40920   0.36520   0.01267  Uiso   1.00
H51    H     0.68310   0.59180   0.13380   0.01267  Uiso   1.00
H52    H     0.37270   0.67470   0.12100   0.01267  Uiso   1.00
H53    H     0.62260   0.08920   0.09930   0.01267  Uiso   1.00
H54    H     0.34530   0.19380   0.17630   0.01267  Uiso   1.00
H55    H     0.38430   0.51480   0.14150   0.01267  Uiso   1.00
H56    H     0.61210   0.41790   0.14380   0.01267  Uiso   1.00
H57    H     0.35560   0.02550   0.16240   0.01267  Uiso   1.00
H58    H     0.62080   0.25920   0.11140   0.01267  Uiso   1.00
H59    H     0.66320   0.75120   0.11610   0.01267  Uiso   1.00
H60    H     0.40920   0.36520   0.14950   0.01267  Uiso   1.00
W1     W     0.00000   0.20664   0.79336   0.01267  Uiso   1.00
W2     W     0.79336   0.00000   0.20664   0.01267  Uiso   1.00
W3     W     0.20664   0.79336   0.00000   0.01267  Uiso   1.00
C1     C     0.86900   0.39350   0.38130   0.01267  Uiso   1.00
C2     C     0.87630   0.34220   0.56390   0.01267  Uiso   1.00
C3     C     0.85730   0.75370   0.51850   0.01267  Uiso   1.00
C4     C     0.88540   0.88940   0.43450   0.01267  Uiso   1.00
C5     C     0.84040   0.82570   0.59720   0.01267  Uiso   1.00
C6     C     0.86480   0.43860   0.55760   0.01267  Uiso   1.00
C7     C     0.86250   0.46690   0.46530   0.01267  Uiso   1.00
C8     C     0.85750   0.57070   0.45350   0.01267  Uiso   1.00
C9     C     0.84850   0.92650   0.59030   0.01267  Uiso   1.00
C10    C     0.87860   0.78720   0.43520   0.01267  Uiso   1.00
C11    C     0.87950   0.29790   0.39410   0.01267  Uiso   1.00
C12    C     0.85460   0.64800   0.52700   0.01267  Uiso   1.00
C13    C     0.38130   0.86900   0.39350   0.01267  Uiso   1.00
C14    C     0.56390   0.87630   0.34220   0.01267  Uiso   1.00
C15    C     0.51850   0.85730   0.75370   0.01267  Uiso   1.00
C16    C     0.43450   0.88540   0.88940   0.01267  Uiso   1.00
C17    C     0.59720   0.84040   0.82570   0.01267  Uiso   1.00
C18    C     0.55760   0.86480   0.43860   0.01267  Uiso   1.00
C19    C     0.46530   0.86250   0.46690   0.01267  Uiso   1.00
C20    C     0.45350   0.85750   0.57070   0.01267  Uiso   1.00
C21    C     0.59030   0.84850   0.92650   0.01267  Uiso   1.00
C22    C     0.43520   0.87860   0.78720   0.01267  Uiso   1.00
C23    C     0.39410   0.87950   0.29790   0.01267  Uiso   1.00
C24    C     0.52700   0.85460   0.64800   0.01267  Uiso   1.00
C25    C     0.39350   0.38130   0.86900   0.01267  Uiso   1.00
C26    C     0.34220   0.56390   0.87630   0.01267  Uiso   1.00
C27    C     0.75370   0.51850   0.85730   0.01267  Uiso   1.00
C28    C     0.88940   0.43450   0.88540   0.01267  Uiso   1.00
C29    C     0.82570   0.59720   0.84040   0.01267  Uiso   1.00
C30    C     0.43860   0.55760   0.86480   0.01267  Uiso   1.00
C31    C     0.46690   0.46530   0.86250   0.01267  Uiso   1.00
C32    C     0.57070   0.45350   0.85750   0.01267  Uiso   1.00
C33    C     0.92650   0.59030   0.84850   0.01267  Uiso   1.00
C34    C     0.78720   0.43520   0.87860   0.01267  Uiso   1.00
C35    C     0.29790   0.39410   0.87950   0.01267  Uiso   1.00
C36    C     0.64800   0.52700   0.85460   0.01267  Uiso   1.00
C37    C     0.60650   0.13100   0.61870   0.01267  Uiso   1.00
C38    C     0.65780   0.12370   0.43610   0.01267  Uiso   1.00
C39    C     0.24630   0.14270   0.48150   0.01267  Uiso   1.00
C40    C     0.11060   0.11460   0.56550   0.01267  Uiso   1.00
C41    C     0.17430   0.15960   0.40280   0.01267  Uiso   1.00
C42    C     0.56140   0.13520   0.44240   0.01267  Uiso   1.00
C43    C     0.53310   0.13750   0.53470   0.01267  Uiso   1.00
C44    C     0.42930   0.14250   0.54650   0.01267  Uiso   1.00
C45    C     0.07350   0.15150   0.40970   0.01267  Uiso   1.00
C46    C     0.21280   0.12140   0.56480   0.01267  Uiso   1.00
C47    C     0.70210   0.12050   0.60590   0.01267  Uiso   1.00
C48    C     0.35200   0.14540   0.47300   0.01267  Uiso   1.00
C49    C     0.13100   0.61870   0.60650   0.01267  Uiso   1.00
C50    C     0.12370   0.43610   0.65780   0.01267  Uiso   1.00
C51    C     0.14270   0.48150   0.24630   0.01267  Uiso   1.00
C52    C     0.11460   0.56550   0.11060   0.01267  Uiso   1.00
C53    C     0.15960   0.40280   0.17430   0.01267  Uiso   1.00
C54    C     0.13520   0.44240   0.56140   0.01267  Uiso   1.00
C55    C     0.13750   0.53470   0.53310   0.01267  Uiso   1.00
C56    C     0.14250   0.54650   0.42930   0.01267  Uiso   1.00
C57    C     0.15150   0.40970   0.07350   0.01267  Uiso   1.00
C58    C     0.12140   0.56480   0.21280   0.01267  Uiso   1.00
C59    C     0.12050   0.60590   0.70210   0.01267  Uiso   1.00
C60    C     0.14540   0.47300   0.35200   0.01267  Uiso   1.00
C61    C     0.61870   0.60650   0.13100   0.01267  Uiso   1.00
C62    C     0.43610   0.65780   0.12370   0.01267  Uiso   1.00
C63    C     0.48150   0.24630   0.14270   0.01267  Uiso   1.00
C64    C     0.56550   0.11060   0.11460   0.01267  Uiso   1.00
C65    C     0.40280   0.17430   0.15960   0.01267  Uiso   1.00
C66    C     0.44240   0.56140   0.13520   0.01267  Uiso   1.00
C67    C     0.53470   0.53310   0.13750   0.01267  Uiso   1.00
C68    C     0.54650   0.42930   0.14250   0.01267  Uiso   1.00
C69    C     0.40970   0.07350   0.15150   0.01267  Uiso   1.00
C70    C     0.56480   0.21280   0.12140   0.01267  Uiso   1.00
C71    C     0.60590   0.70210   0.12050   0.01267  Uiso   1.00
C72    C     0.47300   0.35200   0.14540   0.01267  Uiso   1.00
N1     N     0.88380   0.27160   0.48330   0.01267  Uiso   1.00
N2     N     0.87110   0.95840   0.51090   0.01267  Uiso   1.00
N3     N     0.48330   0.88380   0.27160   0.01267  Uiso   1.00
N4     N     0.51090   0.87110   0.95840   0.01267  Uiso   1.00
N5     N     0.27160   0.48330   0.88380   0.01267  Uiso   1.00
N6     N     0.95840   0.51090   0.87110   0.01267  Uiso   1.00
N7     N     0.72840   0.11620   0.51670   0.01267  Uiso   1.00
N8     N     0.04160   0.12890   0.48910   0.01267  Uiso   1.00
N9     N     0.11620   0.51670   0.72840   0.01267  Uiso   1.00
N10    N     0.12890   0.48910   0.04160   0.01267  Uiso   1.00
N11    N     0.51670   0.72840   0.11620   0.01267  Uiso   1.00
N12    N     0.48910   0.04160   0.12890   0.01267  Uiso   1.00
O1     O     0.93819   0.16828   0.65760   0.01267  Uiso   1.00
O2     O     0.65760   0.93819   0.16828   0.01267  Uiso   1.00
O3     O     0.16828   0.65760   0.93819   0.01267  Uiso   1.00
O4     O     0.83172   0.06181   0.34240   0.01267  Uiso   1.00
O5     O     0.06181   0.34240   0.83172   0.01267  Uiso   1.00
O6     O     0.34240   0.83172   0.06181   0.01267  Uiso   1.00
