data_GIKMOD02_clean
_audit_creation_date              2014-07-02
_audit_creation_method            'Materials Studio'
_symmetry_space_group_name_H-M    'P1'
_symmetry_Int_Tables_number       1
_symmetry_cell_setting            triclinic
loop_
_symmetry_equiv_pos_as_xyz
  x,y,z
_cell_length_a                    7.3033
_cell_length_b                    10.1272
_cell_length_c                    18.2610
_cell_angle_alpha                 90.0000
_cell_angle_beta                  90.0000
_cell_angle_gamma                 94.8410
loop_
_atom_site_label
_atom_site_type_symbol
_atom_site_fract_x
_atom_site_fract_y
_atom_site_fract_z
_atom_site_U_iso_or_equiv
_atom_site_adp_type
_atom_site_occupancy
Cu1    Cu    0.86637   0.21719   0.90739   0.01267  Uiso   1.00
Cu2    Cu    0.05118   0.93558   0.93151   0.01267  Uiso   1.00
Cu3    Cu    0.63363   0.28281   0.40739   0.01267  Uiso   1.00
Cu4    Cu    0.44882   0.56442   0.43151   0.01267  Uiso   1.00
Cu5    Cu    0.13363   0.78281   0.09261   0.01267  Uiso   1.00
Cu6    Cu    0.94882   0.06442   0.06849   0.01267  Uiso   1.00
Cu7    Cu    0.36637   0.71719   0.59261   0.01267  Uiso   1.00
Cu8    Cu    0.55118   0.43558   0.56849   0.01267  Uiso   1.00
H1     H     0.79140   0.17050   0.69500   0.01267  Uiso   1.00
H2     H     0.95290   0.80080   0.70680   0.01267  Uiso   1.00
H3     H     0.78940   0.94420   0.51320   0.01267  Uiso   1.00
H4     H     0.70860   0.32950   0.19500   0.01267  Uiso   1.00
H5     H     0.54710   0.69920   0.20680   0.01267  Uiso   1.00
H6     H     0.71060   0.55580   0.01320   0.01267  Uiso   1.00
H7     H     0.20860   0.82950   0.30500   0.01267  Uiso   1.00
H8     H     0.04710   0.19920   0.29320   0.01267  Uiso   1.00
H9     H     0.21060   0.05580   0.48680   0.01267  Uiso   1.00
H10    H     0.29140   0.67050   0.80500   0.01267  Uiso   1.00
H11    H     0.45290   0.30080   0.79320   0.01267  Uiso   1.00
H12    H     0.28940   0.44420   0.98680   0.01267  Uiso   1.00
C1     C     0.87320   0.85500   0.60486   0.01267  Uiso   1.00
C2     C     0.78240   0.07640   0.59713   0.01267  Uiso   1.00
C3     C     0.81340   0.09130   0.67220   0.01267  Uiso   1.00
C4     C     0.87710   0.98860   0.71347   0.01267  Uiso   1.00
C5     C     0.90810   0.01140   0.79373   0.01267  Uiso   1.00
C6     C     0.90890   0.86940   0.67994   0.01267  Uiso   1.00
C7     C     0.81140   0.95600   0.56306   0.01267  Uiso   1.00
C8     C     0.71160   0.18850   0.55566   0.01267  Uiso   1.00
C9     C     0.62680   0.64500   0.10486   0.01267  Uiso   1.00
C10    C     0.71760   0.42360   0.09713   0.01267  Uiso   1.00
C11    C     0.68660   0.40870   0.17220   0.01267  Uiso   1.00
C12    C     0.62290   0.51140   0.21347   0.01267  Uiso   1.00
C13    C     0.59190   0.48860   0.29373   0.01267  Uiso   1.00
C14    C     0.59110   0.63060   0.17994   0.01267  Uiso   1.00
C15    C     0.68860   0.54400   0.06306   0.01267  Uiso   1.00
C16    C     0.78840   0.31150   0.05566   0.01267  Uiso   1.00
C17    C     0.12680   0.14500   0.39514   0.01267  Uiso   1.00
C18    C     0.21760   0.92360   0.40287   0.01267  Uiso   1.00
C19    C     0.18660   0.90870   0.32780   0.01267  Uiso   1.00
C20    C     0.12290   0.01140   0.28653   0.01267  Uiso   1.00
C21    C     0.09190   0.98860   0.20627   0.01267  Uiso   1.00
C22    C     0.09110   0.13060   0.32006   0.01267  Uiso   1.00
C23    C     0.18860   0.04400   0.43694   0.01267  Uiso   1.00
C24    C     0.28840   0.81150   0.44434   0.01267  Uiso   1.00
C25    C     0.37320   0.35500   0.89514   0.01267  Uiso   1.00
C26    C     0.28240   0.57640   0.90287   0.01267  Uiso   1.00
C27    C     0.31340   0.59130   0.82780   0.01267  Uiso   1.00
C28    C     0.37710   0.48860   0.78653   0.01267  Uiso   1.00
C29    C     0.40810   0.51140   0.70627   0.01267  Uiso   1.00
C30    C     0.40890   0.36940   0.82006   0.01267  Uiso   1.00
C31    C     0.31140   0.45600   0.93694   0.01267  Uiso   1.00
C32    C     0.21160   0.68850   0.94434   0.01267  Uiso   1.00
S1     S     0.88588   0.69587   0.56636   0.01267  Uiso   1.00
S2     S     0.61412   0.80413   0.06636   0.01267  Uiso   1.00
S3     S     0.11412   0.30413   0.43364   0.01267  Uiso   1.00
S4     S     0.38588   0.19587   0.93364   0.01267  Uiso   1.00
O1     O     0.95520   0.91615   0.83237   0.01267  Uiso   1.00
O2     O     0.86720   0.05324   0.96503   0.01267  Uiso   1.00
O3     O     0.66270   0.16704   0.49024   0.01267  Uiso   1.00
O4     O     0.88400   0.12692   0.81547   0.01267  Uiso   1.00
O5     O     0.89190   0.70824   0.48746   0.01267  Uiso   1.00
O6     O     0.70430   0.29588   0.59064   0.01267  Uiso   1.00
O7     O     0.71870   0.62255   0.59318   0.01267  Uiso   1.00
O8     O     0.04830   0.64249   0.59777   0.01267  Uiso   1.00
O9     O     0.54480   0.58385   0.33237   0.01267  Uiso   1.00
O10    O     0.63280   0.44676   0.46503   0.01267  Uiso   1.00
O11    O     0.83730   0.33296   0.99024   0.01267  Uiso   1.00
O12    O     0.61600   0.37308   0.31547   0.01267  Uiso   1.00
O13    O     0.60810   0.79176   0.98746   0.01267  Uiso   1.00
O14    O     0.79570   0.20412   0.09064   0.01267  Uiso   1.00
O15    O     0.78130   0.87745   0.09318   0.01267  Uiso   1.00
O16    O     0.45170   0.85751   0.09777   0.01267  Uiso   1.00
O17    O     0.04480   0.08385   0.16763   0.01267  Uiso   1.00
O18    O     0.13280   0.94676   0.03497   0.01267  Uiso   1.00
O19    O     0.33730   0.83296   0.50976   0.01267  Uiso   1.00
O20    O     0.11600   0.87308   0.18453   0.01267  Uiso   1.00
O21    O     0.10810   0.29176   0.51254   0.01267  Uiso   1.00
O22    O     0.29570   0.70412   0.40936   0.01267  Uiso   1.00
O23    O     0.28130   0.37745   0.40682   0.01267  Uiso   1.00
O24    O     0.95170   0.35751   0.40223   0.01267  Uiso   1.00
O25    O     0.45520   0.41615   0.66763   0.01267  Uiso   1.00
O26    O     0.36720   0.55324   0.53497   0.01267  Uiso   1.00
O27    O     0.16270   0.66704   0.00976   0.01267  Uiso   1.00
O28    O     0.38400   0.62692   0.68453   0.01267  Uiso   1.00
O29    O     0.39190   0.20824   0.01254   0.01267  Uiso   1.00
O30    O     0.20430   0.79588   0.90936   0.01267  Uiso   1.00
O31    O     0.21870   0.12255   0.90682   0.01267  Uiso   1.00
O32    O     0.54830   0.14249   0.90223   0.01267  Uiso   1.00
