data_GINLIA_clean
_audit_creation_date              2014-07-02
_audit_creation_method            'Materials Studio'
_symmetry_space_group_name_H-M    'P1'
_symmetry_Int_Tables_number       1
_symmetry_cell_setting            triclinic
loop_
_symmetry_equiv_pos_as_xyz
  x,y,z
_cell_length_a                    10.1889
_cell_length_b                    16.6510
_cell_length_c                    19.7300
_cell_angle_alpha                 90.0000
_cell_angle_beta                  101.8250
_cell_angle_gamma                 90.0000
loop_
_atom_site_label
_atom_site_type_symbol
_atom_site_fract_x
_atom_site_fract_y
_atom_site_fract_z
_atom_site_U_iso_or_equiv
_atom_site_adp_type
_atom_site_occupancy
Zn1    Zn    0.49794   0.34196   0.38455   0.01267  Uiso   1.00
Zn2    Zn    0.75780   0.43616   0.50027   0.01267  Uiso   1.00
Zn3    Zn    0.50206   0.84196   0.61545   0.01267  Uiso   1.00
Zn4    Zn    0.24220   0.93616   0.49973   0.01267  Uiso   1.00
H1     H     0.58250   0.06900   0.71160   0.01267  Uiso   1.00
H2     H     0.69270   0.29260   0.66680   0.01267  Uiso   1.00
H3     H     0.90590   0.22720   0.71150   0.01267  Uiso   1.00
H4     H     0.18140   0.28470   0.88330   0.01267  Uiso   1.00
H5     H     0.02720   0.27950   0.95010   0.01267  Uiso   1.00
H6     H     0.37190   0.19090   0.87960   0.01267  Uiso   1.00
H7     H     0.43550   0.10200   0.88260   0.01267  Uiso   1.00
H8     H     0.42900   0.16990   0.01030   0.01267  Uiso   1.00
H9     H     0.28540   0.14610   0.96500   0.01267  Uiso   1.00
H10    H     0.39860   0.07890   0.98600   0.01267  Uiso   1.00
H11    H     0.52110   0.16510   0.80320   0.01267  Uiso   1.00
H12    H     0.77700   0.08840   0.97000   0.01267  Uiso   1.00
H13    H     0.77110   0.98100   0.04590   0.01267  Uiso   1.00
H14    H     0.89770   0.12870   0.20950   0.01267  Uiso   1.00
H15    H     0.85500   0.37600   0.11220   0.01267  Uiso   1.00
H16    H     0.96360   0.44350   0.01300   0.01267  Uiso   1.00
H17    H     0.83540   0.47930   0.03820   0.01267  Uiso   1.00
H18    H     0.75470   0.53520   0.93600   0.01267  Uiso   1.00
H19    H     0.91250   0.55130   0.94690   0.01267  Uiso   1.00
H20    H     0.84500   0.48010   0.89730   0.01267  Uiso   1.00
H21    H     0.13660   0.27500   0.22270   0.01267  Uiso   1.00
H22    H     0.02610   0.34440   0.40120   0.01267  Uiso   1.00
H23    H     0.74640   0.28130   0.23650   0.01267  Uiso   1.00
H24    H     0.41750   0.56900   0.28840   0.01267  Uiso   1.00
H25    H     0.30730   0.79260   0.33320   0.01267  Uiso   1.00
H26    H     0.09410   0.72720   0.28850   0.01267  Uiso   1.00
H27    H     0.81860   0.78470   0.11670   0.01267  Uiso   1.00
H28    H     0.97280   0.77950   0.04990   0.01267  Uiso   1.00
H29    H     0.62810   0.69090   0.12040   0.01267  Uiso   1.00
H30    H     0.56450   0.60200   0.11740   0.01267  Uiso   1.00
H31    H     0.57100   0.66990   0.98970   0.01267  Uiso   1.00
H32    H     0.71460   0.64610   0.03500   0.01267  Uiso   1.00
H33    H     0.60140   0.57890   0.01400   0.01267  Uiso   1.00
H34    H     0.47890   0.66510   0.19680   0.01267  Uiso   1.00
H35    H     0.22300   0.58840   0.03000   0.01267  Uiso   1.00
H36    H     0.22890   0.48100   0.95410   0.01267  Uiso   1.00
H37    H     0.10230   0.62870   0.79050   0.01267  Uiso   1.00
H38    H     0.14500   0.87600   0.88780   0.01267  Uiso   1.00
H39    H     0.03640   0.94350   0.98700   0.01267  Uiso   1.00
H40    H     0.16460   0.97930   0.96180   0.01267  Uiso   1.00
H41    H     0.24530   0.03520   0.06400   0.01267  Uiso   1.00
H42    H     0.08750   0.05130   0.05310   0.01267  Uiso   1.00
H43    H     0.15500   0.98010   0.10270   0.01267  Uiso   1.00
H44    H     0.86340   0.77500   0.77730   0.01267  Uiso   1.00
H45    H     0.97390   0.84440   0.59880   0.01267  Uiso   1.00
H46    H     0.25360   0.78130   0.76350   0.01267  Uiso   1.00
C1     C     0.59570   0.29010   0.52680   0.01267  Uiso   1.00
C2     C     0.59230   0.22740   0.58100   0.01267  Uiso   1.00
C3     C     0.53540   0.15190   0.56270   0.01267  Uiso   1.00
C4     C     0.53720   0.09400   0.60990   0.01267  Uiso   1.00
C5     C     0.58870   0.10900   0.67800   0.01267  Uiso   1.00
C6     C     0.64990   0.18170   0.69900   0.01267  Uiso   1.00
C7     C     0.65250   0.24230   0.65240   0.01267  Uiso   1.00
C8     C     0.47140   0.01550   0.59030   0.01267  Uiso   1.00
C9     C     0.69470   0.19930   0.77560   0.01267  Uiso   1.00
C10    C     0.83370   0.22510   0.80260   0.01267  Uiso   1.00
C11    C     0.92960   0.23510   0.76010   0.01267  Uiso   1.00
C12    C     0.05520   0.25610   0.79120   0.01267  Uiso   1.00
C13    C     0.09160   0.27040   0.86320   0.01267  Uiso   1.00
C14    C     0.00330   0.26400   0.90280   0.01267  Uiso   1.00
C15    C     0.87690   0.23540   0.87680   0.01267  Uiso   1.00
C16    C     0.78240   0.22290   0.92060   0.01267  Uiso   1.00
C17    C     0.65490   0.19470   0.88920   0.01267  Uiso   1.00
C18    C     0.43100   0.15180   0.90930   0.01267  Uiso   1.00
C19    C     0.38200   0.13530   0.97290   0.01267  Uiso   1.00
C20    C     0.60990   0.18360   0.82050   0.01267  Uiso   1.00
C21    C     0.82600   0.23050   0.99750   0.01267  Uiso   1.00
C22    C     0.84090   0.17230   0.04470   0.01267  Uiso   1.00
C23    C     0.80150   0.09660   0.01860   0.01267  Uiso   1.00
C24    C     0.79800   0.03280   0.06370   0.01267  Uiso   1.00
C25    C     0.83390   0.04480   0.13480   0.01267  Uiso   1.00
C26    C     0.87320   0.12050   0.16090   0.01267  Uiso   1.00
C27    C     0.87670   0.18430   0.11580   0.01267  Uiso   1.00
C28    C     0.89200   0.26000   0.14170   0.01267  Uiso   1.00
C29    C     0.85530   0.32250   0.09560   0.01267  Uiso   1.00
C30    C     0.81800   0.30720   0.02330   0.01267  Uiso   1.00
C31    C     0.86600   0.45480   0.99860   0.01267  Uiso   1.00
C32    C     0.84300   0.50980   0.93990   0.01267  Uiso   1.00
C33    C     0.93130   0.28190   0.21760   0.01267  Uiso   1.00
C34    C     0.06880   0.28770   0.24760   0.01267  Uiso   1.00
C35    C     0.09940   0.31410   0.31860   0.01267  Uiso   1.00
C36    C     0.00230   0.32620   0.35470   0.01267  Uiso   1.00
C37    C     0.86540   0.31240   0.32460   0.01267  Uiso   1.00
C38    C     0.83760   0.29090   0.25760   0.01267  Uiso   1.00
C39    C     0.24390   0.33000   0.35370   0.01267  Uiso   1.00
C40    C     0.75710   0.33100   0.36520   0.01267  Uiso   1.00
C41    C     0.40430   0.79010   0.47320   0.01267  Uiso   1.00
C42    C     0.40770   0.72740   0.41900   0.01267  Uiso   1.00
C43    C     0.46460   0.65190   0.43730   0.01267  Uiso   1.00
C44    C     0.46280   0.59400   0.39010   0.01267  Uiso   1.00
C45    C     0.41130   0.60900   0.32200   0.01267  Uiso   1.00
C46    C     0.35010   0.68170   0.30100   0.01267  Uiso   1.00
C47    C     0.34750   0.74230   0.34760   0.01267  Uiso   1.00
C48    C     0.52860   0.51550   0.40970   0.01267  Uiso   1.00
C49    C     0.30530   0.69930   0.22440   0.01267  Uiso   1.00
C50    C     0.16630   0.72510   0.19740   0.01267  Uiso   1.00
C51    C     0.07040   0.73510   0.23990   0.01267  Uiso   1.00
C52    C     0.94480   0.75610   0.20880   0.01267  Uiso   1.00
C53    C     0.90840   0.77040   0.13680   0.01267  Uiso   1.00
C54    C     0.99670   0.76400   0.09720   0.01267  Uiso   1.00
C55    C     0.12310   0.73540   0.12320   0.01267  Uiso   1.00
C56    C     0.21760   0.72290   0.07940   0.01267  Uiso   1.00
C57    C     0.34510   0.69470   0.11080   0.01267  Uiso   1.00
C58    C     0.56900   0.65180   0.09070   0.01267  Uiso   1.00
C59    C     0.61800   0.63530   0.02710   0.01267  Uiso   1.00
C60    C     0.39010   0.68360   0.17950   0.01267  Uiso   1.00
C61    C     0.17400   0.73050   0.00250   0.01267  Uiso   1.00
C62    C     0.15910   0.67230   0.95530   0.01267  Uiso   1.00
C63    C     0.19850   0.59660   0.98140   0.01267  Uiso   1.00
C64    C     0.20200   0.53280   0.93630   0.01267  Uiso   1.00
C65    C     0.16610   0.54480   0.86520   0.01267  Uiso   1.00
C66    C     0.12680   0.62050   0.83910   0.01267  Uiso   1.00
C67    C     0.12330   0.68430   0.88420   0.01267  Uiso   1.00
C68    C     0.10800   0.76000   0.85830   0.01267  Uiso   1.00
C69    C     0.14470   0.82250   0.90440   0.01267  Uiso   1.00
C70    C     0.18200   0.80720   0.97670   0.01267  Uiso   1.00
C71    C     0.13400   0.95480   0.00140   0.01267  Uiso   1.00
C72    C     0.15700   0.00980   0.06010   0.01267  Uiso   1.00
C73    C     0.06870   0.78190   0.78240   0.01267  Uiso   1.00
C74    C     0.93120   0.78770   0.75240   0.01267  Uiso   1.00
C75    C     0.90060   0.81410   0.68140   0.01267  Uiso   1.00
C76    C     0.99770   0.82620   0.64530   0.01267  Uiso   1.00
C77    C     0.13460   0.81240   0.67540   0.01267  Uiso   1.00
C78    C     0.16240   0.79090   0.74240   0.01267  Uiso   1.00
C79    C     0.75610   0.83000   0.64630   0.01267  Uiso   1.00
C80    C     0.24290   0.83100   0.63480   0.01267  Uiso   1.00
Cl1    Cl    0.17870   0.26120   0.74030   0.01267  Uiso   1.00
Cl2    Cl    0.83410   0.96790   0.19420   0.01267  Uiso   1.00
Cl3    Cl    0.82130   0.76120   0.25970   0.01267  Uiso   1.00
Cl4    Cl    0.16590   0.46790   0.80580   0.01267  Uiso   1.00
O1     O     0.53240   0.27500   0.46850   0.01267  Uiso   1.00
O2     O     0.67250   0.35170   0.54580   0.01267  Uiso   1.00
O3     O     0.39610   0.00790   0.53130   0.01267  Uiso   1.00
O4     O     0.50070   0.95860   0.63200   0.01267  Uiso   1.00
O5     O     0.33430   0.30430   0.32040   0.01267  Uiso   1.00
O6     O     0.27380   0.36150   0.40860   0.01267  Uiso   1.00
O7     O     0.79440   0.36390   0.42210   0.01267  Uiso   1.00
O8     O     0.64320   0.31260   0.33670   0.01267  Uiso   1.00
O9     O     0.56970   0.18680   0.93620   0.01267  Uiso   1.00
O10    O     0.78790   0.37440   0.97670   0.01267  Uiso   1.00
O11    O     0.46760   0.77500   0.53150   0.01267  Uiso   1.00
O12    O     0.32750   0.85170   0.45420   0.01267  Uiso   1.00
O13    O     0.60390   0.50790   0.46870   0.01267  Uiso   1.00
O14    O     0.49930   0.45860   0.36800   0.01267  Uiso   1.00
O15    O     0.66570   0.80430   0.67960   0.01267  Uiso   1.00
O16    O     0.72620   0.86150   0.59140   0.01267  Uiso   1.00
O17    O     0.20560   0.86390   0.57790   0.01267  Uiso   1.00
O18    O     0.35680   0.81260   0.66330   0.01267  Uiso   1.00
O19    O     0.43030   0.68680   0.06380   0.01267  Uiso   1.00
O20    O     0.21210   0.87440   0.02330   0.01267  Uiso   1.00
