data_GIQXOU_clean
_audit_creation_date              2014-07-02
_audit_creation_method            'Materials Studio'
_symmetry_space_group_name_H-M    'P1'
_symmetry_Int_Tables_number       1
_symmetry_cell_setting            triclinic
loop_
_symmetry_equiv_pos_as_xyz
  x,y,z
_cell_length_a                    9.5321
_cell_length_b                    9.5321
_cell_length_c                    15.4510
_cell_angle_alpha                 92.8651
_cell_angle_beta                  92.8651
_cell_angle_gamma                 99.0412
loop_
_atom_site_label
_atom_site_type_symbol
_atom_site_fract_x
_atom_site_fract_y
_atom_site_fract_z
_atom_site_U_iso_or_equiv
_atom_site_adp_type
_atom_site_occupancy
Er1    Er    0.01086   0.98914   0.75000   0.01267  Uiso   1.00
Er2    Er    0.98914   0.01086   0.25000   0.01267  Uiso   1.00
P1     P     0.35393   0.04491   0.64596   0.01267  Uiso   1.00
P2     P     0.65165   0.97627   0.65429   0.01267  Uiso   1.00
P3     P     0.95509   0.64607   0.85404   0.01267  Uiso   1.00
P4     P     0.02373   0.34835   0.84571   0.01267  Uiso   1.00
P5     P     0.64607   0.95509   0.35404   0.01267  Uiso   1.00
P6     P     0.34835   0.02373   0.34571   0.01267  Uiso   1.00
P7     P     0.04491   0.35393   0.14596   0.01267  Uiso   1.00
P8     P     0.97627   0.65165   0.15429   0.01267  Uiso   1.00
H1     H     0.42040   0.82960   0.73250   0.01267  Uiso   1.00
H2     H     0.47200   0.15900   0.81430   0.01267  Uiso   1.00
H3     H     0.63160   0.12620   0.81650   0.01267  Uiso   1.00
H4     H     0.57900   0.22520   0.74500   0.01267  Uiso   1.00
H5     H     0.17040   0.57960   0.76750   0.01267  Uiso   1.00
H6     H     0.84100   0.52800   0.68570   0.01267  Uiso   1.00
H7     H     0.87380   0.36840   0.68350   0.01267  Uiso   1.00
H8     H     0.77480   0.42100   0.75500   0.01267  Uiso   1.00
H9     H     0.57960   0.17040   0.26750   0.01267  Uiso   1.00
H10    H     0.52800   0.84100   0.18570   0.01267  Uiso   1.00
H11    H     0.36840   0.87380   0.18350   0.01267  Uiso   1.00
H12    H     0.42100   0.77480   0.25500   0.01267  Uiso   1.00
H13    H     0.82960   0.42040   0.23250   0.01267  Uiso   1.00
H14    H     0.15900   0.47200   0.31430   0.01267  Uiso   1.00
H15    H     0.12620   0.63160   0.31650   0.01267  Uiso   1.00
H16    H     0.22520   0.57900   0.24500   0.01267  Uiso   1.00
Ru1    Ru    0.54568   0.12164   0.50190   0.01267  Uiso   1.00
Ru2    Ru    0.87836   0.45432   0.99810   0.01267  Uiso   1.00
Ru3    Ru    0.45432   0.87836   0.49810   0.01267  Uiso   1.00
Ru4    Ru    0.12164   0.54568   0.00190   0.01267  Uiso   1.00
C1     C     0.50470   0.01670   0.71970   0.01267  Uiso   1.00
C2     C     0.55060   0.14220   0.77870   0.01267  Uiso   1.00
C3     C     0.98330   0.49530   0.78030   0.01267  Uiso   1.00
C4     C     0.85780   0.44940   0.72130   0.01267  Uiso   1.00
C5     C     0.49530   0.98330   0.28030   0.01267  Uiso   1.00
C6     C     0.44940   0.85780   0.22130   0.01267  Uiso   1.00
C7     C     0.01670   0.50470   0.21970   0.01267  Uiso   1.00
C8     C     0.14220   0.55060   0.27870   0.01267  Uiso   1.00
O1     O     0.40860   0.16780   0.58960   0.01267  Uiso   1.00
O2     O     0.30890   0.90970   0.58610   0.01267  Uiso   1.00
O3     O     0.23310   0.07410   0.69950   0.01267  Uiso   1.00
O4     O     0.69130   0.10430   0.59870   0.01267  Uiso   1.00
O5     O     0.59440   0.84180   0.59420   0.01267  Uiso   1.00
O6     O     0.77260   0.95500   0.71480   0.01267  Uiso   1.00
O7     O     0.45070   0.90010   0.76740   0.01267  Uiso   1.00
O8     O     0.83220   0.59140   0.91040   0.01267  Uiso   1.00
O9     O     0.09030   0.69110   0.91390   0.01267  Uiso   1.00
O10    O     0.92590   0.76690   0.80050   0.01267  Uiso   1.00
O11    O     0.89570   0.30870   0.90130   0.01267  Uiso   1.00
O12    O     0.15820   0.40560   0.90580   0.01267  Uiso   1.00
O13    O     0.04500   0.22740   0.78520   0.01267  Uiso   1.00
O14    O     0.09990   0.54930   0.73260   0.01267  Uiso   1.00
O15    O     0.59140   0.83220   0.41040   0.01267  Uiso   1.00
O16    O     0.69110   0.09030   0.41390   0.01267  Uiso   1.00
O17    O     0.76690   0.92590   0.30050   0.01267  Uiso   1.00
O18    O     0.30870   0.89570   0.40130   0.01267  Uiso   1.00
O19    O     0.40560   0.15820   0.40580   0.01267  Uiso   1.00
O20    O     0.22740   0.04500   0.28520   0.01267  Uiso   1.00
O21    O     0.54930   0.09990   0.23260   0.01267  Uiso   1.00
O22    O     0.16780   0.40860   0.08960   0.01267  Uiso   1.00
O23    O     0.90970   0.30890   0.08610   0.01267  Uiso   1.00
O24    O     0.07410   0.23310   0.19950   0.01267  Uiso   1.00
O25    O     0.10430   0.69130   0.09870   0.01267  Uiso   1.00
O26    O     0.84180   0.59440   0.09420   0.01267  Uiso   1.00
O27    O     0.95500   0.77260   0.21480   0.01267  Uiso   1.00
O28    O     0.90010   0.45070   0.26740   0.01267  Uiso   1.00
