data_GIQXEK_clean
_audit_creation_date              2014-07-02
_audit_creation_method            'Materials Studio'
_symmetry_space_group_name_H-M    'P1'
_symmetry_Int_Tables_number       1
_symmetry_cell_setting            triclinic
loop_
_symmetry_equiv_pos_as_xyz
  x,y,z
_cell_length_a                    9.6921
_cell_length_b                    9.6921
_cell_length_c                    15.6938
_cell_angle_alpha                 92.7017
_cell_angle_beta                  92.7017
_cell_angle_gamma                 99.0196
loop_
_atom_site_label
_atom_site_type_symbol
_atom_site_fract_x
_atom_site_fract_y
_atom_site_fract_z
_atom_site_U_iso_or_equiv
_atom_site_adp_type
_atom_site_occupancy
Ce1    Ce    0.01140   0.98860   0.75000   0.01267  Uiso   1.00
Ce2    Ce    0.98860   0.01140   0.25000   0.01267  Uiso   1.00
P1     P     0.35642   0.04528   0.64390   0.01267  Uiso   1.00
P2     P     0.64866   0.97408   0.65165   0.01267  Uiso   1.00
P3     P     0.95472   0.64358   0.85610   0.01267  Uiso   1.00
P4     P     0.02592   0.35134   0.84835   0.01267  Uiso   1.00
P5     P     0.64358   0.95472   0.35610   0.01267  Uiso   1.00
P6     P     0.35134   0.02592   0.34835   0.01267  Uiso   1.00
P7     P     0.04528   0.35642   0.14390   0.01267  Uiso   1.00
P8     P     0.97408   0.64866   0.15165   0.01267  Uiso   1.00
H1     H     0.47820   0.16000   0.81170   0.01267  Uiso   1.00
H2     H     0.63490   0.12710   0.81070   0.01267  Uiso   1.00
H3     H     0.58030   0.22510   0.74160   0.01267  Uiso   1.00
H4     H     0.50800   0.82400   0.77100   0.01267  Uiso   1.00
H5     H     0.84000   0.52180   0.68830   0.01267  Uiso   1.00
H6     H     0.87290   0.36510   0.68930   0.01267  Uiso   1.00
H7     H     0.77490   0.41970   0.75840   0.01267  Uiso   1.00
H8     H     0.17600   0.49200   0.72900   0.01267  Uiso   1.00
H9     H     0.52180   0.84000   0.18830   0.01267  Uiso   1.00
H10    H     0.36510   0.87290   0.18930   0.01267  Uiso   1.00
H11    H     0.41970   0.77490   0.25840   0.01267  Uiso   1.00
H12    H     0.49200   0.17600   0.22900   0.01267  Uiso   1.00
H13    H     0.16000   0.47820   0.31170   0.01267  Uiso   1.00
H14    H     0.12710   0.63490   0.31070   0.01267  Uiso   1.00
H15    H     0.22510   0.58030   0.24160   0.01267  Uiso   1.00
H16    H     0.82400   0.50800   0.27100   0.01267  Uiso   1.00
Ru1    Ru    0.54622   0.12006   0.50207   0.01267  Uiso   1.00
Ru2    Ru    0.87994   0.45378   0.99793   0.01267  Uiso   1.00
Ru3    Ru    0.45378   0.87994   0.49793   0.01267  Uiso   1.00
Ru4    Ru    0.12006   0.54622   0.00207   0.01267  Uiso   1.00
C1     C     0.50400   0.01520   0.71500   0.01267  Uiso   1.00
C2     C     0.55380   0.14320   0.77510   0.01267  Uiso   1.00
C3     C     0.98480   0.49600   0.78500   0.01267  Uiso   1.00
C4     C     0.85680   0.44620   0.72490   0.01267  Uiso   1.00
C5     C     0.49600   0.98480   0.28500   0.01267  Uiso   1.00
C6     C     0.44620   0.85680   0.22490   0.01267  Uiso   1.00
C7     C     0.01520   0.50400   0.21500   0.01267  Uiso   1.00
C8     C     0.14320   0.55380   0.27510   0.01267  Uiso   1.00
O1     O     0.41107   0.16807   0.58909   0.01267  Uiso   1.00
O2     O     0.31164   0.91088   0.58536   0.01267  Uiso   1.00
O3     O     0.24016   0.07722   0.69762   0.01267  Uiso   1.00
O4     O     0.69003   0.10125   0.59716   0.01267  Uiso   1.00
O5     O     0.59229   0.84389   0.59246   0.01267  Uiso   1.00
O6     O     0.76781   0.95005   0.71076   0.01267  Uiso   1.00
O7     O     0.44983   0.89857   0.76433   0.01267  Uiso   1.00
O8     O     0.83193   0.58893   0.91091   0.01267  Uiso   1.00
O9     O     0.08912   0.68836   0.91464   0.01267  Uiso   1.00
O10    O     0.92278   0.75984   0.80238   0.01267  Uiso   1.00
O11    O     0.89875   0.30997   0.90284   0.01267  Uiso   1.00
O12    O     0.15611   0.40771   0.90754   0.01267  Uiso   1.00
O13    O     0.04995   0.23219   0.78924   0.01267  Uiso   1.00
O14    O     0.10143   0.55017   0.73567   0.01267  Uiso   1.00
O15    O     0.58893   0.83193   0.41091   0.01267  Uiso   1.00
O16    O     0.68836   0.08912   0.41464   0.01267  Uiso   1.00
O17    O     0.75984   0.92278   0.30238   0.01267  Uiso   1.00
O18    O     0.30997   0.89875   0.40284   0.01267  Uiso   1.00
O19    O     0.40771   0.15611   0.40754   0.01267  Uiso   1.00
O20    O     0.23219   0.04995   0.28924   0.01267  Uiso   1.00
O21    O     0.55017   0.10143   0.23567   0.01267  Uiso   1.00
O22    O     0.16807   0.41107   0.08909   0.01267  Uiso   1.00
O23    O     0.91088   0.31164   0.08536   0.01267  Uiso   1.00
O24    O     0.07722   0.24016   0.19762   0.01267  Uiso   1.00
O25    O     0.10125   0.69003   0.09716   0.01267  Uiso   1.00
O26    O     0.84389   0.59229   0.09246   0.01267  Uiso   1.00
O27    O     0.95005   0.76781   0.21076   0.01267  Uiso   1.00
O28    O     0.89857   0.44983   0.26433   0.01267  Uiso   1.00
