data_GIQYOV_clean
_audit_creation_date              2014-07-02
_audit_creation_method            'Materials Studio'
_symmetry_space_group_name_H-M    'P1'
_symmetry_Int_Tables_number       1
_symmetry_cell_setting            triclinic
loop_
_symmetry_equiv_pos_as_xyz
  x,y,z
_cell_length_a                    9.9402
_cell_length_b                    9.9402
_cell_length_c                    15.6900
_cell_angle_alpha                 92.4662
_cell_angle_beta                  92.4662
_cell_angle_gamma                 97.1781
loop_
_atom_site_label
_atom_site_type_symbol
_atom_site_fract_x
_atom_site_fract_y
_atom_site_fract_z
_atom_site_U_iso_or_equiv
_atom_site_adp_type
_atom_site_occupancy
Pr1    Pr    0.01058   0.98942   0.75000   0.01267  Uiso   1.00
Pr2    Pr    0.98942   0.01058   0.25000   0.01267  Uiso   1.00
P1     P     0.35683   0.04635   0.64161   0.01267  Uiso   1.00
P2     P     0.64974   0.97740   0.65167   0.01267  Uiso   1.00
P3     P     0.95365   0.64317   0.85839   0.01267  Uiso   1.00
P4     P     0.02260   0.35026   0.84833   0.01267  Uiso   1.00
P5     P     0.64317   0.95365   0.35839   0.01267  Uiso   1.00
P6     P     0.35026   0.02260   0.34833   0.01267  Uiso   1.00
P7     P     0.04635   0.35683   0.14161   0.01267  Uiso   1.00
P8     P     0.97740   0.64974   0.15167   0.01267  Uiso   1.00
H1     H     0.43010   0.84750   0.72070   0.01267  Uiso   1.00
H2     H     0.93020   0.11900   0.88730   0.01267  Uiso   1.00
H3     H     0.84930   0.98550   0.87870   0.01267  Uiso   1.00
H4     H     0.54960   0.12860   0.83060   0.01267  Uiso   1.00
H5     H     0.64720   0.17660   0.75620   0.01267  Uiso   1.00
H6     H     0.49660   0.21760   0.75660   0.01267  Uiso   1.00
H7     H     0.15250   0.56990   0.77930   0.01267  Uiso   1.00
H8     H     0.88100   0.06980   0.61270   0.01267  Uiso   1.00
H9     H     0.01450   0.15070   0.62130   0.01267  Uiso   1.00
H10    H     0.87140   0.45040   0.66940   0.01267  Uiso   1.00
H11    H     0.82340   0.35280   0.74380   0.01267  Uiso   1.00
H12    H     0.78240   0.50340   0.74340   0.01267  Uiso   1.00
H13    H     0.56990   0.15250   0.27930   0.01267  Uiso   1.00
H14    H     0.06980   0.88100   0.11270   0.01267  Uiso   1.00
H15    H     0.15070   0.01450   0.12130   0.01267  Uiso   1.00
H16    H     0.45040   0.87140   0.16940   0.01267  Uiso   1.00
H17    H     0.35280   0.82340   0.24380   0.01267  Uiso   1.00
H18    H     0.50340   0.78240   0.24340   0.01267  Uiso   1.00
H19    H     0.84750   0.43010   0.22070   0.01267  Uiso   1.00
H20    H     0.11900   0.93020   0.38730   0.01267  Uiso   1.00
H21    H     0.98550   0.84930   0.37870   0.01267  Uiso   1.00
H22    H     0.12860   0.54960   0.33060   0.01267  Uiso   1.00
H23    H     0.17660   0.64720   0.25620   0.01267  Uiso   1.00
H24    H     0.21760   0.49660   0.25660   0.01267  Uiso   1.00
Ru1    Ru    0.54469   0.11899   0.50338   0.01267  Uiso   1.00
Ru2    Ru    0.88101   0.45531   0.99662   0.01267  Uiso   1.00
Ru3    Ru    0.45531   0.88101   0.49662   0.01267  Uiso   1.00
Ru4    Ru    0.11899   0.54469   0.00338   0.01267  Uiso   1.00
C1     C     0.50130   0.01870   0.71730   0.01267  Uiso   1.00
C2     C     0.55330   0.14650   0.76980   0.01267  Uiso   1.00
C3     C     0.98130   0.49870   0.78270   0.01267  Uiso   1.00
C4     C     0.85350   0.44670   0.73020   0.01267  Uiso   1.00
C5     C     0.49870   0.98130   0.28270   0.01267  Uiso   1.00
C6     C     0.44670   0.85350   0.23020   0.01267  Uiso   1.00
C7     C     0.01870   0.50130   0.21730   0.01267  Uiso   1.00
C8     C     0.14650   0.55330   0.26980   0.01267  Uiso   1.00
O1     O     0.40720   0.16880   0.59120   0.01267  Uiso   1.00
O2     O     0.30570   0.90510   0.58040   0.01267  Uiso   1.00
O3     O     0.23700   0.07680   0.69870   0.01267  Uiso   1.00
O4     O     0.68820   0.10160   0.59590   0.01267  Uiso   1.00
O5     O     0.58470   0.84330   0.59710   0.01267  Uiso   1.00
O6     O     0.75620   0.93740   0.72220   0.01267  Uiso   1.00
O7     O     0.46030   0.91810   0.75560   0.01267  Uiso   1.00
O8     O     0.93190   0.03170   0.87660   0.01267  Uiso   1.00
O9     O     0.83120   0.59280   0.90880   0.01267  Uiso   1.00
O10    O     0.09490   0.69430   0.91960   0.01267  Uiso   1.00
O11    O     0.92320   0.76300   0.80130   0.01267  Uiso   1.00
O12    O     0.89840   0.31180   0.90410   0.01267  Uiso   1.00
O13    O     0.15670   0.41530   0.90290   0.01267  Uiso   1.00
O14    O     0.06260   0.24380   0.77780   0.01267  Uiso   1.00
O15    O     0.08190   0.53970   0.74440   0.01267  Uiso   1.00
O16    O     0.96830   0.06810   0.62340   0.01267  Uiso   1.00
O17    O     0.59280   0.83120   0.40880   0.01267  Uiso   1.00
O18    O     0.69430   0.09490   0.41960   0.01267  Uiso   1.00
O19    O     0.76300   0.92320   0.30130   0.01267  Uiso   1.00
O20    O     0.31180   0.89840   0.40410   0.01267  Uiso   1.00
O21    O     0.41530   0.15670   0.40290   0.01267  Uiso   1.00
O22    O     0.24380   0.06260   0.27780   0.01267  Uiso   1.00
O23    O     0.53970   0.08190   0.24440   0.01267  Uiso   1.00
O24    O     0.06810   0.96830   0.12340   0.01267  Uiso   1.00
O25    O     0.16880   0.40720   0.09120   0.01267  Uiso   1.00
O26    O     0.90510   0.30570   0.08040   0.01267  Uiso   1.00
O27    O     0.07680   0.23700   0.19870   0.01267  Uiso   1.00
O28    O     0.10160   0.68820   0.09590   0.01267  Uiso   1.00
O29    O     0.84330   0.58470   0.09710   0.01267  Uiso   1.00
O30    O     0.93740   0.75620   0.22220   0.01267  Uiso   1.00
O31    O     0.91810   0.46030   0.25560   0.01267  Uiso   1.00
O32    O     0.03170   0.93190   0.37660   0.01267  Uiso   1.00
