data_GIQYAH_clean
_audit_creation_date              2014-07-02
_audit_creation_method            'Materials Studio'
_symmetry_space_group_name_H-M    'P1'
_symmetry_Int_Tables_number       1
_symmetry_cell_setting            triclinic
loop_
_symmetry_equiv_pos_as_xyz
  x,y,z
_cell_length_a                    9.5515
_cell_length_b                    9.5515
_cell_length_c                    15.3900
_cell_angle_alpha                 92.7105
_cell_angle_beta                  92.7105
_cell_angle_gamma                 98.2997
loop_
_atom_site_label
_atom_site_type_symbol
_atom_site_fract_x
_atom_site_fract_y
_atom_site_fract_z
_atom_site_U_iso_or_equiv
_atom_site_adp_type
_atom_site_occupancy
Ho1    Ho    0.00995   0.99005   0.75000   0.01267  Uiso   1.00
Ho2    Ho    0.99005   0.00995   0.25000   0.01267  Uiso   1.00
P1     P     0.35318   0.04408   0.64512   0.01267  Uiso   1.00
P2     P     0.65288   0.97686   0.65454   0.01267  Uiso   1.00
P3     P     0.95592   0.64682   0.85488   0.01267  Uiso   1.00
P4     P     0.02314   0.34712   0.84546   0.01267  Uiso   1.00
P5     P     0.64682   0.95592   0.35488   0.01267  Uiso   1.00
P6     P     0.34712   0.02314   0.34546   0.01267  Uiso   1.00
P7     P     0.04408   0.35318   0.14512   0.01267  Uiso   1.00
P8     P     0.97686   0.65288   0.15454   0.01267  Uiso   1.00
H1     H     0.42470   0.83110   0.73560   0.01267  Uiso   1.00
H2     H     0.47140   0.16600   0.81340   0.01267  Uiso   1.00
H3     H     0.62830   0.12570   0.81810   0.01267  Uiso   1.00
H4     H     0.58380   0.22940   0.74640   0.01267  Uiso   1.00
H5     H     0.16890   0.57530   0.76440   0.01267  Uiso   1.00
H6     H     0.83400   0.52860   0.68660   0.01267  Uiso   1.00
H7     H     0.87430   0.37170   0.68190   0.01267  Uiso   1.00
H8     H     0.77060   0.41620   0.75360   0.01267  Uiso   1.00
H9     H     0.57530   0.16890   0.26440   0.01267  Uiso   1.00
H10    H     0.52860   0.83400   0.18660   0.01267  Uiso   1.00
H11    H     0.37170   0.87430   0.18190   0.01267  Uiso   1.00
H12    H     0.41620   0.77060   0.25360   0.01267  Uiso   1.00
H13    H     0.83110   0.42470   0.23560   0.01267  Uiso   1.00
H14    H     0.16600   0.47140   0.31340   0.01267  Uiso   1.00
H15    H     0.12570   0.62830   0.31810   0.01267  Uiso   1.00
H16    H     0.22940   0.58380   0.24640   0.01267  Uiso   1.00
Ru1    Ru    0.54530   0.12146   0.50194   0.01267  Uiso   1.00
Ru2    Ru    0.87854   0.45470   0.99806   0.01267  Uiso   1.00
Ru3    Ru    0.45470   0.87854   0.49806   0.01267  Uiso   1.00
Ru4    Ru    0.12146   0.54530   0.00194   0.01267  Uiso   1.00
C1     C     0.50310   0.02070   0.71630   0.01267  Uiso   1.00
C2     C     0.55090   0.14650   0.77900   0.01267  Uiso   1.00
C3     C     0.97930   0.49690   0.78370   0.01267  Uiso   1.00
C4     C     0.85350   0.44910   0.72100   0.01267  Uiso   1.00
C5     C     0.49690   0.97930   0.28370   0.01267  Uiso   1.00
C6     C     0.44910   0.85350   0.22100   0.01267  Uiso   1.00
C7     C     0.02070   0.50310   0.21630   0.01267  Uiso   1.00
C8     C     0.14650   0.55090   0.27900   0.01267  Uiso   1.00
O1     O     0.40480   0.16480   0.58680   0.01267  Uiso   1.00
O2     O     0.30810   0.90970   0.58620   0.01267  Uiso   1.00
O3     O     0.23330   0.07150   0.69790   0.01267  Uiso   1.00
O4     O     0.69270   0.10550   0.59810   0.01267  Uiso   1.00
O5     O     0.59550   0.84410   0.59360   0.01267  Uiso   1.00
O6     O     0.77150   0.95230   0.71410   0.01267  Uiso   1.00
O7     O     0.45500   0.90160   0.77050   0.01267  Uiso   1.00
O8     O     0.83520   0.59520   0.91320   0.01267  Uiso   1.00
O9     O     0.09030   0.69190   0.91380   0.01267  Uiso   1.00
O10    O     0.92850   0.76670   0.80210   0.01267  Uiso   1.00
O11    O     0.89450   0.30730   0.90190   0.01267  Uiso   1.00
O12    O     0.15590   0.40450   0.90640   0.01267  Uiso   1.00
O13    O     0.04770   0.22850   0.78590   0.01267  Uiso   1.00
O14    O     0.09840   0.54500   0.72950   0.01267  Uiso   1.00
O15    O     0.59520   0.83520   0.41320   0.01267  Uiso   1.00
O16    O     0.69190   0.09030   0.41380   0.01267  Uiso   1.00
O17    O     0.76670   0.92850   0.30210   0.01267  Uiso   1.00
O18    O     0.30730   0.89450   0.40190   0.01267  Uiso   1.00
O19    O     0.40450   0.15590   0.40640   0.01267  Uiso   1.00
O20    O     0.22850   0.04770   0.28590   0.01267  Uiso   1.00
O21    O     0.54500   0.09840   0.22950   0.01267  Uiso   1.00
O22    O     0.16480   0.40480   0.08680   0.01267  Uiso   1.00
O23    O     0.90970   0.30810   0.08620   0.01267  Uiso   1.00
O24    O     0.07150   0.23330   0.19790   0.01267  Uiso   1.00
O25    O     0.10550   0.69270   0.09810   0.01267  Uiso   1.00
O26    O     0.84410   0.59550   0.09360   0.01267  Uiso   1.00
O27    O     0.95230   0.77150   0.21410   0.01267  Uiso   1.00
O28    O     0.90160   0.45500   0.27050   0.01267  Uiso   1.00
