data_GIQYIP_clean
_audit_creation_date              2014-07-02
_audit_creation_method            'Materials Studio'
_symmetry_space_group_name_H-M    'P1'
_symmetry_Int_Tables_number       1
_symmetry_cell_setting            triclinic
loop_
_symmetry_equiv_pos_as_xyz
  x,y,z
_cell_length_a                    9.6602
_cell_length_b                    9.6602
_cell_length_c                    15.6250
_cell_angle_alpha                 92.9053
_cell_angle_beta                  92.9053
_cell_angle_gamma                 99.1062
loop_
_atom_site_label
_atom_site_type_symbol
_atom_site_fract_x
_atom_site_fract_y
_atom_site_fract_z
_atom_site_U_iso_or_equiv
_atom_site_adp_type
_atom_site_occupancy
Nd1    Nd    0.01135   0.98865   0.75000   0.01267  Uiso   1.00
Nd2    Nd    0.98865   0.01135   0.25000   0.01267  Uiso   1.00
P1     P     0.35531   0.04489   0.64424   0.01267  Uiso   1.00
P2     P     0.65005   0.97491   0.65262   0.01267  Uiso   1.00
P3     P     0.95511   0.64469   0.85576   0.01267  Uiso   1.00
P4     P     0.02509   0.34995   0.84738   0.01267  Uiso   1.00
P5     P     0.64469   0.95511   0.35576   0.01267  Uiso   1.00
P6     P     0.34995   0.02509   0.34738   0.01267  Uiso   1.00
P7     P     0.04489   0.35531   0.14424   0.01267  Uiso   1.00
P8     P     0.97491   0.65005   0.15262   0.01267  Uiso   1.00
H1     H     0.47860   0.15460   0.81630   0.01267  Uiso   1.00
H2     H     0.63770   0.12850   0.81210   0.01267  Uiso   1.00
H3     H     0.57540   0.22660   0.74550   0.01267  Uiso   1.00
H4     H     0.41900   0.82500   0.73200   0.01267  Uiso   1.00
H5     H     0.84540   0.52140   0.68370   0.01267  Uiso   1.00
H6     H     0.87150   0.36230   0.68790   0.01267  Uiso   1.00
H7     H     0.77340   0.42460   0.75450   0.01267  Uiso   1.00
H8     H     0.17500   0.58100   0.76800   0.01267  Uiso   1.00
H9     H     0.52140   0.84540   0.18370   0.01267  Uiso   1.00
H10    H     0.36230   0.87150   0.18790   0.01267  Uiso   1.00
H11    H     0.42460   0.77340   0.25450   0.01267  Uiso   1.00
H12    H     0.58100   0.17500   0.26800   0.01267  Uiso   1.00
H13    H     0.15460   0.47860   0.31630   0.01267  Uiso   1.00
H14    H     0.12850   0.63770   0.31210   0.01267  Uiso   1.00
H15    H     0.22660   0.57540   0.24550   0.01267  Uiso   1.00
H16    H     0.82500   0.41900   0.23200   0.01267  Uiso   1.00
Ru1    Ru    0.54603   0.12039   0.50221   0.01267  Uiso   1.00
Ru2    Ru    0.87961   0.45397   0.99779   0.01267  Uiso   1.00
Ru3    Ru    0.45397   0.87961   0.49779   0.01267  Uiso   1.00
Ru4    Ru    0.12039   0.54603   0.00221   0.01267  Uiso   1.00
C1     C     0.50580   0.01540   0.71620   0.01267  Uiso   1.00
C2     C     0.55360   0.14260   0.77800   0.01267  Uiso   1.00
C3     C     0.98460   0.49420   0.78380   0.01267  Uiso   1.00
C4     C     0.85740   0.44640   0.72200   0.01267  Uiso   1.00
C5     C     0.49420   0.98460   0.28380   0.01267  Uiso   1.00
C6     C     0.44640   0.85740   0.22200   0.01267  Uiso   1.00
C7     C     0.01540   0.50580   0.21620   0.01267  Uiso   1.00
C8     C     0.14260   0.55360   0.27800   0.01267  Uiso   1.00
O1     O     0.40970   0.16850   0.58889   0.01267  Uiso   1.00
O2     O     0.31060   0.91000   0.58562   0.01267  Uiso   1.00
O3     O     0.23540   0.07760   0.69856   0.01267  Uiso   1.00
O4     O     0.69080   0.10180   0.59825   0.01267  Uiso   1.00
O5     O     0.59252   0.84388   0.59238   0.01267  Uiso   1.00
O6     O     0.76883   0.95137   0.71214   0.01267  Uiso   1.00
O7     O     0.45010   0.89870   0.76600   0.01267  Uiso   1.00
O8     O     0.83150   0.59030   0.91111   0.01267  Uiso   1.00
O9     O     0.09000   0.68940   0.91438   0.01267  Uiso   1.00
O10    O     0.92240   0.76460   0.80144   0.01267  Uiso   1.00
O11    O     0.89820   0.30920   0.90175   0.01267  Uiso   1.00
O12    O     0.15612   0.40748   0.90762   0.01267  Uiso   1.00
O13    O     0.04863   0.23117   0.78786   0.01267  Uiso   1.00
O14    O     0.10130   0.54990   0.73400   0.01267  Uiso   1.00
O15    O     0.59030   0.83150   0.41111   0.01267  Uiso   1.00
O16    O     0.68940   0.09000   0.41438   0.01267  Uiso   1.00
O17    O     0.76460   0.92240   0.30144   0.01267  Uiso   1.00
O18    O     0.30920   0.89820   0.40175   0.01267  Uiso   1.00
O19    O     0.40748   0.15612   0.40762   0.01267  Uiso   1.00
O20    O     0.23117   0.04863   0.28786   0.01267  Uiso   1.00
O21    O     0.54990   0.10130   0.23400   0.01267  Uiso   1.00
O22    O     0.16850   0.40970   0.08889   0.01267  Uiso   1.00
O23    O     0.91000   0.31060   0.08562   0.01267  Uiso   1.00
O24    O     0.07760   0.23540   0.19856   0.01267  Uiso   1.00
O25    O     0.10180   0.69080   0.09825   0.01267  Uiso   1.00
O26    O     0.84388   0.59252   0.09238   0.01267  Uiso   1.00
O27    O     0.95137   0.76883   0.21214   0.01267  Uiso   1.00
O28    O     0.89870   0.45010   0.26600   0.01267  Uiso   1.00
