data_GIRDUI_clean
_audit_creation_date              2014-07-02
_audit_creation_method            'Materials Studio'
_symmetry_space_group_name_H-M    'P1'
_symmetry_Int_Tables_number       1
_symmetry_cell_setting            triclinic
loop_
_symmetry_equiv_pos_as_xyz
  x,y,z
_cell_length_a                    8.2870
_cell_length_b                    14.2240
_cell_length_c                    14.7260
_cell_angle_alpha                 90.0000
_cell_angle_beta                  90.0000
_cell_angle_gamma                 99.6960
loop_
_atom_site_label
_atom_site_type_symbol
_atom_site_fract_x
_atom_site_fract_y
_atom_site_fract_z
_atom_site_U_iso_or_equiv
_atom_site_adp_type
_atom_site_occupancy
Co1    Co    0.90593   0.11991   0.08256   0.01267  Uiso   1.00
Co2    Co    0.59407   0.88009   0.58256   0.01267  Uiso   1.00
Co3    Co    0.09407   0.88009   0.91744   0.01267  Uiso   1.00
Co4    Co    0.40593   0.11991   0.41744   0.01267  Uiso   1.00
H1     H     0.49570   0.83870   0.30200   0.01267  Uiso   1.00
H2     H     0.65580   0.92330   0.05610   0.01267  Uiso   1.00
H3     H     0.50530   0.76460   0.07370   0.01267  Uiso   1.00
H4     H     0.35040   0.80090   0.11140   0.01267  Uiso   1.00
H5     H     0.35240   0.70890   0.23590   0.01267  Uiso   1.00
H6     H     0.34880   0.64630   0.14810   0.01267  Uiso   1.00
H7     H     0.51270   0.67510   0.20210   0.01267  Uiso   1.00
H8     H     0.24660   0.20760   0.10960   0.01267  Uiso   1.00
H9     H     0.44270   0.33610   0.08080   0.01267  Uiso   1.00
H10    H     0.11840   0.44150   0.92970   0.01267  Uiso   1.00
H11    H     0.93280   0.30890   0.96020   0.01267  Uiso   1.00
H12    H     0.39080   0.53760   0.94770   0.01267  Uiso   1.00
H13    H     0.00430   0.16130   0.80200   0.01267  Uiso   1.00
H14    H     0.84420   0.07670   0.55610   0.01267  Uiso   1.00
H15    H     0.99470   0.23540   0.57370   0.01267  Uiso   1.00
H16    H     0.14960   0.19910   0.61140   0.01267  Uiso   1.00
H17    H     0.14760   0.29110   0.73590   0.01267  Uiso   1.00
H18    H     0.15120   0.35370   0.64810   0.01267  Uiso   1.00
H19    H     0.98730   0.32490   0.70210   0.01267  Uiso   1.00
H20    H     0.25340   0.79240   0.60960   0.01267  Uiso   1.00
H21    H     0.05730   0.66390   0.58080   0.01267  Uiso   1.00
H22    H     0.38160   0.55850   0.42970   0.01267  Uiso   1.00
H23    H     0.56720   0.69110   0.46020   0.01267  Uiso   1.00
H24    H     0.10920   0.46240   0.44770   0.01267  Uiso   1.00
H25    H     0.50430   0.16130   0.69800   0.01267  Uiso   1.00
H26    H     0.34420   0.07670   0.94390   0.01267  Uiso   1.00
H27    H     0.49470   0.23540   0.92630   0.01267  Uiso   1.00
H28    H     0.64960   0.19910   0.88860   0.01267  Uiso   1.00
H29    H     0.64760   0.29110   0.76410   0.01267  Uiso   1.00
H30    H     0.65120   0.35370   0.85190   0.01267  Uiso   1.00
H31    H     0.48730   0.32490   0.79790   0.01267  Uiso   1.00
H32    H     0.75340   0.79240   0.89040   0.01267  Uiso   1.00
H33    H     0.55730   0.66390   0.91920   0.01267  Uiso   1.00
H34    H     0.88160   0.55850   0.07030   0.01267  Uiso   1.00
H35    H     0.06720   0.69110   0.03980   0.01267  Uiso   1.00
H36    H     0.60920   0.46240   0.05230   0.01267  Uiso   1.00
H37    H     0.99570   0.83870   0.19800   0.01267  Uiso   1.00
H38    H     0.15580   0.92330   0.44390   0.01267  Uiso   1.00
H39    H     0.00530   0.76460   0.42630   0.01267  Uiso   1.00
H40    H     0.85040   0.80090   0.38860   0.01267  Uiso   1.00
H41    H     0.85240   0.70890   0.26410   0.01267  Uiso   1.00
H42    H     0.84880   0.64630   0.35190   0.01267  Uiso   1.00
H43    H     0.01270   0.67510   0.29790   0.01267  Uiso   1.00
H44    H     0.74660   0.20760   0.39040   0.01267  Uiso   1.00
H45    H     0.94270   0.33610   0.41920   0.01267  Uiso   1.00
H46    H     0.61840   0.44150   0.57030   0.01267  Uiso   1.00
H47    H     0.43280   0.30890   0.53980   0.01267  Uiso   1.00
H48    H     0.89080   0.53760   0.55230   0.01267  Uiso   1.00
C1     C     0.89460   0.09801   0.27681   0.01267  Uiso   1.00
C2     C     0.76450   0.01841   0.24426   0.01267  Uiso   1.00
C3     C     0.66270   0.95841   0.30205   0.01267  Uiso   1.00
C4     C     0.56280   0.88087   0.26422   0.01267  Uiso   1.00
C5     C     0.55970   0.86421   0.17215   0.01267  Uiso   1.00
C6     C     0.65940   0.93093   0.11879   0.01267  Uiso   1.00
C7     C     0.45230   0.78090   0.12890   0.01267  Uiso   1.00
C8     C     0.41330   0.69570   0.18330   0.01267  Uiso   1.00
C9     C     0.64710   0.97528   0.40260   0.01267  Uiso   1.00
C10    C     0.21990   0.25570   0.07260   0.01267  Uiso   1.00
C11    C     0.33870   0.33300   0.05600   0.01267  Uiso   1.00
C12    C     0.30360   0.40600   0.00270   0.01267  Uiso   1.00
C13    C     0.14800   0.39450   0.96700   0.01267  Uiso   1.00
C14    C     0.03660   0.31470   0.98590   0.01267  Uiso   1.00
C15    C     0.42400   0.49130   0.98450   0.01267  Uiso   1.00
C16    C     0.60540   0.90199   0.77681   0.01267  Uiso   1.00
C17    C     0.73550   0.98159   0.74426   0.01267  Uiso   1.00
C18    C     0.83730   0.04159   0.80205   0.01267  Uiso   1.00
C19    C     0.93720   0.11913   0.76422   0.01267  Uiso   1.00
C20    C     0.94030   0.13579   0.67215   0.01267  Uiso   1.00
C21    C     0.84060   0.06907   0.61879   0.01267  Uiso   1.00
C22    C     0.04770   0.21910   0.62890   0.01267  Uiso   1.00
C23    C     0.08670   0.30430   0.68330   0.01267  Uiso   1.00
C24    C     0.85290   0.02472   0.90260   0.01267  Uiso   1.00
C25    C     0.28010   0.74430   0.57260   0.01267  Uiso   1.00
C26    C     0.16130   0.66700   0.55600   0.01267  Uiso   1.00
C27    C     0.19640   0.59400   0.50270   0.01267  Uiso   1.00
C28    C     0.35200   0.60550   0.46700   0.01267  Uiso   1.00
C29    C     0.46340   0.68530   0.48590   0.01267  Uiso   1.00
C30    C     0.07600   0.50870   0.48450   0.01267  Uiso   1.00
C31    C     0.10540   0.90199   0.72319   0.01267  Uiso   1.00
C32    C     0.23550   0.98159   0.75574   0.01267  Uiso   1.00
C33    C     0.33730   0.04159   0.69795   0.01267  Uiso   1.00
C34    C     0.43720   0.11913   0.73578   0.01267  Uiso   1.00
C35    C     0.44030   0.13579   0.82785   0.01267  Uiso   1.00
C36    C     0.34060   0.06907   0.88121   0.01267  Uiso   1.00
C37    C     0.54770   0.21910   0.87110   0.01267  Uiso   1.00
C38    C     0.58670   0.30430   0.81670   0.01267  Uiso   1.00
C39    C     0.35290   0.02472   0.59740   0.01267  Uiso   1.00
C40    C     0.78010   0.74430   0.92740   0.01267  Uiso   1.00
C41    C     0.66130   0.66700   0.94400   0.01267  Uiso   1.00
C42    C     0.69640   0.59400   0.99730   0.01267  Uiso   1.00
C43    C     0.85200   0.60550   0.03300   0.01267  Uiso   1.00
C44    C     0.96340   0.68530   0.01410   0.01267  Uiso   1.00
C45    C     0.57600   0.50870   0.01550   0.01267  Uiso   1.00
C46    C     0.39460   0.09801   0.22319   0.01267  Uiso   1.00
C47    C     0.26450   0.01841   0.25574   0.01267  Uiso   1.00
C48    C     0.16270   0.95841   0.19795   0.01267  Uiso   1.00
C49    C     0.06280   0.88087   0.23578   0.01267  Uiso   1.00
C50    C     0.05970   0.86421   0.32785   0.01267  Uiso   1.00
C51    C     0.15940   0.93093   0.38121   0.01267  Uiso   1.00
C52    C     0.95230   0.78090   0.37110   0.01267  Uiso   1.00
C53    C     0.91330   0.69570   0.31670   0.01267  Uiso   1.00
C54    C     0.14710   0.97528   0.09740   0.01267  Uiso   1.00
C55    C     0.71990   0.25570   0.42740   0.01267  Uiso   1.00
C56    C     0.83870   0.33300   0.44400   0.01267  Uiso   1.00
C57    C     0.80360   0.40600   0.49730   0.01267  Uiso   1.00
C58    C     0.64800   0.39450   0.53300   0.01267  Uiso   1.00
C59    C     0.53660   0.31470   0.51410   0.01267  Uiso   1.00
C60    C     0.92400   0.49130   0.51550   0.01267  Uiso   1.00
N1     N     0.76000   0.00552   0.15367   0.01267  Uiso   1.00
N2     N     0.06950   0.24486   0.03926   0.01267  Uiso   1.00
N3     N     0.74000   0.99448   0.65367   0.01267  Uiso   1.00
N4     N     0.43050   0.75514   0.53926   0.01267  Uiso   1.00
N5     N     0.24000   0.99448   0.84633   0.01267  Uiso   1.00
N6     N     0.93050   0.75514   0.96074   0.01267  Uiso   1.00
N7     N     0.26000   0.00552   0.34633   0.01267  Uiso   1.00
N8     N     0.56950   0.24486   0.46074   0.01267  Uiso   1.00
O1     O     0.95810   0.15804   0.21751   0.01267  Uiso   1.00
O2     O     0.93400   0.09924   0.35754   0.01267  Uiso   1.00
O3     O     0.60280   0.04958   0.42893   0.01267  Uiso   1.00
O4     O     0.67310   0.90797   0.45263   0.01267  Uiso   1.00
O5     O     0.54190   0.84196   0.71751   0.01267  Uiso   1.00
O6     O     0.56600   0.90076   0.85754   0.01267  Uiso   1.00
O7     O     0.89720   0.95042   0.92893   0.01267  Uiso   1.00
O8     O     0.82690   0.09203   0.95263   0.01267  Uiso   1.00
O9     O     0.04190   0.84196   0.78249   0.01267  Uiso   1.00
O10    O     0.06600   0.90076   0.64246   0.01267  Uiso   1.00
O11    O     0.39720   0.95042   0.57107   0.01267  Uiso   1.00
O12    O     0.32690   0.09203   0.54737   0.01267  Uiso   1.00
O13    O     0.45810   0.15804   0.28249   0.01267  Uiso   1.00
O14    O     0.43400   0.09924   0.14246   0.01267  Uiso   1.00
O15    O     0.10280   0.04958   0.07107   0.01267  Uiso   1.00
O16    O     0.17310   0.90797   0.04737   0.01267  Uiso   1.00
