data_image0
_cell_length_a       16.1871
_cell_length_b       16.3069
_cell_length_c       9.9762
_cell_angle_alpha    90
_cell_angle_beta     114.628
_cell_angle_gamma    90

_symmetry_space_group_name_H-M    "P 1"
_symmetry_int_tables_number       1

loop_
  _symmetry_equiv_pos_as_xyz
  'x, y, z'

loop_
  _atom_site_label
  _atom_site_occupancy
  _atom_site_fract_x
  _atom_site_fract_y
  _atom_site_fract_z
  _atom_site_thermal_displace_type
  _atom_site_B_iso_or_equiv
  _atom_site_type_symbol
  C1       1.0000 0.42040  0.15280  0.33370  Biso   1.000  C
  H1       1.0000 0.42850  0.09630  0.33650  Biso   1.000  H
  C2       1.0000 0.49310  0.20128  0.41610  Biso   1.000  C
  H2       1.0000 0.54940  0.17800  0.47270  Biso   1.000  H
  C3       1.0000 0.48120  0.28580  0.41380  Biso   1.000  C
  C4       1.0000 0.39700  0.31810  0.32490  Biso   1.000  C
  H3       1.0000 0.38760  0.37450  0.32000  Biso   1.000  H
  C5       1.0000 0.32740  0.26580  0.24410  Biso   1.000  C
  H4       1.0000 0.27110  0.28790  0.18400  Biso   1.000  H
  C6       1.0000 0.55850  0.34190  0.50390  Biso   1.000  C
  C7       1.0000 0.19750  0.98755  0.89650  Biso   1.000  C
  N1       1.0000 0.33776  0.18363  0.24880  Biso   1.000  N
  N2       1.0000 0.24226  0.04886  0.98790  Biso   1.000  N
  N3       1.0000 0.31426  0.06762  0.95550  Biso   1.000  N
  N4       1.0000 0.31316  0.02070  0.85190  Biso   1.000  N
  N5       1.0000 0.23977  0.96870  0.81040  Biso   1.000  N
  N6       1.0000 0.12380  0.94967  0.89700  Biso   1.000  N
  H5       1.0000 0.09970  0.90930  0.83810  Biso   1.000  H
  H6       1.0000 0.10080  0.96580  0.95620  Biso   1.000  H
  O1       1.0000 0.63509  0.30625  0.57480  Biso   1.000  O
  O2       1.0000 0.54619  0.41627  0.50490  Biso   1.000  O
  Zn1      1.0000 0.22743  0.10838  0.14975  Biso   1.000  Zn
  C8       1.0000 0.92040  0.65280  0.33370  Biso   1.000  C
  H7       1.0000 0.92850  0.59630  0.33650  Biso   1.000  H
  C9       1.0000 0.99310  0.70128  0.41610  Biso   1.000  C
  H8       1.0000 0.04940  0.67800  0.47270  Biso   1.000  H
  C10      1.0000 0.98120  0.78580  0.41380  Biso   1.000  C
  C11      1.0000 0.89700  0.81810  0.32490  Biso   1.000  C
  H9       1.0000 0.88760  0.87450  0.32000  Biso   1.000  H
  C12      1.0000 0.82740  0.76580  0.24410  Biso   1.000  C
  H10      1.0000 0.77110  0.78790  0.18400  Biso   1.000  H
  C13      1.0000 0.05850  0.84190  0.50390  Biso   1.000  C
  C14      1.0000 0.69750  0.48755  0.89650  Biso   1.000  C
  N7       1.0000 0.83776  0.68363  0.24880  Biso   1.000  N
  N8       1.0000 0.74226  0.54886  0.98790  Biso   1.000  N
  N9       1.0000 0.81426  0.56762  0.95550  Biso   1.000  N
  N10      1.0000 0.81316  0.52070  0.85190  Biso   1.000  N
  N11      1.0000 0.73977  0.46870  0.81040  Biso   1.000  N
  N12      1.0000 0.62380  0.44967  0.89700  Biso   1.000  N
  H11      1.0000 0.59970  0.40930  0.83810  Biso   1.000  H
  H12      1.0000 0.60080  0.46580  0.95620  Biso   1.000  H
  O3       1.0000 0.13509  0.80625  0.57480  Biso   1.000  O
  O4       1.0000 0.04619  0.91627  0.50490  Biso   1.000  O
  Zn2      1.0000 0.72743  0.60838  0.14975  Biso   1.000  Zn
  C15      1.0000 0.42040  0.84720  0.83370  Biso   1.000  C
  H13      1.0000 0.42850  0.90370  0.83650  Biso   1.000  H
  C16      1.0000 0.49310  0.79872  0.91610  Biso   1.000  C
  H14      1.0000 0.54940  0.82200  0.97270  Biso   1.000  H
  C17      1.0000 0.48120  0.71420  0.91380  Biso   1.000  C
  C18      1.0000 0.39700  0.68190  0.82490  Biso   1.000  C
  H15      1.0000 0.38760  0.62550  0.82000  Biso   1.000  H
  C19      1.0000 0.32740  0.73420  0.74410  Biso   1.000  C
  H16      1.0000 0.27110  0.71210  0.68400  Biso   1.000  H
  C20      1.0000 0.55850  0.65810  0.00390  Biso   1.000  C
  C21      1.0000 0.19750  0.01245  0.39650  Biso   1.000  C
  N13      1.0000 0.33776  0.81637  0.74880  Biso   1.000  N
  N14      1.0000 0.24226  0.95114  0.48790  Biso   1.000  N
  N15      1.0000 0.31426  0.93238  0.45550  Biso   1.000  N
  N16      1.0000 0.31316  0.97930  0.35190  Biso   1.000  N
  N17      1.0000 0.23977  0.03130  0.31040  Biso   1.000  N
  N18      1.0000 0.12380  0.05033  0.39700  Biso   1.000  N
  H17      1.0000 0.09970  0.09070  0.33810  Biso   1.000  H
  H18      1.0000 0.10080  0.03420  0.45620  Biso   1.000  H
  O5       1.0000 0.63509  0.69375  0.07480  Biso   1.000  O
  O6       1.0000 0.54619  0.58373  0.00490  Biso   1.000  O
  Zn3      1.0000 0.22743  0.89162  0.64975  Biso   1.000  Zn
  C22      1.0000 0.92040  0.34720  0.83370  Biso   1.000  C
  H19      1.0000 0.92850  0.40370  0.83650  Biso   1.000  H
  C23      1.0000 0.99310  0.29872  0.91610  Biso   1.000  C
  H20      1.0000 0.04940  0.32200  0.97270  Biso   1.000  H
  C24      1.0000 0.98120  0.21420  0.91380  Biso   1.000  C
  C25      1.0000 0.89700  0.18190  0.82490  Biso   1.000  C
  H21      1.0000 0.88760  0.12550  0.82000  Biso   1.000  H
  C26      1.0000 0.82740  0.23420  0.74410  Biso   1.000  C
  H22      1.0000 0.77110  0.21210  0.68400  Biso   1.000  H
  C27      1.0000 0.05850  0.15810  0.00390  Biso   1.000  C
  C28      1.0000 0.69750  0.51245  0.39650  Biso   1.000  C
  N19      1.0000 0.83776  0.31637  0.74880  Biso   1.000  N
  N20      1.0000 0.74226  0.45114  0.48790  Biso   1.000  N
  N21      1.0000 0.81426  0.43238  0.45550  Biso   1.000  N
  N22      1.0000 0.81316  0.47930  0.35190  Biso   1.000  N
  N23      1.0000 0.73977  0.53130  0.31040  Biso   1.000  N
  N24      1.0000 0.62380  0.55033  0.39700  Biso   1.000  N
  H23      1.0000 0.59970  0.59070  0.33810  Biso   1.000  H
  H24      1.0000 0.60080  0.53420  0.45620  Biso   1.000  H
  O7       1.0000 0.13509  0.19375  0.07480  Biso   1.000  O
  O8       1.0000 0.04619  0.08373  0.00490  Biso   1.000  O
  Zn4      1.0000 0.72743  0.39162  0.64975  Biso   1.000  Zn
  C29      1.0000 0.57960  0.15280  0.16630  Biso   1.000  C
  H25      1.0000 0.57150  0.09630  0.16350  Biso   1.000  H
  C30      1.0000 0.50690  0.20128  0.08390  Biso   1.000  C
  H26      1.0000 0.45060  0.17800  0.02730  Biso   1.000  H
  C31      1.0000 0.51880  0.28580  0.08620  Biso   1.000  C
  C32      1.0000 0.60300  0.31810  0.17510  Biso   1.000  C
  H27      1.0000 0.61240  0.37450  0.18000  Biso   1.000  H
  C33      1.0000 0.67260  0.26580  0.25590  Biso   1.000  C
  H28      1.0000 0.72890  0.28790  0.31600  Biso   1.000  H
  C34      1.0000 0.44150  0.34190  0.99610  Biso   1.000  C
  C35      1.0000 0.80250  0.98755  0.60350  Biso   1.000  C
  N25      1.0000 0.66224  0.18363  0.25120  Biso   1.000  N
  N26      1.0000 0.75774  0.04886  0.51210  Biso   1.000  N
  N27      1.0000 0.68574  0.06762  0.54450  Biso   1.000  N
  N28      1.0000 0.68684  0.02070  0.64810  Biso   1.000  N
  N29      1.0000 0.76023  0.96870  0.68960  Biso   1.000  N
  N30      1.0000 0.87620  0.94967  0.60300  Biso   1.000  N
  H29      1.0000 0.90030  0.90930  0.66190  Biso   1.000  H
  H30      1.0000 0.89920  0.96580  0.54380  Biso   1.000  H
  O9       1.0000 0.36491  0.30625  0.92520  Biso   1.000  O
  O10      1.0000 0.45381  0.41627  0.99510  Biso   1.000  O
  Zn5      1.0000 0.77257  0.10838  0.35025  Biso   1.000  Zn
  C36      1.0000 0.07960  0.65280  0.16630  Biso   1.000  C
  H31      1.0000 0.07150  0.59630  0.16350  Biso   1.000  H
  C37      1.0000 0.00690  0.70128  0.08390  Biso   1.000  C
  H32      1.0000 0.95060  0.67800  0.02730  Biso   1.000  H
  C38      1.0000 0.01880  0.78580  0.08620  Biso   1.000  C
  C39      1.0000 0.10300  0.81810  0.17510  Biso   1.000  C
  H33      1.0000 0.11240  0.87450  0.18000  Biso   1.000  H
  C40      1.0000 0.17260  0.76580  0.25590  Biso   1.000  C
  H34      1.0000 0.22890  0.78790  0.31600  Biso   1.000  H
  C41      1.0000 0.94150  0.84190  0.99610  Biso   1.000  C
  C42      1.0000 0.30250  0.48755  0.60350  Biso   1.000  C
  N31      1.0000 0.16224  0.68363  0.25120  Biso   1.000  N
  N32      1.0000 0.25774  0.54886  0.51210  Biso   1.000  N
  N33      1.0000 0.18574  0.56762  0.54450  Biso   1.000  N
  N34      1.0000 0.18684  0.52070  0.64810  Biso   1.000  N
  N35      1.0000 0.26023  0.46870  0.68960  Biso   1.000  N
  N36      1.0000 0.37620  0.44967  0.60300  Biso   1.000  N
  H35      1.0000 0.40030  0.40930  0.66190  Biso   1.000  H
  H36      1.0000 0.39920  0.46580  0.54380  Biso   1.000  H
  O11      1.0000 0.86491  0.80625  0.92520  Biso   1.000  O
  O12      1.0000 0.95381  0.91627  0.99510  Biso   1.000  O
  Zn6      1.0000 0.27257  0.60838  0.35025  Biso   1.000  Zn
  C43      1.0000 0.57960  0.84720  0.66630  Biso   1.000  C
  H37      1.0000 0.57150  0.90370  0.66350  Biso   1.000  H
  C44      1.0000 0.50690  0.79872  0.58390  Biso   1.000  C
  H38      1.0000 0.45060  0.82200  0.52730  Biso   1.000  H
  C45      1.0000 0.51880  0.71420  0.58620  Biso   1.000  C
  C46      1.0000 0.60300  0.68190  0.67510  Biso   1.000  C
  H39      1.0000 0.61240  0.62550  0.68000  Biso   1.000  H
  C47      1.0000 0.67260  0.73420  0.75590  Biso   1.000  C
  H40      1.0000 0.72890  0.71210  0.81600  Biso   1.000  H
  C48      1.0000 0.44150  0.65810  0.49610  Biso   1.000  C
  C49      1.0000 0.80250  0.01245  0.10350  Biso   1.000  C
  N37      1.0000 0.66224  0.81637  0.75120  Biso   1.000  N
  N38      1.0000 0.75774  0.95114  0.01210  Biso   1.000  N
  N39      1.0000 0.68574  0.93238  0.04450  Biso   1.000  N
  N40      1.0000 0.68684  0.97930  0.14810  Biso   1.000  N
  N41      1.0000 0.76023  0.03130  0.18960  Biso   1.000  N
  N42      1.0000 0.87620  0.05033  0.10300  Biso   1.000  N
  H41      1.0000 0.90030  0.09070  0.16190  Biso   1.000  H
  H42      1.0000 0.89920  0.03420  0.04380  Biso   1.000  H
  O13      1.0000 0.36491  0.69375  0.42520  Biso   1.000  O
  O14      1.0000 0.45381  0.58373  0.49510  Biso   1.000  O
  Zn7      1.0000 0.77257  0.89162  0.85025  Biso   1.000  Zn
  C50      1.0000 0.07960  0.34720  0.66630  Biso   1.000  C
  H43      1.0000 0.07150  0.40370  0.66350  Biso   1.000  H
  C51      1.0000 0.00690  0.29872  0.58390  Biso   1.000  C
  H44      1.0000 0.95060  0.32200  0.52730  Biso   1.000  H
  C52      1.0000 0.01880  0.21420  0.58620  Biso   1.000  C
  C53      1.0000 0.10300  0.18190  0.67510  Biso   1.000  C
  H45      1.0000 0.11240  0.12550  0.68000  Biso   1.000  H
  C54      1.0000 0.17260  0.23420  0.75590  Biso   1.000  C
  H46      1.0000 0.22890  0.21210  0.81600  Biso   1.000  H
  C55      1.0000 0.94150  0.15810  0.49610  Biso   1.000  C
  C56      1.0000 0.30250  0.51245  0.10350  Biso   1.000  C
  N43      1.0000 0.16224  0.31637  0.75120  Biso   1.000  N
  N44      1.0000 0.25774  0.45114  0.01210  Biso   1.000  N
  N45      1.0000 0.18574  0.43238  0.04450  Biso   1.000  N
  N46      1.0000 0.18684  0.47930  0.14810  Biso   1.000  N
  N47      1.0000 0.26023  0.53130  0.18960  Biso   1.000  N
  N48      1.0000 0.37620  0.55033  0.10300  Biso   1.000  N
  H47      1.0000 0.40030  0.59070  0.16190  Biso   1.000  H
  H48      1.0000 0.39920  0.53420  0.04380  Biso   1.000  H
  O15      1.0000 0.86491  0.19375  0.42520  Biso   1.000  O
  O16      1.0000 0.95381  0.08373  0.49510  Biso   1.000  O
  Zn8      1.0000 0.27257  0.39162  0.85025  Biso   1.000  Zn
