data_image0
_cell_length_a       14.2941
_cell_length_b       14.2941
_cell_length_c       14.2941
_cell_angle_alpha    90
_cell_angle_beta     90
_cell_angle_gamma    90

_symmetry_space_group_name_H-M    "P 1"
_symmetry_int_tables_number       1

loop_
  _symmetry_equiv_pos_as_xyz
  'x, y, z'

loop_
  _atom_site_label
  _atom_site_occupancy
  _atom_site_fract_x
  _atom_site_fract_y
  _atom_site_fract_z
  _atom_site_thermal_displace_type
  _atom_site_B_iso_or_equiv
  _atom_site_type_symbol
  C1       1.0000 0.34860  0.89440  0.51650  Biso   1.000  C
  C2       1.0000 0.42550  0.83280  0.53170  Biso   1.000  C
  H1       1.0000 0.43590  0.78260  0.49170  Biso   1.000  H
  C3       1.0000 0.27920  0.87640  0.43910  Biso   1.000  C
  O1       1.0000 0.29900  0.80710  0.38550  Biso   1.000  O
  O2       1.0000 0.21780  0.93260  0.42540  Biso   1.000  O
  C4       1.0000 0.15140  0.10560  0.01650  Biso   1.000  C
  C5       1.0000 0.07450  0.16720  0.03170  Biso   1.000  C
  H2       1.0000 0.06410  0.21740  0.99170  Biso   1.000  H
  C6       1.0000 0.22080  0.12360  0.93910  Biso   1.000  C
  O3       1.0000 0.20100  0.19290  0.88550  Biso   1.000  O
  O4       1.0000 0.28220  0.06740  0.92540  Biso   1.000  O
  C7       1.0000 0.65140  0.39440  0.98350  Biso   1.000  C
  C8       1.0000 0.57450  0.33280  0.96830  Biso   1.000  C
  H3       1.0000 0.56410  0.28260  0.00830  Biso   1.000  H
  C9       1.0000 0.72080  0.37640  0.06090  Biso   1.000  C
  O5       1.0000 0.70100  0.30710  0.11450  Biso   1.000  O
  O6       1.0000 0.78220  0.43260  0.07460  Biso   1.000  O
  C10      1.0000 0.84860  0.60560  0.48350  Biso   1.000  C
  C11      1.0000 0.92550  0.66720  0.46830  Biso   1.000  C
  H4       1.0000 0.93590  0.71740  0.50830  Biso   1.000  H
  C12      1.0000 0.77920  0.62360  0.56090  Biso   1.000  C
  O7       1.0000 0.79900  0.69290  0.61450  Biso   1.000  O
  O8       1.0000 0.71780  0.56740  0.57460  Biso   1.000  O
  C13      1.0000 0.51650  0.34860  0.89440  Biso   1.000  C
  C14      1.0000 0.53170  0.42550  0.83280  Biso   1.000  C
  H5       1.0000 0.49170  0.43590  0.78260  Biso   1.000  H
  C15      1.0000 0.43910  0.27920  0.87640  Biso   1.000  C
  O9       1.0000 0.38550  0.29900  0.80710  Biso   1.000  O
  O10      1.0000 0.42540  0.21780  0.93260  Biso   1.000  O
  C16      1.0000 0.01650  0.15140  0.10560  Biso   1.000  C
  C17      1.0000 0.03170  0.07450  0.16720  Biso   1.000  C
  H6       1.0000 0.99170  0.06410  0.21740  Biso   1.000  H
  C18      1.0000 0.93910  0.22080  0.12360  Biso   1.000  C
  O11      1.0000 0.88550  0.20100  0.19290  Biso   1.000  O
  O12      1.0000 0.92540  0.28220  0.06740  Biso   1.000  O
  C19      1.0000 0.98350  0.65140  0.39440  Biso   1.000  C
  C20      1.0000 0.96830  0.57450  0.33280  Biso   1.000  C
  H7       1.0000 0.00830  0.56410  0.28260  Biso   1.000  H
  C21      1.0000 0.06090  0.72080  0.37640  Biso   1.000  C
  O13      1.0000 0.11450  0.70100  0.30710  Biso   1.000  O
  O14      1.0000 0.07460  0.78220  0.43260  Biso   1.000  O
  C22      1.0000 0.48350  0.84860  0.60560  Biso   1.000  C
  C23      1.0000 0.46830  0.92550  0.66720  Biso   1.000  C
  H8       1.0000 0.50830  0.93590  0.71740  Biso   1.000  H
  C24      1.0000 0.56090  0.77920  0.62360  Biso   1.000  C
  O15      1.0000 0.61450  0.79900  0.69290  Biso   1.000  O
  O16      1.0000 0.57460  0.71780  0.56740  Biso   1.000  O
  C25      1.0000 0.89440  0.51650  0.34860  Biso   1.000  C
  C26      1.0000 0.83280  0.53170  0.42550  Biso   1.000  C
  H9       1.0000 0.78260  0.49170  0.43590  Biso   1.000  H
  C27      1.0000 0.87640  0.43910  0.27920  Biso   1.000  C
  O17      1.0000 0.80710  0.38550  0.29900  Biso   1.000  O
  O18      1.0000 0.93260  0.42540  0.21780  Biso   1.000  O
  C28      1.0000 0.10560  0.01650  0.15140  Biso   1.000  C
  C29      1.0000 0.16720  0.03170  0.07450  Biso   1.000  C
  H10      1.0000 0.21740  0.99170  0.06410  Biso   1.000  H
  C30      1.0000 0.12360  0.93910  0.22080  Biso   1.000  C
  O19      1.0000 0.19290  0.88550  0.20100  Biso   1.000  O
  O20      1.0000 0.06740  0.92540  0.28220  Biso   1.000  O
  C31      1.0000 0.39440  0.98350  0.65140  Biso   1.000  C
  C32      1.0000 0.33280  0.96830  0.57450  Biso   1.000  C
  H11      1.0000 0.28260  0.00830  0.56410  Biso   1.000  H
  C33      1.0000 0.37640  0.06090  0.72080  Biso   1.000  C
  O21      1.0000 0.30710  0.11450  0.70100  Biso   1.000  O
  O22      1.0000 0.43260  0.07460  0.78220  Biso   1.000  O
  C34      1.0000 0.60560  0.48350  0.84860  Biso   1.000  C
  C35      1.0000 0.66720  0.46830  0.92550  Biso   1.000  C
  H12      1.0000 0.71740  0.50830  0.93590  Biso   1.000  H
  C36      1.0000 0.62360  0.56090  0.77920  Biso   1.000  C
  O23      1.0000 0.69290  0.61450  0.79900  Biso   1.000  O
  O24      1.0000 0.56740  0.57460  0.71780  Biso   1.000  O
  Zn1      1.0000 0.22027  0.77973  0.27973  Biso   1.000  Zn
  Zn2      1.0000 0.07348  0.92652  0.42652  Biso   1.000  Zn
  Zn3      1.0000 0.27973  0.22027  0.77973  Biso   1.000  Zn
  Zn4      1.0000 0.42652  0.07348  0.92652  Biso   1.000  Zn
  Zn5      1.0000 0.77973  0.27973  0.22027  Biso   1.000  Zn
  Zn6      1.0000 0.92652  0.42652  0.07348  Biso   1.000  Zn
  Zn7      1.0000 0.72027  0.72027  0.72027  Biso   1.000  Zn
  Zn8      1.0000 0.57348  0.57348  0.57348  Biso   1.000  Zn
