data_GIRYIR_clean
_audit_creation_date              2015-10-16
_audit_creation_method            'Materials Studio'
_symmetry_space_group_name_H-M    'P1'
_symmetry_Int_Tables_number       1
_symmetry_cell_setting            triclinic
loop_
_symmetry_equiv_pos_as_xyz
  x,y,z
_cell_length_a                    13.4867
_cell_length_b                    13.7057
_cell_length_c                    14.7949
_cell_angle_alpha                 108.1490
_cell_angle_beta                  107.5560
_cell_angle_gamma                 109.4400
loop_
_atom_site_label
_atom_site_type_symbol
_atom_site_fract_x
_atom_site_fract_y
_atom_site_fract_z
_atom_site_U_iso_or_equiv
_atom_site_adp_type
_atom_site_occupancy
Zn1    Zn    0.96197   0.73655   0.10282   0.01267  Uiso   1.00
Zn2    Zn    0.35915   0.63373   0.89718   0.01267  Uiso   1.00
Zn3    Zn    0.03803   0.26345   0.89718   0.01267  Uiso   1.00
Zn4    Zn    0.50000   0.50000   0.00000   0.01267  Uiso   1.00
Zn5    Zn    0.00000   0.50000  -0.00000   0.01267  Uiso   1.00
Zn6    Zn    0.64085   0.36627   0.10282   0.01267  Uiso   1.00
H1     H     0.57780   0.96300   0.18500   0.01267  Uiso   1.00
H2     H     0.26940   0.50890   0.51420   0.01267  Uiso   1.00
H3     H     0.92270   0.14110   0.65800   0.01267  Uiso   1.00
H4     H     0.39860   0.33540   0.60300   0.01267  Uiso   1.00
H5     H     0.92930   0.37480   0.37100   0.01267  Uiso   1.00
H6     H     0.89280   0.77800   0.81500   0.01267  Uiso   1.00
H7     H     0.52240   0.14490   0.47340   0.01267  Uiso   1.00
H8     H     0.69750   0.58450   0.94040   0.01267  Uiso   1.00
H9     H     0.90910   0.56630   0.12220   0.01267  Uiso   1.00
H10    H     0.74480   0.00530   0.51420   0.01267  Uiso   1.00
H11    H     0.39470   0.25650   0.28360   0.01267  Uiso   1.00
H12    H     0.07730   0.85890   0.34200   0.01267  Uiso   1.00
H13    H     0.56150   0.74930   0.85480   0.01267  Uiso   1.00
H14    H     0.29560   0.73240   0.39700   0.01267  Uiso   1.00
H15    H     0.43850   0.25070   0.14520   0.01267  Uiso   1.00
H16    H     0.28690   0.44410   0.87780   0.01267  Uiso   1.00
H17    H     0.56240   0.22500   0.79940   0.01267  Uiso   1.00
H18    H     0.56670   0.88680   0.38940   0.01267  Uiso   1.00
H19    H     0.79330   0.10550   0.85480   0.01267  Uiso   1.00
H20    H     0.73060   0.49110   0.48580   0.01267  Uiso   1.00
H21    H     0.11910   0.60600   0.25100   0.01267  Uiso   1.00
H22    H     0.61110   0.97290   0.71640   0.01267  Uiso   1.00
H23    H     0.47760   0.85510   0.52660   0.01267  Uiso   1.00
H24    H     0.38890   0.02710   0.28360   0.01267  Uiso   1.00
H25    H     0.89320   0.14100   0.44180   0.01267  Uiso   1.00
H26    H     0.30250   0.41550   0.05960   0.01267  Uiso   1.00
H27    H     0.05830   0.00380   0.62900   0.01267  Uiso   1.00
H28    H     0.60140   0.66460   0.39700   0.01267  Uiso   1.00
H29    H     0.10680   0.85900   0.55820   0.01267  Uiso   1.00
H30    H     0.43760   0.77500   0.20060   0.01267  Uiso   1.00
H31    H     0.10720   0.22200   0.18500   0.01267  Uiso   1.00
H32    H     0.09090   0.43370   0.87780   0.01267  Uiso   1.00
H33    H     0.42220   0.03700   0.81500   0.01267  Uiso   1.00
H34    H     0.60530   0.74350   0.71640   0.01267  Uiso   1.00
H35    H     0.95140   0.69920   0.55820   0.01267  Uiso   1.00
H36    H     0.67730   0.49740   0.61060   0.01267  Uiso   1.00
H37    H     0.94170   0.99620   0.37100   0.01267  Uiso   1.00
H38    H     0.07070   0.62520   0.62900   0.01267  Uiso   1.00
H39    H     0.54900   0.67150   0.52660   0.01267  Uiso   1.00
H40    H     0.04860   0.30080   0.44180   0.01267  Uiso   1.00
H41    H     0.73700   0.57440   0.79940   0.01267  Uiso   1.00
H42    H     0.36810   0.35500   0.74900   0.01267  Uiso   1.00
H43    H     0.20670   0.89450   0.14520   0.01267  Uiso   1.00
H44    H     0.25710   0.64410   0.05960   0.01267  Uiso   1.00
H45    H     0.32270   0.50260   0.38940   0.01267  Uiso   1.00
H46    H     0.23530   0.51690   0.65800   0.01267  Uiso   1.00
H47    H     0.74290   0.35590   0.94040   0.01267  Uiso   1.00
H48    H     0.70440   0.26760   0.60300   0.01267  Uiso   1.00
H49    H     0.63190   0.64500   0.25100   0.01267  Uiso   1.00
H50    H     0.25520   0.99470   0.48580   0.01267  Uiso   1.00
H51    H     0.76470   0.48310   0.34200   0.01267  Uiso   1.00
H52    H     0.45100   0.32850   0.47340   0.01267  Uiso   1.00
H53    H     0.88090   0.39400   0.74900   0.01267  Uiso   1.00
H54    H     0.71310   0.55590   0.12220   0.01267  Uiso   1.00
H55    H     0.43330   0.11320   0.61060   0.01267  Uiso   1.00
H56    H     0.26300   0.42560   0.20060   0.01267  Uiso   1.00
C1     C     0.50190   0.69920   0.78540   0.01267  Uiso   1.00
C2     C     0.91270   0.74420   0.68100   0.01267  Uiso   1.00
C3     C     0.68920   0.43640   0.33000   0.01267  Uiso   1.00
C4     C     0.37380   0.74130   0.21280   0.01267  Uiso   1.00
C5     C     0.33900   0.47150   0.21280   0.01267  Uiso   1.00
C6     C     0.47230   0.62110   0.50920   0.01267  Uiso   1.00
C7     C     0.52770   0.37890   0.49080   0.01267  Uiso   1.00
C8     C     0.46310   0.11190   0.49080   0.01267  Uiso   1.00
C9     C     0.66100   0.52850   0.78720   0.01267  Uiso   1.00
C10    C     0.44360   0.62570   0.59840   0.01267  Uiso   1.00
C11    C     0.49280   0.14540   0.59340   0.01267  Uiso   1.00
C12    C     0.81550   0.36000   0.75900   0.01267  Uiso   1.00
C13    C     0.05460   0.65790   0.76500   0.01267  Uiso   1.00
C14    C     0.29000   0.71670   0.32920   0.01267  Uiso   1.00
C15    C     0.86330   0.38820   0.19380   0.01267  Uiso   1.00
C16    C     0.31080   0.56360   0.67000   0.01267  Uiso   1.00
C17    C     0.07180   0.25350   0.22200   0.01267  Uiso   1.00
C18    C     0.03610   0.30000   0.37620   0.01267  Uiso   1.00
C19    C     0.53690   0.88810   0.50920   0.01267  Uiso   1.00
C20    C     0.32180   0.11890   0.81940   0.01267  Uiso   1.00
C21    C     0.21650   0.91380   0.21460   0.01267  Uiso   1.00
C22    C     0.62620   0.25870   0.78720   0.01267  Uiso   1.00
C23    C     0.26830   0.93680   0.68100   0.01267  Uiso   1.00
C24    C     0.96460   0.34390   0.33320   0.01267  Uiso   1.00
C25    C     0.36310   0.46570   0.12820   0.01267  Uiso   1.00
C26    C     0.66940   0.44230   0.41720   0.01267  Uiso   1.00
C27    C     0.15990   0.92380   0.62380   0.01267  Uiso   1.00
C28    C     0.60060   0.44800   0.59340   0.01267  Uiso   1.00
C29    C     0.00240   0.29950   0.18060   0.01267  Uiso   1.00
C30    C     0.26510   0.66250   0.12820   0.01267  Uiso   1.00
C31    C     0.50720   0.85460   0.40660   0.01267  Uiso   1.00
C32    C     0.53920   0.61250   0.32920   0.01267  Uiso   1.00
C33    C     0.96390   0.70000   0.62380   0.01267  Uiso   1.00
C34    C     0.61060   0.22850   0.68260   0.01267  Uiso   1.00
C35    C     0.49810   0.30080   0.21460   0.01267  Uiso   1.00
C36    C     0.44350   0.39900   0.75900   0.01267  Uiso   1.00
C37    C     0.08730   0.25580   0.31900   0.01267  Uiso   1.00
C38    C     0.39940   0.55200   0.40660   0.01267  Uiso   1.00
C39    C     0.32660   0.99450   0.29780   0.01267  Uiso   1.00
C40    C     0.63690   0.53430   0.87180   0.01267  Uiso   1.00
C41    C     0.94540   0.34210   0.23500   0.01267  Uiso   1.00
C42    C     0.67820   0.88110   0.18060   0.01267  Uiso   1.00
C43    C     0.84010   0.07620   0.37620   0.01267  Uiso   1.00
C44    C     0.21040   0.10710   0.76500   0.01267  Uiso   1.00
C45    C     0.67340   0.00550   0.70220   0.01267  Uiso   1.00
C46    C     0.92820   0.74650   0.77800   0.01267  Uiso   1.00
C47    C     0.55650   0.60100   0.24100   0.01267  Uiso   1.00
C48    C     0.46080   0.38750   0.67080   0.01267  Uiso   1.00
C49    C     0.78350   0.08620   0.78540   0.01267  Uiso   1.00
C50    C     0.24780   0.97490   0.41720   0.01267  Uiso   1.00
C51    C     0.99300   0.30650   0.07840   0.01267  Uiso   1.00
C52    C     0.73170   0.06320   0.31900   0.01267  Uiso   1.00
C53    C     0.99760   0.70050   0.81940   0.01267  Uiso   1.00
C54    C     0.57200   0.45410   0.68260   0.01267  Uiso   1.00
C55    C     0.83050   0.80560   0.19380   0.01267  Uiso   1.00
C56    C     0.65020   0.96850   0.22200   0.01267  Uiso   1.00
C57    C     0.73490   0.33750   0.87180   0.01267  Uiso   1.00
C58    C     0.34980   0.03150   0.77800   0.01267  Uiso   1.00
C59    C     0.38940   0.77150   0.31740   0.01267  Uiso   1.00
C60    C     0.86860   0.98930   0.33320   0.01267  Uiso   1.00
C61    C     0.52880   0.69670   0.70220   0.01267  Uiso   1.00
C62    C     0.85920   0.10640   0.67000   0.01267  Uiso   1.00
C63    C     0.13140   0.01070   0.66680   0.01267  Uiso   1.00
C64    C     0.34520   0.02730   0.40160   0.01267  Uiso   1.00
C65    C     0.16950   0.19440   0.80620   0.01267  Uiso   1.00
C66    C     0.71000   0.28330   0.67080   0.01267  Uiso   1.00
C67    C     0.33060   0.55770   0.58280   0.01267  Uiso   1.00
C68    C     0.18450   0.64000   0.24100   0.01267  Uiso   1.00
C69    C     0.41460   0.22810   0.92160   0.01267  Uiso   1.00
C70    C     0.78960   0.89290   0.23500   0.01267  Uiso   1.00
C71    C     0.42800   0.54590   0.31740   0.01267  Uiso   1.00
C72    C     0.00700   0.69350   0.92160   0.01267  Uiso   1.00
C73    C     0.13670   0.61180   0.80620   0.01267  Uiso   1.00
C74    C     0.14080   0.89360   0.33000   0.01267  Uiso   1.00
C75    C     0.58540   0.77190   0.07840   0.01267  Uiso   1.00
C76    C     0.03540   0.65610   0.66680   0.01267  Uiso   1.00
C77    C     0.47120   0.30330   0.29780   0.01267  Uiso   1.00
C78    C     0.75220   0.02510   0.58280   0.01267  Uiso   1.00
C79    C     0.55640   0.37430   0.40160   0.01267  Uiso   1.00
C80    C     0.65480   0.97270   0.59840   0.01267  Uiso   1.00
N1     N     0.70150   0.15380   0.36540   0.01267  Uiso   1.00
N2     N     0.87661   0.13811   0.77162   0.01267  Uiso   1.00
N3     N     0.39501   0.63351   0.77162   0.01267  Uiso   1.00
N4     N     0.52936   0.47026   0.85952   0.01267  Uiso   1.00
N5     N     0.83016   0.38926   0.85952   0.01267  Uiso   1.00
N6     N     0.16984   0.61074   0.14048   0.01267  Uiso   1.00
N7     N     0.60499   0.36649   0.22838   0.01267  Uiso   1.00
N8     N     0.29850   0.84620   0.63460   0.01267  Uiso   1.00
N9     N     0.47064   0.52974   0.14048   0.01267  Uiso   1.00
N10    N     0.12339   0.86189   0.22838   0.01267  Uiso   1.00
N11    N     0.83610   0.78840   0.63460   0.01267  Uiso   1.00
N12    N     0.16390   0.21160   0.36540   0.01267  Uiso   1.00
O1     O     0.82940   0.79520   0.55360   0.01267  Uiso   1.00
O2     O     0.10444   0.50724   0.76468   0.01267  Uiso   1.00
O3     O     0.13821   0.18841   0.87862   0.01267  Uiso   1.00
O4     O     0.60260   0.13730   0.32100   0.01267  Uiso   1.00
O5     O     0.17060   0.20480   0.44640   0.01267  Uiso   1.00
O6     O     0.39740   0.86270   0.67900   0.01267  Uiso   1.00
O7     O     0.78160   0.81630   0.67900   0.01267  Uiso   1.00
O8     O     0.02983   0.24913   0.02426   0.01267  Uiso   1.00
O9     O     0.77580   0.24160   0.44640   0.01267  Uiso   1.00
O10    O     0.95357   0.37037   0.05714   0.01267  Uiso   1.00
O11    O     0.89556   0.49276   0.23532   0.01267  Uiso   1.00
O12    O     0.49443   0.77513   0.02426   0.01267  Uiso   1.00
O13    O     0.16024   0.25744   0.76468   0.01267  Uiso   1.00
O14    O     0.22420   0.75840   0.55360   0.01267  Uiso   1.00
O15    O     0.97017   0.75087   0.97574   0.01267  Uiso   1.00
O16    O     0.75959   0.30979   0.12138   0.01267  Uiso   1.00
O17    O     0.65041   0.49351   0.07562   0.01267  Uiso   1.00
O18    O     0.34959   0.50649   0.92438   0.01267  Uiso   1.00
O19    O     0.39643   0.31323   0.94286   0.01267  Uiso   1.00
O20    O     0.04643   0.62963   0.94286   0.01267  Uiso   1.00
O21    O     0.24041   0.69021   0.87862   0.01267  Uiso   1.00
O22    O     0.60357   0.68677   0.05714   0.01267  Uiso   1.00
O23    O     0.21840   0.18370   0.32100   0.01267  Uiso   1.00
O24    O     0.50557   0.22487   0.97574   0.01267  Uiso   1.00
O25    O     0.83976   0.74256   0.23532   0.01267  Uiso   1.00
O26    O     0.86179   0.81159   0.12138   0.01267  Uiso   1.00
O27    O     0.92521   0.58211   0.07562   0.01267  Uiso   1.00
O28    O     0.07479   0.41789   0.92438   0.01267  Uiso   1.00
