data_image0
_cell_length_a       20.4666
_cell_length_b       20.4666
_cell_length_c       20.4666
_cell_angle_alpha    90
_cell_angle_beta     90
_cell_angle_gamma    90

_symmetry_space_group_name_H-M    "P 1"
_symmetry_int_tables_number       1

loop_
  _symmetry_equiv_pos_as_xyz
  'x, y, z'

loop_
  _atom_site_label
  _atom_site_occupancy
  _atom_site_fract_x
  _atom_site_fract_y
  _atom_site_fract_z
  _atom_site_thermal_displace_type
  _atom_site_B_iso_or_equiv
  _atom_site_type_symbol
  C1       1.0000 0.37730  0.76150  0.76150  Biso   1.000  C
  C2       1.0000 0.44070  0.83560  0.83560  Biso   1.000  C
  H1       1.0000 0.40010  0.85150  0.85150  Biso   1.000  H
  C3       1.0000 0.44180  0.78780  0.78780  Biso   1.000  C
  O1       1.0000 0.32750  0.78260  0.78260  Biso   1.000  O
  O2       1.0000 0.38590  0.71790  0.71790  Biso   1.000  O
  O3       1.0000 0.44450  0.93163  0.93163  Biso   1.000  O
  C4       1.0000 0.62270  0.23850  0.76150  Biso   1.000  C
  C5       1.0000 0.55930  0.16440  0.83560  Biso   1.000  C
  H2       1.0000 0.59990  0.14850  0.85150  Biso   1.000  H
  C6       1.0000 0.55820  0.21220  0.78780  Biso   1.000  C
  O4       1.0000 0.67250  0.21740  0.78260  Biso   1.000  O
  O5       1.0000 0.61410  0.28210  0.71790  Biso   1.000  O
  O6       1.0000 0.55550  0.06837  0.93163  Biso   1.000  O
  C7       1.0000 0.62270  0.76150  0.23850  Biso   1.000  C
  C8       1.0000 0.55930  0.83560  0.16440  Biso   1.000  C
  H3       1.0000 0.59990  0.85150  0.14850  Biso   1.000  H
  C9       1.0000 0.55820  0.78780  0.21220  Biso   1.000  C
  O7       1.0000 0.67250  0.78260  0.21740  Biso   1.000  O
  O8       1.0000 0.61410  0.71790  0.28210  Biso   1.000  O
  O9       1.0000 0.55550  0.93163  0.06837  Biso   1.000  O
  C10      1.0000 0.37730  0.23850  0.23850  Biso   1.000  C
  C11      1.0000 0.44070  0.16440  0.16440  Biso   1.000  C
  H4       1.0000 0.40010  0.14850  0.14850  Biso   1.000  H
  C12      1.0000 0.44180  0.21220  0.21220  Biso   1.000  C
  O10      1.0000 0.32750  0.21740  0.21740  Biso   1.000  O
  O11      1.0000 0.38590  0.28210  0.28210  Biso   1.000  O
  O12      1.0000 0.44450  0.06837  0.06837  Biso   1.000  O
  C13      1.0000 0.76150  0.37730  0.76150  Biso   1.000  C
  C14      1.0000 0.83560  0.44070  0.83560  Biso   1.000  C
  H5       1.0000 0.85150  0.40010  0.85150  Biso   1.000  H
  C15      1.0000 0.78780  0.44180  0.78780  Biso   1.000  C
  O13      1.0000 0.78260  0.32750  0.78260  Biso   1.000  O
  O14      1.0000 0.71790  0.38590  0.71790  Biso   1.000  O
  O15      1.0000 0.93163  0.44450  0.93163  Biso   1.000  O
  C16      1.0000 0.76150  0.62270  0.23850  Biso   1.000  C
  C17      1.0000 0.83560  0.55930  0.16440  Biso   1.000  C
  H6       1.0000 0.85150  0.59990  0.14850  Biso   1.000  H
  C18      1.0000 0.78780  0.55820  0.21220  Biso   1.000  C
  O16      1.0000 0.78260  0.67250  0.21740  Biso   1.000  O
  O17      1.0000 0.71790  0.61410  0.28210  Biso   1.000  O
  O18      1.0000 0.93163  0.55550  0.06837  Biso   1.000  O
  C19      1.0000 0.23850  0.62270  0.76150  Biso   1.000  C
  C20      1.0000 0.16440  0.55930  0.83560  Biso   1.000  C
  H7       1.0000 0.14850  0.59990  0.85150  Biso   1.000  H
  C21      1.0000 0.21220  0.55820  0.78780  Biso   1.000  C
  O19      1.0000 0.21740  0.67250  0.78260  Biso   1.000  O
  O20      1.0000 0.28210  0.61410  0.71790  Biso   1.000  O
  O21      1.0000 0.06837  0.55550  0.93163  Biso   1.000  O
  C22      1.0000 0.23850  0.37730  0.23850  Biso   1.000  C
  C23      1.0000 0.16440  0.44070  0.16440  Biso   1.000  C
  H8       1.0000 0.14850  0.40010  0.14850  Biso   1.000  H
  C24      1.0000 0.21220  0.44180  0.21220  Biso   1.000  C
  O22      1.0000 0.21740  0.32750  0.21740  Biso   1.000  O
  O23      1.0000 0.28210  0.38590  0.28210  Biso   1.000  O
  O24      1.0000 0.06837  0.44450  0.06837  Biso   1.000  O
  C25      1.0000 0.76150  0.76150  0.37730  Biso   1.000  C
  C26      1.0000 0.83560  0.83560  0.44070  Biso   1.000  C
  H9       1.0000 0.85150  0.85150  0.40010  Biso   1.000  H
  C27      1.0000 0.78780  0.78780  0.44180  Biso   1.000  C
  O25      1.0000 0.78260  0.78260  0.32750  Biso   1.000  O
  O26      1.0000 0.71790  0.71790  0.38590  Biso   1.000  O
  O27      1.0000 0.93163  0.93163  0.44450  Biso   1.000  O
  C28      1.0000 0.23850  0.76150  0.62270  Biso   1.000  C
  C29      1.0000 0.16440  0.83560  0.55930  Biso   1.000  C
  H10      1.0000 0.14850  0.85150  0.59990  Biso   1.000  H
  C30      1.0000 0.21220  0.78780  0.55820  Biso   1.000  C
  O28      1.0000 0.21740  0.78260  0.67250  Biso   1.000  O
  O29      1.0000 0.28210  0.71790  0.61410  Biso   1.000  O
  O30      1.0000 0.06837  0.93163  0.55550  Biso   1.000  O
  C31      1.0000 0.76150  0.23850  0.62270  Biso   1.000  C
  C32      1.0000 0.83560  0.16440  0.55930  Biso   1.000  C
  H11      1.0000 0.85150  0.14850  0.59990  Biso   1.000  H
  C33      1.0000 0.78780  0.21220  0.55820  Biso   1.000  C
  O31      1.0000 0.78260  0.21740  0.67250  Biso   1.000  O
  O32      1.0000 0.71790  0.28210  0.61410  Biso   1.000  O
  O33      1.0000 0.93163  0.06837  0.55550  Biso   1.000  O
  C34      1.0000 0.23850  0.23850  0.37730  Biso   1.000  C
  C35      1.0000 0.16440  0.16440  0.44070  Biso   1.000  C
  H12      1.0000 0.14850  0.14850  0.40010  Biso   1.000  H
  C36      1.0000 0.21220  0.21220  0.44180  Biso   1.000  C
  O34      1.0000 0.21740  0.21740  0.32750  Biso   1.000  O
  O35      1.0000 0.28210  0.28210  0.38590  Biso   1.000  O
  O36      1.0000 0.06837  0.06837  0.44450  Biso   1.000  O
  C37      1.0000 0.76150  0.37730  0.23850  Biso   1.000  C
  C38      1.0000 0.83560  0.44070  0.16440  Biso   1.000  C
  H13      1.0000 0.85150  0.40010  0.14850  Biso   1.000  H
  C39      1.0000 0.78780  0.44180  0.21220  Biso   1.000  C
  O37      1.0000 0.78260  0.32750  0.21740  Biso   1.000  O
  O38      1.0000 0.71790  0.38590  0.28210  Biso   1.000  O
  O39      1.0000 0.93163  0.44450  0.06837  Biso   1.000  O
  C40      1.0000 0.23850  0.62270  0.23850  Biso   1.000  C
  C41      1.0000 0.16440  0.55930  0.16440  Biso   1.000  C
  H14      1.0000 0.14850  0.59990  0.14850  Biso   1.000  H
  C42      1.0000 0.21220  0.55820  0.21220  Biso   1.000  C
  O40      1.0000 0.21740  0.67250  0.21740  Biso   1.000  O
  O41      1.0000 0.28210  0.61410  0.28210  Biso   1.000  O
  O42      1.0000 0.06837  0.55550  0.06837  Biso   1.000  O
  C43      1.0000 0.76150  0.62270  0.76150  Biso   1.000  C
  C44      1.0000 0.83560  0.55930  0.83560  Biso   1.000  C
  H15      1.0000 0.85150  0.59990  0.85150  Biso   1.000  H
  C45      1.0000 0.78780  0.55820  0.78780  Biso   1.000  C
  O43      1.0000 0.78260  0.67250  0.78260  Biso   1.000  O
  O44      1.0000 0.71790  0.61410  0.71790  Biso   1.000  O
  O45      1.0000 0.93163  0.55550  0.93163  Biso   1.000  O
  C46      1.0000 0.23850  0.37730  0.76150  Biso   1.000  C
  C47      1.0000 0.16440  0.44070  0.83560  Biso   1.000  C
  H16      1.0000 0.14850  0.40010  0.85150  Biso   1.000  H
  C48      1.0000 0.21220  0.44180  0.78780  Biso   1.000  C
  O46      1.0000 0.21740  0.32750  0.78260  Biso   1.000  O
  O47      1.0000 0.28210  0.38590  0.71790  Biso   1.000  O
  O48      1.0000 0.06837  0.44450  0.93163  Biso   1.000  O
  C49      1.0000 0.37730  0.76150  0.23850  Biso   1.000  C
  C50      1.0000 0.44070  0.83560  0.16440  Biso   1.000  C
  H17      1.0000 0.40010  0.85150  0.14850  Biso   1.000  H
  C51      1.0000 0.44180  0.78780  0.21220  Biso   1.000  C
  O49      1.0000 0.32750  0.78260  0.21740  Biso   1.000  O
  O50      1.0000 0.38590  0.71790  0.28210  Biso   1.000  O
  O51      1.0000 0.44450  0.93163  0.06837  Biso   1.000  O
  C52      1.0000 0.62270  0.76150  0.76150  Biso   1.000  C
  C53      1.0000 0.55930  0.83560  0.83560  Biso   1.000  C
  H18      1.0000 0.59990  0.85150  0.85150  Biso   1.000  H
  C54      1.0000 0.55820  0.78780  0.78780  Biso   1.000  C
  O52      1.0000 0.67250  0.78260  0.78260  Biso   1.000  O
  O53      1.0000 0.61410  0.71790  0.71790  Biso   1.000  O
  O54      1.0000 0.55550  0.93163  0.93163  Biso   1.000  O
  C55      1.0000 0.62270  0.23850  0.23850  Biso   1.000  C
  C56      1.0000 0.55930  0.16440  0.16440  Biso   1.000  C
  H19      1.0000 0.59990  0.14850  0.14850  Biso   1.000  H
  C57      1.0000 0.55820  0.21220  0.21220  Biso   1.000  C
  O55      1.0000 0.67250  0.21740  0.21740  Biso   1.000  O
  O56      1.0000 0.61410  0.28210  0.28210  Biso   1.000  O
  O57      1.0000 0.55550  0.06837  0.06837  Biso   1.000  O
  C58      1.0000 0.37730  0.23850  0.76150  Biso   1.000  C
  C59      1.0000 0.44070  0.16440  0.83560  Biso   1.000  C
  H20      1.0000 0.40010  0.14850  0.85150  Biso   1.000  H
  C60      1.0000 0.44180  0.21220  0.78780  Biso   1.000  C
  O58      1.0000 0.32750  0.21740  0.78260  Biso   1.000  O
  O59      1.0000 0.38590  0.28210  0.71790  Biso   1.000  O
  O60      1.0000 0.44450  0.06837  0.93163  Biso   1.000  O
  C61      1.0000 0.76150  0.76150  0.62270  Biso   1.000  C
  C62      1.0000 0.83560  0.83560  0.55930  Biso   1.000  C
  H21      1.0000 0.85150  0.85150  0.59990  Biso   1.000  H
  C63      1.0000 0.78780  0.78780  0.55820  Biso   1.000  C
  O61      1.0000 0.78260  0.78260  0.67250  Biso   1.000  O
  O62      1.0000 0.71790  0.71790  0.61410  Biso   1.000  O
  O63      1.0000 0.93163  0.93163  0.55550  Biso   1.000  O
  C64      1.0000 0.76150  0.23850  0.37730  Biso   1.000  C
  C65      1.0000 0.83560  0.16440  0.44070  Biso   1.000  C
  H22      1.0000 0.85150  0.14850  0.40010  Biso   1.000  H
  C66      1.0000 0.78780  0.21220  0.44180  Biso   1.000  C
  O64      1.0000 0.78260  0.21740  0.32750  Biso   1.000  O
  O65      1.0000 0.71790  0.28210  0.38590  Biso   1.000  O
  O66      1.0000 0.93163  0.06837  0.44450  Biso   1.000  O
  C67      1.0000 0.23850  0.76150  0.37730  Biso   1.000  C
  C68      1.0000 0.16440  0.83560  0.44070  Biso   1.000  C
  H23      1.0000 0.14850  0.85150  0.40010  Biso   1.000  H
  C69      1.0000 0.21220  0.78780  0.44180  Biso   1.000  C
  O67      1.0000 0.21740  0.78260  0.32750  Biso   1.000  O
  O68      1.0000 0.28210  0.71790  0.38590  Biso   1.000  O
  O69      1.0000 0.06837  0.93163  0.44450  Biso   1.000  O
  C70      1.0000 0.23850  0.23850  0.62270  Biso   1.000  C
  C71      1.0000 0.16440  0.16440  0.55930  Biso   1.000  C
  H24      1.0000 0.14850  0.14850  0.59990  Biso   1.000  H
  C72      1.0000 0.21220  0.21220  0.55820  Biso   1.000  C
  O70      1.0000 0.21740  0.21740  0.67250  Biso   1.000  O
  O71      1.0000 0.28210  0.28210  0.61410  Biso   1.000  O
  O72      1.0000 0.06837  0.06837  0.55550  Biso   1.000  O
  C73      1.0000 0.50000  0.91170  0.91170  Biso   1.000  C
  C74      1.0000 0.50000  0.86080  0.86080  Biso   1.000  C
  C75      1.0000 0.50000  0.76510  0.76510  Biso   1.000  C
  H25      1.0000 0.50000  0.73230  0.73230  Biso   1.000  H
  C76      1.0000 0.50000  0.08830  0.91170  Biso   1.000  C
  C77      1.0000 0.50000  0.13920  0.86080  Biso   1.000  C
  C78      1.0000 0.50000  0.23490  0.76510  Biso   1.000  C
  H26      1.0000 0.50000  0.26770  0.73230  Biso   1.000  H
  C79      1.0000 0.50000  0.91170  0.08830  Biso   1.000  C
  C80      1.0000 0.50000  0.86080  0.13920  Biso   1.000  C
  C81      1.0000 0.50000  0.76510  0.23490  Biso   1.000  C
  H27      1.0000 0.50000  0.73230  0.26770  Biso   1.000  H
  C82      1.0000 0.50000  0.08830  0.08830  Biso   1.000  C
  C83      1.0000 0.50000  0.13920  0.13920  Biso   1.000  C
  C84      1.0000 0.50000  0.23490  0.23490  Biso   1.000  C
  H28      1.0000 0.50000  0.26770  0.26770  Biso   1.000  H
  C85      1.0000 0.91170  0.50000  0.91170  Biso   1.000  C
  C86      1.0000 0.86080  0.50000  0.86080  Biso   1.000  C
  C87      1.0000 0.76510  0.50000  0.76510  Biso   1.000  C
  H29      1.0000 0.73230  0.50000  0.73230  Biso   1.000  H
  C88      1.0000 0.91170  0.50000  0.08830  Biso   1.000  C
  C89      1.0000 0.86080  0.50000  0.13920  Biso   1.000  C
  C90      1.0000 0.76510  0.50000  0.23490  Biso   1.000  C
  H30      1.0000 0.73230  0.50000  0.26770  Biso   1.000  H
  C91      1.0000 0.08830  0.50000  0.91170  Biso   1.000  C
  C92      1.0000 0.13920  0.50000  0.86080  Biso   1.000  C
  C93      1.0000 0.23490  0.50000  0.76510  Biso   1.000  C
  H31      1.0000 0.26770  0.50000  0.73230  Biso   1.000  H
  C94      1.0000 0.08830  0.50000  0.08830  Biso   1.000  C
  C95      1.0000 0.13920  0.50000  0.13920  Biso   1.000  C
  C96      1.0000 0.23490  0.50000  0.23490  Biso   1.000  C
  H32      1.0000 0.26770  0.50000  0.26770  Biso   1.000  H
  C97      1.0000 0.91170  0.91170  0.50000  Biso   1.000  C
  C98      1.0000 0.86080  0.86080  0.50000  Biso   1.000  C
  C99      1.0000 0.76510  0.76510  0.50000  Biso   1.000  C
  H33      1.0000 0.73230  0.73230  0.50000  Biso   1.000  H
  C100     1.0000 0.08830  0.91170  0.50000  Biso   1.000  C
  C101     1.0000 0.13920  0.86080  0.50000  Biso   1.000  C
  C102     1.0000 0.23490  0.76510  0.50000  Biso   1.000  C
  H34      1.0000 0.26770  0.73230  0.50000  Biso   1.000  H
  C103     1.0000 0.91170  0.08830  0.50000  Biso   1.000  C
  C104     1.0000 0.86080  0.13920  0.50000  Biso   1.000  C
  C105     1.0000 0.76510  0.23490  0.50000  Biso   1.000  C
  H35      1.0000 0.73230  0.26770  0.50000  Biso   1.000  H
  C106     1.0000 0.08830  0.08830  0.50000  Biso   1.000  C
  C107     1.0000 0.13920  0.13920  0.50000  Biso   1.000  C
  C108     1.0000 0.23490  0.23490  0.50000  Biso   1.000  C
  H36      1.0000 0.26770  0.26770  0.50000  Biso   1.000  H
  Zn1      1.0000 0.42623  0.00000  0.00000  Biso   1.000  Zn
  Zn2      1.0000 0.57377  0.00000  0.00000  Biso   1.000  Zn
  Zn3      1.0000 0.00000  0.42623  0.00000  Biso   1.000  Zn
  Zn4      1.0000 0.00000  0.57377  0.00000  Biso   1.000  Zn
  Zn5      1.0000 0.00000  0.00000  0.42623  Biso   1.000  Zn
  Zn6      1.0000 0.00000  0.00000  0.57377  Biso   1.000  Zn
  N1       1.0000 0.17820  0.82180  0.82180  Biso   1.000  N
  Zn7      1.0000 0.33696  0.66304  0.66304  Biso   1.000  Zn
  Zn8      1.0000 0.23581  0.76419  0.76419  Biso   1.000  Zn
  N2       1.0000 0.82180  0.17820  0.82180  Biso   1.000  N
  Zn9      1.0000 0.66304  0.33696  0.66304  Biso   1.000  Zn
  Zn10     1.0000 0.76419  0.23581  0.76419  Biso   1.000  Zn
  N3       1.0000 0.82180  0.82180  0.17820  Biso   1.000  N
  Zn11     1.0000 0.66304  0.66304  0.33696  Biso   1.000  Zn
  Zn12     1.0000 0.76419  0.76419  0.23581  Biso   1.000  Zn
  N4       1.0000 0.17820  0.17820  0.17820  Biso   1.000  N
  Zn13     1.0000 0.33696  0.33696  0.33696  Biso   1.000  Zn
  Zn14     1.0000 0.23581  0.23581  0.23581  Biso   1.000  Zn
  N5       1.0000 0.82180  0.17820  0.17820  Biso   1.000  N
  Zn15     1.0000 0.66304  0.33696  0.33696  Biso   1.000  Zn
  Zn16     1.0000 0.76419  0.23581  0.23581  Biso   1.000  Zn
  N6       1.0000 0.17820  0.82180  0.17820  Biso   1.000  N
  Zn17     1.0000 0.33696  0.66304  0.33696  Biso   1.000  Zn
  Zn18     1.0000 0.23581  0.76419  0.23581  Biso   1.000  Zn
  N7       1.0000 0.82180  0.82180  0.82180  Biso   1.000  N
  Zn19     1.0000 0.66304  0.66304  0.66304  Biso   1.000  Zn
  Zn20     1.0000 0.76419  0.76419  0.76419  Biso   1.000  Zn
  N8       1.0000 0.17820  0.17820  0.82180  Biso   1.000  N
  Zn21     1.0000 0.33696  0.33696  0.66304  Biso   1.000  Zn
  Zn22     1.0000 0.23581  0.23581  0.76419  Biso   1.000  Zn
  O73      1.0000 0.21160  0.78840  0.86600  Biso   1.000  O
  O74      1.0000 0.78840  0.21160  0.86600  Biso   1.000  O
  O75      1.0000 0.78840  0.78840  0.13400  Biso   1.000  O
  O76      1.0000 0.21160  0.21160  0.13400  Biso   1.000  O
  O77      1.0000 0.86600  0.21160  0.78840  Biso   1.000  O
  O78      1.0000 0.86600  0.78840  0.21160  Biso   1.000  O
  O79      1.0000 0.13400  0.78840  0.78840  Biso   1.000  O
  O80      1.0000 0.13400  0.21160  0.21160  Biso   1.000  O
  O81      1.0000 0.78840  0.86600  0.21160  Biso   1.000  O
  O82      1.0000 0.21160  0.86600  0.78840  Biso   1.000  O
  O83      1.0000 0.78840  0.13400  0.78840  Biso   1.000  O
  O84      1.0000 0.21160  0.13400  0.21160  Biso   1.000  O
  O85      1.0000 0.78840  0.21160  0.13400  Biso   1.000  O
  O86      1.0000 0.21160  0.78840  0.13400  Biso   1.000  O
  O87      1.0000 0.78840  0.78840  0.86600  Biso   1.000  O
  O88      1.0000 0.21160  0.21160  0.86600  Biso   1.000  O
  O89      1.0000 0.21160  0.86600  0.21160  Biso   1.000  O
  O90      1.0000 0.78840  0.86600  0.78840  Biso   1.000  O
  O91      1.0000 0.78840  0.13400  0.21160  Biso   1.000  O
  O92      1.0000 0.21160  0.13400  0.78840  Biso   1.000  O
  O93      1.0000 0.86600  0.78840  0.78840  Biso   1.000  O
  O94      1.0000 0.86600  0.21160  0.21160  Biso   1.000  O
  O95      1.0000 0.13400  0.78840  0.21160  Biso   1.000  O
  O96      1.0000 0.13400  0.21160  0.78840  Biso   1.000  O
