data_image0
_cell_length_a       16.205
_cell_length_b       24.834
_cell_length_c       13.514
_cell_angle_alpha    90
_cell_angle_beta     124.244
_cell_angle_gamma    90

_symmetry_space_group_name_H-M    "P 1"
_symmetry_int_tables_number       1

loop_
  _symmetry_equiv_pos_as_xyz
  'x, y, z'

loop_
  _atom_site_label
  _atom_site_occupancy
  _atom_site_fract_x
  _atom_site_fract_y
  _atom_site_fract_z
  _atom_site_thermal_displace_type
  _atom_site_B_iso_or_equiv
  _atom_site_type_symbol
  Zn1      1.0000 0.32251  0.05251  0.72840  Biso   1.000  Zn
  O1       1.0000 0.74207  0.06221  0.94579  Biso   1.000  O
  O2       1.0000 0.62419  0.12105  0.90758  Biso   1.000  O
  O3       1.0000 0.65123  0.02988  0.08091  Biso   1.000  O
  O4       1.0000 0.75197  0.01222  0.27671  Biso   1.000  O
  O5       1.0000 0.97000  0.15628  0.53610  Biso   1.000  O
  O6       1.0000 0.01600  0.21801  0.46910  Biso   1.000  O
  O7       1.0000 0.45881  0.03861  0.84512  Biso   1.000  O
  H1       1.0000 0.49750  0.06160  0.84480  Biso   1.000  H
  N1       1.0000 0.96730  0.17845  0.45490  Biso   1.000  N
  N2       1.0000 0.45984  0.07047  0.05932  Biso   1.000  N
  N3       1.0000 0.23892  0.38414  0.23500  Biso   1.000  N
  C1       1.0000 0.77125  0.11771  0.10448  Biso   1.000  C
  C2       1.0000 0.78330  0.08986  0.20186  Biso   1.000  C
  C3       1.0000 0.84886  0.10949  0.31740  Biso   1.000  C
  H2       1.0000 0.85840  0.09110  0.38300  Biso   1.000  H
  C4       1.0000 0.89959  0.15690  0.33280  Biso   1.000  C
  C5       1.0000 0.88850  0.18572  0.23870  Biso   1.000  C
  H3       1.0000 0.92320  0.21770  0.25170  Biso   1.000  H
  C6       1.0000 0.82410  0.16546  0.12440  Biso   1.000  C
  H4       1.0000 0.81570  0.18400  0.05960  Biso   1.000  H
  C7       1.0000 0.70465  0.09846  0.97597  Biso   1.000  C
  C8       1.0000 0.72341  0.03987  0.18355  Biso   1.000  C
  C9       1.0000 0.47972  0.12112  0.04483  Biso   1.000  C
  H5       1.0000 0.51780  0.12650  0.01380  Biso   1.000  H
  C10      1.0000 0.44626  0.16581  0.07390  Biso   1.000  C
  H6       1.0000 0.46220  0.20030  0.06280  Biso   1.000  H
  C11      1.0000 0.38821  0.15869  0.12000  Biso   1.000  C
  C12      1.0000 0.36784  0.10600  0.13420  Biso   1.000  C
  H7       1.0000 0.32940  0.09930  0.16430  Biso   1.000  H
  C13      1.0000 0.40453  0.06363  0.10380  Biso   1.000  C
  H8       1.0000 0.39030  0.02870  0.11460  Biso   1.000  H
  C14      1.0000 0.34849  0.20299  0.15390  Biso   1.000  C
  H9       1.0000 0.30820  0.19350  0.17990  Biso   1.000  H
  C15      1.0000 0.36448  0.25486  0.15090  Biso   1.000  C
  H10      1.0000 0.40590  0.26460  0.12670  Biso   1.000  H
  C16      1.0000 0.29460  0.39267  0.19150  Biso   1.000  C
  H11      1.0000 0.30540  0.42800  0.17840  Biso   1.000  H
  C17      1.0000 0.33640  0.35165  0.16540  Biso   1.000  C
  H12      1.0000 0.37460  0.35970  0.13570  Biso   1.000  H
  C18      1.0000 0.32190  0.29875  0.18290  Biso   1.000  C
  C19      1.0000 0.26510  0.28988  0.22980  Biso   1.000  C
  H13      1.0000 0.25440  0.25500  0.24530  Biso   1.000  H
  C20      1.0000 0.22500  0.33299  0.25300  Biso   1.000  C
  H14      1.0000 0.18620  0.32620  0.28260  Biso   1.000  H
  Zn2      1.0000 0.82251  0.55251  0.72840  Biso   1.000  Zn
  O8       1.0000 0.24207  0.56221  0.94579  Biso   1.000  O
  O9       1.0000 0.12419  0.62105  0.90758  Biso   1.000  O
  O10      1.0000 0.15123  0.52988  0.08091  Biso   1.000  O
  O11      1.0000 0.25197  0.51222  0.27671  Biso   1.000  O
  O12      1.0000 0.47000  0.65628  0.53610  Biso   1.000  O
  O13      1.0000 0.51600  0.71801  0.46910  Biso   1.000  O
  O14      1.0000 0.95881  0.53861  0.84512  Biso   1.000  O
  H15      1.0000 0.99750  0.56160  0.84480  Biso   1.000  H
  N4       1.0000 0.46730  0.67845  0.45490  Biso   1.000  N
  N5       1.0000 0.95984  0.57047  0.05932  Biso   1.000  N
  N6       1.0000 0.73892  0.88414  0.23500  Biso   1.000  N
  C21      1.0000 0.27125  0.61771  0.10448  Biso   1.000  C
  C22      1.0000 0.28330  0.58986  0.20186  Biso   1.000  C
  C23      1.0000 0.34886  0.60949  0.31740  Biso   1.000  C
  H16      1.0000 0.35840  0.59110  0.38300  Biso   1.000  H
  C24      1.0000 0.39959  0.65690  0.33280  Biso   1.000  C
  C25      1.0000 0.38850  0.68572  0.23870  Biso   1.000  C
  H17      1.0000 0.42320  0.71770  0.25170  Biso   1.000  H
  C26      1.0000 0.32410  0.66546  0.12440  Biso   1.000  C
  H18      1.0000 0.31570  0.68400  0.05960  Biso   1.000  H
  C27      1.0000 0.20465  0.59846  0.97597  Biso   1.000  C
  C28      1.0000 0.22341  0.53987  0.18355  Biso   1.000  C
  C29      1.0000 0.97972  0.62112  0.04483  Biso   1.000  C
  H19      1.0000 0.01780  0.62650  0.01380  Biso   1.000  H
  C30      1.0000 0.94626  0.66581  0.07390  Biso   1.000  C
  H20      1.0000 0.96220  0.70030  0.06280  Biso   1.000  H
  C31      1.0000 0.88821  0.65869  0.12000  Biso   1.000  C
  C32      1.0000 0.86784  0.60600  0.13420  Biso   1.000  C
  H21      1.0000 0.82940  0.59930  0.16430  Biso   1.000  H
  C33      1.0000 0.90453  0.56363  0.10380  Biso   1.000  C
  H22      1.0000 0.89030  0.52870  0.11460  Biso   1.000  H
  C34      1.0000 0.84849  0.70299  0.15390  Biso   1.000  C
  H23      1.0000 0.80820  0.69350  0.17990  Biso   1.000  H
  C35      1.0000 0.86448  0.75486  0.15090  Biso   1.000  C
  H24      1.0000 0.90590  0.76460  0.12670  Biso   1.000  H
  C36      1.0000 0.79460  0.89267  0.19150  Biso   1.000  C
  H25      1.0000 0.80540  0.92800  0.17840  Biso   1.000  H
  C37      1.0000 0.83640  0.85165  0.16540  Biso   1.000  C
  H26      1.0000 0.87460  0.85970  0.13570  Biso   1.000  H
  C38      1.0000 0.82190  0.79875  0.18290  Biso   1.000  C
  C39      1.0000 0.76510  0.78988  0.22980  Biso   1.000  C
  H27      1.0000 0.75440  0.75500  0.24530  Biso   1.000  H
  C40      1.0000 0.72500  0.83299  0.25300  Biso   1.000  C
  H28      1.0000 0.68620  0.82620  0.28260  Biso   1.000  H
  Zn3      1.0000 0.67749  0.05251  0.77160  Biso   1.000  Zn
  O15      1.0000 0.25793  0.06221  0.55421  Biso   1.000  O
  O16      1.0000 0.37581  0.12105  0.59242  Biso   1.000  O
  O17      1.0000 0.34877  0.02988  0.41909  Biso   1.000  O
  O18      1.0000 0.24803  0.01222  0.22329  Biso   1.000  O
  O19      1.0000 0.03000  0.15628  0.96390  Biso   1.000  O
  O20      1.0000 0.98400  0.21801  0.03090  Biso   1.000  O
  O21      1.0000 0.54119  0.03861  0.65488  Biso   1.000  O
  H29      1.0000 0.50250  0.06160  0.65520  Biso   1.000  H
  N7       1.0000 0.03270  0.17845  0.04510  Biso   1.000  N
  N8       1.0000 0.54016  0.07047  0.44068  Biso   1.000  N
  N9       1.0000 0.76108  0.38414  0.26500  Biso   1.000  N
  C41      1.0000 0.22875  0.11771  0.39552  Biso   1.000  C
  C42      1.0000 0.21670  0.08986  0.29814  Biso   1.000  C
  C43      1.0000 0.15114  0.10949  0.18260  Biso   1.000  C
  H30      1.0000 0.14160  0.09110  0.11700  Biso   1.000  H
  C44      1.0000 0.10041  0.15690  0.16720  Biso   1.000  C
  C45      1.0000 0.11150  0.18572  0.26130  Biso   1.000  C
  H31      1.0000 0.07680  0.21770  0.24830  Biso   1.000  H
  C46      1.0000 0.17590  0.16546  0.37560  Biso   1.000  C
  H32      1.0000 0.18430  0.18400  0.44040  Biso   1.000  H
  C47      1.0000 0.29535  0.09846  0.52403  Biso   1.000  C
  C48      1.0000 0.27659  0.03987  0.31645  Biso   1.000  C
  C49      1.0000 0.52028  0.12112  0.45517  Biso   1.000  C
  H33      1.0000 0.48220  0.12650  0.48620  Biso   1.000  H
  C50      1.0000 0.55374  0.16581  0.42610  Biso   1.000  C
  H34      1.0000 0.53780  0.20030  0.43720  Biso   1.000  H
  C51      1.0000 0.61179  0.15869  0.38000  Biso   1.000  C
  C52      1.0000 0.63216  0.10600  0.36580  Biso   1.000  C
  H35      1.0000 0.67060  0.09930  0.33570  Biso   1.000  H
  C53      1.0000 0.59547  0.06363  0.39620  Biso   1.000  C
  H36      1.0000 0.60970  0.02870  0.38540  Biso   1.000  H
  C54      1.0000 0.65151  0.20299  0.34610  Biso   1.000  C
  H37      1.0000 0.69180  0.19350  0.32010  Biso   1.000  H
  C55      1.0000 0.63552  0.25486  0.34910  Biso   1.000  C
  H38      1.0000 0.59410  0.26460  0.37330  Biso   1.000  H
  C56      1.0000 0.70540  0.39267  0.30850  Biso   1.000  C
  H39      1.0000 0.69460  0.42800  0.32160  Biso   1.000  H
  C57      1.0000 0.66360  0.35165  0.33460  Biso   1.000  C
  H40      1.0000 0.62540  0.35970  0.36430  Biso   1.000  H
  C58      1.0000 0.67810  0.29875  0.31710  Biso   1.000  C
  C59      1.0000 0.73490  0.28988  0.27020  Biso   1.000  C
  H41      1.0000 0.74560  0.25500  0.25470  Biso   1.000  H
  C60      1.0000 0.77500  0.33299  0.24700  Biso   1.000  C
  H42      1.0000 0.81380  0.32620  0.21740  Biso   1.000  H
  Zn4      1.0000 0.17749  0.55251  0.77160  Biso   1.000  Zn
  O22      1.0000 0.75793  0.56221  0.55421  Biso   1.000  O
  O23      1.0000 0.87581  0.62105  0.59242  Biso   1.000  O
  O24      1.0000 0.84877  0.52988  0.41909  Biso   1.000  O
  O25      1.0000 0.74803  0.51222  0.22329  Biso   1.000  O
  O26      1.0000 0.53000  0.65628  0.96390  Biso   1.000  O
  O27      1.0000 0.48400  0.71801  0.03090  Biso   1.000  O
  O28      1.0000 0.04119  0.53861  0.65488  Biso   1.000  O
  H43      1.0000 0.00250  0.56160  0.65520  Biso   1.000  H
  N10      1.0000 0.53270  0.67845  0.04510  Biso   1.000  N
  N11      1.0000 0.04016  0.57047  0.44068  Biso   1.000  N
  N12      1.0000 0.26108  0.88414  0.26500  Biso   1.000  N
  C61      1.0000 0.72875  0.61771  0.39552  Biso   1.000  C
  C62      1.0000 0.71670  0.58986  0.29814  Biso   1.000  C
  C63      1.0000 0.65114  0.60949  0.18260  Biso   1.000  C
  H44      1.0000 0.64160  0.59110  0.11700  Biso   1.000  H
  C64      1.0000 0.60041  0.65690  0.16720  Biso   1.000  C
  C65      1.0000 0.61150  0.68572  0.26130  Biso   1.000  C
  H45      1.0000 0.57680  0.71770  0.24830  Biso   1.000  H
  C66      1.0000 0.67590  0.66546  0.37560  Biso   1.000  C
  H46      1.0000 0.68430  0.68400  0.44040  Biso   1.000  H
  C67      1.0000 0.79535  0.59846  0.52403  Biso   1.000  C
  C68      1.0000 0.77659  0.53987  0.31645  Biso   1.000  C
  C69      1.0000 0.02028  0.62112  0.45517  Biso   1.000  C
  H47      1.0000 0.98220  0.62650  0.48620  Biso   1.000  H
  C70      1.0000 0.05374  0.66581  0.42610  Biso   1.000  C
  H48      1.0000 0.03780  0.70030  0.43720  Biso   1.000  H
  C71      1.0000 0.11179  0.65869  0.38000  Biso   1.000  C
  C72      1.0000 0.13216  0.60600  0.36580  Biso   1.000  C
  H49      1.0000 0.17060  0.59930  0.33570  Biso   1.000  H
  C73      1.0000 0.09547  0.56363  0.39620  Biso   1.000  C
  H50      1.0000 0.10970  0.52870  0.38540  Biso   1.000  H
  C74      1.0000 0.15151  0.70299  0.34610  Biso   1.000  C
  H51      1.0000 0.19180  0.69350  0.32010  Biso   1.000  H
  C75      1.0000 0.13552  0.75486  0.34910  Biso   1.000  C
  H52      1.0000 0.09410  0.76460  0.37330  Biso   1.000  H
  C76      1.0000 0.20540  0.89267  0.30850  Biso   1.000  C
  H53      1.0000 0.19460  0.92800  0.32160  Biso   1.000  H
  C77      1.0000 0.16360  0.85165  0.33460  Biso   1.000  C
  H54      1.0000 0.12540  0.85970  0.36430  Biso   1.000  H
  C78      1.0000 0.17810  0.79875  0.31710  Biso   1.000  C
  C79      1.0000 0.23490  0.78988  0.27020  Biso   1.000  C
  H55      1.0000 0.24560  0.75500  0.25470  Biso   1.000  H
  C80      1.0000 0.27500  0.83299  0.24700  Biso   1.000  C
  H56      1.0000 0.31380  0.82620  0.21740  Biso   1.000  H
  Zn5      1.0000 0.67749  0.94749  0.27160  Biso   1.000  Zn
  O29      1.0000 0.25793  0.93779  0.05421  Biso   1.000  O
  O30      1.0000 0.37581  0.87895  0.09242  Biso   1.000  O
  O31      1.0000 0.34877  0.97012  0.91909  Biso   1.000  O
  O32      1.0000 0.24803  0.98778  0.72329  Biso   1.000  O
  O33      1.0000 0.03000  0.84372  0.46390  Biso   1.000  O
  O34      1.0000 0.98400  0.78199  0.53090  Biso   1.000  O
  O35      1.0000 0.54119  0.96139  0.15488  Biso   1.000  O
  H57      1.0000 0.50250  0.93840  0.15520  Biso   1.000  H
  N13      1.0000 0.03270  0.82155  0.54510  Biso   1.000  N
  N14      1.0000 0.54016  0.92953  0.94068  Biso   1.000  N
  N15      1.0000 0.76108  0.61586  0.76500  Biso   1.000  N
  C81      1.0000 0.22875  0.88229  0.89552  Biso   1.000  C
  C82      1.0000 0.21670  0.91014  0.79814  Biso   1.000  C
  C83      1.0000 0.15114  0.89051  0.68260  Biso   1.000  C
  H58      1.0000 0.14160  0.90890  0.61700  Biso   1.000  H
  C84      1.0000 0.10041  0.84310  0.66720  Biso   1.000  C
  C85      1.0000 0.11150  0.81428  0.76130  Biso   1.000  C
  H59      1.0000 0.07680  0.78230  0.74830  Biso   1.000  H
  C86      1.0000 0.17590  0.83454  0.87560  Biso   1.000  C
  H60      1.0000 0.18430  0.81600  0.94040  Biso   1.000  H
  C87      1.0000 0.29535  0.90154  0.02403  Biso   1.000  C
  C88      1.0000 0.27659  0.96013  0.81645  Biso   1.000  C
  C89      1.0000 0.52028  0.87888  0.95517  Biso   1.000  C
  H61      1.0000 0.48220  0.87350  0.98620  Biso   1.000  H
  C90      1.0000 0.55374  0.83419  0.92610  Biso   1.000  C
  H62      1.0000 0.53780  0.79970  0.93720  Biso   1.000  H
  C91      1.0000 0.61179  0.84131  0.88000  Biso   1.000  C
  C92      1.0000 0.63216  0.89400  0.86580  Biso   1.000  C
  H63      1.0000 0.67060  0.90070  0.83570  Biso   1.000  H
  C93      1.0000 0.59547  0.93637  0.89620  Biso   1.000  C
  H64      1.0000 0.60970  0.97130  0.88540  Biso   1.000  H
  C94      1.0000 0.65151  0.79701  0.84610  Biso   1.000  C
  H65      1.0000 0.69180  0.80650  0.82010  Biso   1.000  H
  C95      1.0000 0.63552  0.74514  0.84910  Biso   1.000  C
  H66      1.0000 0.59410  0.73540  0.87330  Biso   1.000  H
  C96      1.0000 0.70540  0.60733  0.80850  Biso   1.000  C
  H67      1.0000 0.69460  0.57200  0.82160  Biso   1.000  H
  C97      1.0000 0.66360  0.64835  0.83460  Biso   1.000  C
  H68      1.0000 0.62540  0.64030  0.86430  Biso   1.000  H
  C98      1.0000 0.67810  0.70125  0.81710  Biso   1.000  C
  C99      1.0000 0.73490  0.71012  0.77020  Biso   1.000  C
  H69      1.0000 0.74560  0.74500  0.75470  Biso   1.000  H
  C100     1.0000 0.77500  0.66701  0.74700  Biso   1.000  C
  H70      1.0000 0.81380  0.67380  0.71740  Biso   1.000  H
  Zn6      1.0000 0.17749  0.44749  0.27160  Biso   1.000  Zn
  O36      1.0000 0.75793  0.43779  0.05421  Biso   1.000  O
  O37      1.0000 0.87581  0.37895  0.09242  Biso   1.000  O
  O38      1.0000 0.84877  0.47012  0.91909  Biso   1.000  O
  O39      1.0000 0.74803  0.48778  0.72329  Biso   1.000  O
  O40      1.0000 0.53000  0.34372  0.46390  Biso   1.000  O
  O41      1.0000 0.48400  0.28199  0.53090  Biso   1.000  O
  O42      1.0000 0.04119  0.46139  0.15488  Biso   1.000  O
  H71      1.0000 0.00250  0.43840  0.15520  Biso   1.000  H
  N16      1.0000 0.53270  0.32155  0.54510  Biso   1.000  N
  N17      1.0000 0.04016  0.42953  0.94068  Biso   1.000  N
  N18      1.0000 0.26108  0.11586  0.76500  Biso   1.000  N
  C101     1.0000 0.72875  0.38229  0.89552  Biso   1.000  C
  C102     1.0000 0.71670  0.41014  0.79814  Biso   1.000  C
  C103     1.0000 0.65114  0.39051  0.68260  Biso   1.000  C
  H72      1.0000 0.64160  0.40890  0.61700  Biso   1.000  H
  C104     1.0000 0.60041  0.34310  0.66720  Biso   1.000  C
  C105     1.0000 0.61150  0.31428  0.76130  Biso   1.000  C
  H73      1.0000 0.57680  0.28230  0.74830  Biso   1.000  H
  C106     1.0000 0.67590  0.33454  0.87560  Biso   1.000  C
  H74      1.0000 0.68430  0.31600  0.94040  Biso   1.000  H
  C107     1.0000 0.79535  0.40154  0.02403  Biso   1.000  C
  C108     1.0000 0.77659  0.46013  0.81645  Biso   1.000  C
  C109     1.0000 0.02028  0.37888  0.95517  Biso   1.000  C
  H75      1.0000 0.98220  0.37350  0.98620  Biso   1.000  H
  C110     1.0000 0.05374  0.33419  0.92610  Biso   1.000  C
  H76      1.0000 0.03780  0.29970  0.93720  Biso   1.000  H
  C111     1.0000 0.11179  0.34131  0.88000  Biso   1.000  C
  C112     1.0000 0.13216  0.39400  0.86580  Biso   1.000  C
  H77      1.0000 0.17060  0.40070  0.83570  Biso   1.000  H
  C113     1.0000 0.09547  0.43637  0.89620  Biso   1.000  C
  H78      1.0000 0.10970  0.47130  0.88540  Biso   1.000  H
  C114     1.0000 0.15151  0.29701  0.84610  Biso   1.000  C
  H79      1.0000 0.19180  0.30650  0.82010  Biso   1.000  H
  C115     1.0000 0.13552  0.24514  0.84910  Biso   1.000  C
  H80      1.0000 0.09410  0.23540  0.87330  Biso   1.000  H
  C116     1.0000 0.20540  0.10733  0.80850  Biso   1.000  C
  H81      1.0000 0.19460  0.07200  0.82160  Biso   1.000  H
  C117     1.0000 0.16360  0.14835  0.83460  Biso   1.000  C
  H82      1.0000 0.12540  0.14030  0.86430  Biso   1.000  H
  C118     1.0000 0.17810  0.20125  0.81710  Biso   1.000  C
  C119     1.0000 0.23490  0.21012  0.77020  Biso   1.000  C
  H83      1.0000 0.24560  0.24500  0.75470  Biso   1.000  H
  C120     1.0000 0.27500  0.16701  0.74700  Biso   1.000  C
  H84      1.0000 0.31380  0.17380  0.71740  Biso   1.000  H
  Zn7      1.0000 0.32251  0.94749  0.22840  Biso   1.000  Zn
  O43      1.0000 0.74207  0.93779  0.44579  Biso   1.000  O
  O44      1.0000 0.62419  0.87895  0.40758  Biso   1.000  O
  O45      1.0000 0.65123  0.97012  0.58091  Biso   1.000  O
  O46      1.0000 0.75197  0.98778  0.77671  Biso   1.000  O
  O47      1.0000 0.97000  0.84372  0.03610  Biso   1.000  O
  O48      1.0000 0.01600  0.78199  0.96910  Biso   1.000  O
  O49      1.0000 0.45881  0.96139  0.34512  Biso   1.000  O
  H85      1.0000 0.49750  0.93840  0.34480  Biso   1.000  H
  N19      1.0000 0.96730  0.82155  0.95490  Biso   1.000  N
  N20      1.0000 0.45984  0.92953  0.55932  Biso   1.000  N
  N21      1.0000 0.23892  0.61586  0.73500  Biso   1.000  N
  C121     1.0000 0.77125  0.88229  0.60448  Biso   1.000  C
  C122     1.0000 0.78330  0.91014  0.70186  Biso   1.000  C
  C123     1.0000 0.84886  0.89051  0.81740  Biso   1.000  C
  H86      1.0000 0.85840  0.90890  0.88300  Biso   1.000  H
  C124     1.0000 0.89959  0.84310  0.83280  Biso   1.000  C
  C125     1.0000 0.88850  0.81428  0.73870  Biso   1.000  C
  H87      1.0000 0.92320  0.78230  0.75170  Biso   1.000  H
  C126     1.0000 0.82410  0.83454  0.62440  Biso   1.000  C
  H88      1.0000 0.81570  0.81600  0.55960  Biso   1.000  H
  C127     1.0000 0.70465  0.90154  0.47597  Biso   1.000  C
  C128     1.0000 0.72341  0.96013  0.68355  Biso   1.000  C
  C129     1.0000 0.47972  0.87888  0.54483  Biso   1.000  C
  H89      1.0000 0.51780  0.87350  0.51380  Biso   1.000  H
  C130     1.0000 0.44626  0.83419  0.57390  Biso   1.000  C
  H90      1.0000 0.46220  0.79970  0.56280  Biso   1.000  H
  C131     1.0000 0.38821  0.84131  0.62000  Biso   1.000  C
  C132     1.0000 0.36784  0.89400  0.63420  Biso   1.000  C
  H91      1.0000 0.32940  0.90070  0.66430  Biso   1.000  H
  C133     1.0000 0.40453  0.93637  0.60380  Biso   1.000  C
  H92      1.0000 0.39030  0.97130  0.61460  Biso   1.000  H
  C134     1.0000 0.34849  0.79701  0.65390  Biso   1.000  C
  H93      1.0000 0.30820  0.80650  0.67990  Biso   1.000  H
  C135     1.0000 0.36448  0.74514  0.65090  Biso   1.000  C
  H94      1.0000 0.40590  0.73540  0.62670  Biso   1.000  H
  C136     1.0000 0.29460  0.60733  0.69150  Biso   1.000  C
  H95      1.0000 0.30540  0.57200  0.67840  Biso   1.000  H
  C137     1.0000 0.33640  0.64835  0.66540  Biso   1.000  C
  H96      1.0000 0.37460  0.64030  0.63570  Biso   1.000  H
  C138     1.0000 0.32190  0.70125  0.68290  Biso   1.000  C
  C139     1.0000 0.26510  0.71012  0.72980  Biso   1.000  C
  H97      1.0000 0.25440  0.74500  0.74530  Biso   1.000  H
  C140     1.0000 0.22500  0.66701  0.75300  Biso   1.000  C
  H98      1.0000 0.18620  0.67380  0.78260  Biso   1.000  H
  Zn8      1.0000 0.82251  0.44749  0.22840  Biso   1.000  Zn
  O50      1.0000 0.24207  0.43779  0.44579  Biso   1.000  O
  O51      1.0000 0.12419  0.37895  0.40758  Biso   1.000  O
  O52      1.0000 0.15123  0.47012  0.58091  Biso   1.000  O
  O53      1.0000 0.25197  0.48778  0.77671  Biso   1.000  O
  O54      1.0000 0.47000  0.34372  0.03610  Biso   1.000  O
  O55      1.0000 0.51600  0.28199  0.96910  Biso   1.000  O
  O56      1.0000 0.95881  0.46139  0.34512  Biso   1.000  O
  H99      1.0000 0.99750  0.43840  0.34480  Biso   1.000  H
  N22      1.0000 0.46730  0.32155  0.95490  Biso   1.000  N
  N23      1.0000 0.95984  0.42953  0.55932  Biso   1.000  N
  N24      1.0000 0.73892  0.11586  0.73500  Biso   1.000  N
  C141     1.0000 0.27125  0.38229  0.60448  Biso   1.000  C
  C142     1.0000 0.28330  0.41014  0.70186  Biso   1.000  C
  C143     1.0000 0.34886  0.39051  0.81740  Biso   1.000  C
  H100     1.0000 0.35840  0.40890  0.88300  Biso   1.000  H
  C144     1.0000 0.39959  0.34310  0.83280  Biso   1.000  C
  C145     1.0000 0.38850  0.31428  0.73870  Biso   1.000  C
  H101     1.0000 0.42320  0.28230  0.75170  Biso   1.000  H
  C146     1.0000 0.32410  0.33454  0.62440  Biso   1.000  C
  H102     1.0000 0.31570  0.31600  0.55960  Biso   1.000  H
  C147     1.0000 0.20465  0.40154  0.47597  Biso   1.000  C
  C148     1.0000 0.22341  0.46013  0.68355  Biso   1.000  C
  C149     1.0000 0.97972  0.37888  0.54483  Biso   1.000  C
  H103     1.0000 0.01780  0.37350  0.51380  Biso   1.000  H
  C150     1.0000 0.94626  0.33419  0.57390  Biso   1.000  C
  H104     1.0000 0.96220  0.29970  0.56280  Biso   1.000  H
  C151     1.0000 0.88821  0.34131  0.62000  Biso   1.000  C
  C152     1.0000 0.86784  0.39400  0.63420  Biso   1.000  C
  H105     1.0000 0.82940  0.40070  0.66430  Biso   1.000  H
  C153     1.0000 0.90453  0.43637  0.60380  Biso   1.000  C
  H106     1.0000 0.89030  0.47130  0.61460  Biso   1.000  H
  C154     1.0000 0.84849  0.29701  0.65390  Biso   1.000  C
  H107     1.0000 0.80820  0.30650  0.67990  Biso   1.000  H
  C155     1.0000 0.86448  0.24514  0.65090  Biso   1.000  C
  H108     1.0000 0.90590  0.23540  0.62670  Biso   1.000  H
  C156     1.0000 0.79460  0.10733  0.69150  Biso   1.000  C
  H109     1.0000 0.80540  0.07200  0.67840  Biso   1.000  H
  C157     1.0000 0.83640  0.14835  0.66540  Biso   1.000  C
  H110     1.0000 0.87460  0.14030  0.63570  Biso   1.000  H
  C158     1.0000 0.82190  0.20125  0.68290  Biso   1.000  C
  C159     1.0000 0.76510  0.21012  0.72980  Biso   1.000  C
  H111     1.0000 0.75440  0.24500  0.74530  Biso   1.000  H
  C160     1.0000 0.72500  0.16701  0.75300  Biso   1.000  C
  H112     1.0000 0.68620  0.17380  0.78260  Biso   1.000  H
  Zn9      1.0000 0.50000  0.00000  0.00000  Biso   1.000  Zn
  Zn10     1.0000 0.00000  0.50000  0.00000  Biso   1.000  Zn
  Zn11     1.0000 0.50000  0.00000  0.50000  Biso   1.000  Zn
  Zn12     1.0000 0.00000  0.50000  0.50000  Biso   1.000  Zn
