data_GISMIG_clean
_audit_creation_date              2015-10-16
_audit_creation_method            'Materials Studio'
_symmetry_space_group_name_H-M    'P1'
_symmetry_Int_Tables_number       1
_symmetry_cell_setting            triclinic
loop_
_symmetry_equiv_pos_as_xyz
  x,y,z
_cell_length_a                    12.2048
_cell_length_b                    12.2048
_cell_length_c                    16.3122
_cell_angle_alpha                 77.6399
_cell_angle_beta                  70.5099
_cell_angle_gamma                 105.5440
loop_
_atom_site_label
_atom_site_type_symbol
_atom_site_fract_x
_atom_site_fract_y
_atom_site_fract_z
_atom_site_U_iso_or_equiv
_atom_site_adp_type
_atom_site_occupancy
Cd1    Cd    0.30056   0.17434   0.36870   0.01267  Uiso   1.00
Cd2    Cd    0.95696   0.33074   0.86870   0.01267  Uiso   1.00
Cd3    Cd    0.04304   0.66926   0.13130   0.01267  Uiso   1.00
Cd4    Cd    0.69944   0.82566   0.63130   0.01267  Uiso   1.00
H1     H     0.53950   0.86550   0.81860   0.01267  Uiso   1.00
H2     H     0.91510   0.74730   0.98060   0.01267  Uiso   1.00
H3     H     0.84030   0.83850   0.15980   0.01267  Uiso   1.00
H4     H     0.30410   0.63230   0.12340   0.01267  Uiso   1.00
H5     H     0.30850   0.95190   0.77980   0.01267  Uiso   1.00
H6     H     0.50170   0.99990   0.65980   0.01267  Uiso   1.00
H7     H     0.98800   0.85100   0.62460   0.01267  Uiso   1.00
H8     H     0.55740   0.44780   0.04860   0.01267  Uiso   1.00
H9     H     0.92740   0.30790   0.36970   0.01267  Uiso   1.00
H10    H     0.34290   0.19800   0.71090   0.01267  Uiso   1.00
H11    H     0.44260   0.55220   0.95140   0.01267  Uiso   1.00
H12    H     0.77430   0.72960   0.43050   0.01267  Uiso   1.00
H13    H     0.02440   0.38740   0.12460   0.01267  Uiso   1.00
H14    H     0.69150   0.04810   0.22020   0.01267  Uiso   1.00
H15    H     0.76830   0.91170   0.27980   0.01267  Uiso   1.00
H16    H     0.59110   0.94620   0.21090   0.01267  Uiso   1.00
H17    H     0.07080   0.10630   0.57830   0.01267  Uiso   1.00
H18    H     0.62800   0.62810   0.82250   0.01267  Uiso   1.00
H19    H     0.01280   0.05790   0.13610   0.01267  Uiso   1.00
H20    H     0.95060   0.45050   0.67750   0.01267  Uiso   1.00
H21    H     0.73400   0.85160   0.12940   0.01267  Uiso   1.00
H22    H     0.07260   0.69210   0.63030   0.01267  Uiso   1.00
H23    H     0.77210   0.10430   0.48060   0.01267  Uiso   1.00
H24    H     0.56320   0.48790   0.85210   0.01267  Uiso   1.00
H25    H     0.30600   0.85110   0.63610   0.01267  Uiso   1.00
H26    H     0.33990   0.79520   0.93050   0.01267  Uiso   1.00
H27    H     0.65710   0.80200   0.28910   0.01267  Uiso   1.00
H28    H     0.66010   0.20480   0.06950   0.01267  Uiso   1.00
H29    H     0.15970   0.16150   0.84020   0.01267  Uiso   1.00
H30    H     0.18460   0.64910   0.92170   0.01267  Uiso   1.00
H31    H     0.08490   0.25270   0.01940   0.01267  Uiso   1.00
H32    H     0.26600   0.14840   0.87060   0.01267  Uiso   1.00
H33    H     0.69400   0.14890   0.36390   0.01267  Uiso   1.00
H34    H     0.16000   0.58470   0.35210   0.01267  Uiso   1.00
H35    H     0.40890   0.05380   0.78910   0.01267  Uiso   1.00
H36    H     0.90750   0.47710   0.46780   0.01267  Uiso   1.00
H37    H     0.97560   0.61260   0.87540   0.01267  Uiso   1.00
H38    H     0.82240   0.70290   0.86970   0.01267  Uiso   1.00
H39    H     0.22790   0.89570   0.51940   0.01267  Uiso   1.00
H40    H     0.18410   0.35810   0.68140   0.01267  Uiso   1.00
H41    H     0.01200   0.14900   0.37540   0.01267  Uiso   1.00
H42    H     0.84000   0.41530   0.64790   0.01267  Uiso   1.00
H43    H     0.46050   0.13450   0.18140   0.01267  Uiso   1.00
H44    H     0.81590   0.64190   0.31860   0.01267  Uiso   1.00
H45    H     0.23170   0.08830   0.72020   0.01267  Uiso   1.00
H46    H     0.69590   0.36770   0.87660   0.01267  Uiso   1.00
H47    H     0.99640   0.60600   0.45140   0.01267  Uiso   1.00
H48    H     0.98720   0.94210   0.86390   0.01267  Uiso   1.00
H49    H     0.92920   0.89370   0.42170   0.01267  Uiso   1.00
H50    H     0.04940   0.54950   0.32250   0.01267  Uiso   1.00
H51    H     0.74430   0.57250   0.62340   0.01267  Uiso   1.00
H52    H     0.21270   0.95250   0.98820   0.01267  Uiso   1.00
H53    H     0.48100   0.86340   0.37060   0.01267  Uiso   1.00
H54    H     0.17760   0.29710   0.13030   0.01267  Uiso   1.00
H55    H     0.37200   0.37190   0.17750   0.01267  Uiso   1.00
H56    H     0.51900   0.13660   0.62940   0.01267  Uiso   1.00
H57    H     0.00360   0.39400   0.54860   0.01267  Uiso   1.00
H58    H     0.22570   0.27040   0.56950   0.01267  Uiso   1.00
H59    H     0.43680   0.51210   0.14790   0.01267  Uiso   1.00
H60    H     0.49830   0.00010   0.34020   0.01267  Uiso   1.00
H61    H     0.44490   0.37530   0.03220   0.01267  Uiso   1.00
H62    H     0.78730   0.04750   0.01180   0.01267  Uiso   1.00
H63    H     0.81540   0.35090   0.07830   0.01267  Uiso   1.00
H64    H     0.55510   0.62470   0.96780   0.01267  Uiso   1.00
H65    H     0.55930   0.79910   0.48820   0.01267  Uiso   1.00
H66    H     0.44070   0.20090   0.51180   0.01267  Uiso   1.00
H67    H     0.25570   0.42750   0.37660   0.01267  Uiso   1.00
H68    H     0.09250   0.52290   0.53220   0.01267  Uiso   1.00
C1     C     0.18390   0.37540   0.12850   0.01267  Uiso   1.00
C2     C     0.05130   0.22600   0.37490   0.01267  Uiso   1.00
C3     C     0.08910   0.82920   0.25090   0.01267  Uiso   1.00
C4     C     0.53360   0.39980   0.31900   0.01267  Uiso   1.00
C5     C     0.98540   0.81350   0.96730   0.01267  Uiso   1.00
C6     C     0.88030   0.70400   0.31790   0.01267  Uiso   1.00
C7     C     0.70430   0.37910   0.18840   0.01267  Uiso   1.00
C8     C     0.85430   0.75800   0.38350   0.01267  Uiso   1.00
C9     C     0.18460   0.37690   0.37530   0.01267  Uiso   1.00
C10    C     0.26700   0.67390   0.87910   0.01267  Uiso   1.00
C11    C     0.99160   0.52370   0.45790   0.01267  Uiso   1.00
C12    C     0.41990   0.66000   0.75090   0.01267  Uiso   1.00
C13    C     0.60380   0.88110   0.47150   0.01267  Uiso   1.00
C14    C     0.58010   0.34000   0.24910   0.01267  Uiso   1.00
C15    C     0.29570   0.62090   0.81160   0.01267  Uiso   1.00
C16    C     0.67700   0.07290   0.40290   0.01267  Uiso   1.00
C17    C     0.63570   0.96410   0.24860   0.01267  Uiso   1.00
C18    C     0.28080   0.95270   0.53270   0.01267  Uiso   1.00
C19    C     0.35850   0.76220   0.88350   0.01267  Uiso   1.00
C20    C     0.74780   0.44010   0.87530   0.01267  Uiso   1.00
C21    C     0.00840   0.47630   0.54210   0.01267  Uiso   1.00
C22    C     0.07820   0.52480   0.36960   0.01267  Uiso   1.00
C23    C     0.94870   0.77400   0.62510   0.01267  Uiso   1.00
C24    C     0.21020   0.11310   0.84470   0.01267  Uiso   1.00
C25    C     0.71920   0.04730   0.46730   0.01267  Uiso   1.00
C26    C     0.83500   0.99860   0.69280   0.01267  Uiso   1.00
C27    C     0.48160   0.44950   0.04210   0.01267  Uiso   1.00
C28    C     0.19140   0.52780   0.80720   0.01267  Uiso   1.00
C29    C     0.73300   0.32610   0.12090   0.01267  Uiso   1.00
C30    C     0.51840   0.55050   0.95790   0.01267  Uiso   1.00
C31    C     0.32300   0.92710   0.59710   0.01267  Uiso   1.00
C32    C     0.97580   0.07990   0.09710   0.01267  Uiso   1.00
C33    C     0.10090   0.42620   0.12510   0.01267  Uiso   1.00
C34    C     0.21880   0.85260   0.18100   0.01267  Uiso   1.00
C35    C     0.45780   0.05490   0.65530   0.01267  Uiso   1.00
C36    C     0.28730   0.11570   0.74860   0.01267  Uiso   1.00
C37    C     0.11970   0.29600   0.68210   0.01267  Uiso   1.00
C38    C     0.16500   0.00140   0.30720   0.01267  Uiso   1.00
C39    C     0.47810   0.80180   0.81790   0.01267  Uiso   1.00
C40    C     0.91090   0.17080   0.74910   0.01267  Uiso   1.00
C41    C     0.94700   0.85390   0.37910   0.01267  Uiso   1.00
C42    C     0.92180   0.47520   0.63040   0.01267  Uiso   1.00
C43    C     0.14570   0.24200   0.61650   0.01267  Uiso   1.00
C44    C     0.89910   0.57380   0.87490   0.01267  Uiso   1.00
C45    C     0.85260   0.07530   0.02850   0.01267  Uiso   1.00
C46    C     0.52190   0.19820   0.18210   0.01267  Uiso   1.00
C47    C     0.54220   0.94510   0.34470   0.01267  Uiso   1.00
C48    C     0.39620   0.11890   0.52850   0.01267  Uiso   1.00
C49    C     0.06750   0.89270   0.31160   0.01267  Uiso   1.00
C50    C     0.99610   0.68760   0.62850   0.01267  Uiso   1.00
C51    C     0.01460   0.18650   0.03270   0.01267  Uiso   1.00
C52    C     0.05300   0.14610   0.62090   0.01267  Uiso   1.00
C53    C     0.60560   0.55220   0.86960   0.01267  Uiso   1.00
C54    C     0.25220   0.55990   0.12470   0.01267  Uiso   1.00
C55    C     0.71270   0.88430   0.25140   0.01267  Uiso   1.00
C56    C     0.93250   0.10730   0.68840   0.01267  Uiso   1.00
C57    C     0.81540   0.62310   0.62470   0.01267  Uiso   1.00
C58    C     0.46640   0.60020   0.68100   0.01267  Uiso   1.00
C59    C     0.81610   0.62460   0.87150   0.01267  Uiso   1.00
C60    C     0.80860   0.47220   0.19280   0.01267  Uiso   1.00
C61    C     0.39440   0.44780   0.13040   0.01267  Uiso   1.00
C62    C     0.14740   0.92470   0.97150   0.01267  Uiso   1.00
C63    C     0.64150   0.23780   0.11650   0.01267  Uiso   1.00
C64    C     0.78120   0.14740   0.81900   0.01267  Uiso   1.00
C65    C     0.00390   0.31240   0.37150   0.01267  Uiso   1.00
C66    C     0.78980   0.88690   0.15530   0.01267  Uiso   1.00
C67    C     0.02420   0.92010   0.90290   0.01267  Uiso   1.00
C68    C     0.36430   0.03590   0.75140   0.01267  Uiso   1.00
N1     N     0.50850   0.75160   0.75330   0.01267  Uiso   1.00
N2     N     0.06220   0.81500   0.01040   0.01267  Uiso   1.00
N3     N     0.39580   0.03480   0.59400   0.01267  Uiso   1.00
N4     N     0.90890   0.59190   0.62880   0.01267  Uiso   1.00
N5     N     0.60420   0.96520   0.40600   0.01267  Uiso   1.00
N6     N     0.72070   0.53770   0.87120   0.01267  Uiso   1.00
N7     N     0.85730   0.45770   0.87740   0.01267  Uiso   1.00
N8     N     0.16490   0.26530   0.37740   0.01267  Uiso   1.00
N9     N     0.00490   0.26180   0.74670   0.01267  Uiso   1.00
N10    N     0.09110   0.40810   0.37120   0.01267  Uiso   1.00
N11    N     0.27930   0.46230   0.12880   0.01267  Uiso   1.00
N12    N     0.67460   0.92740   0.51040   0.01267  Uiso   1.00
N13    N     0.14270   0.54230   0.12260   0.01267  Uiso   1.00
N14    N     0.87120   0.01020   0.09400   0.01267  Uiso   1.00
N15    N     0.49150   0.24840   0.24670   0.01267  Uiso   1.00
N16    N     0.99510   0.73820   0.25330   0.01267  Uiso   1.00
N17    N     0.32540   0.07260   0.48960   0.01267  Uiso   1.00
N18    N     0.93780   0.18500   0.98960   0.01267  Uiso   1.00
N19    N     0.12880   0.98980   0.90600   0.01267  Uiso   1.00
N20    N     0.83510   0.73470   0.62260   0.01267  Uiso   1.00
O1     O     0.79400   0.90330   0.75770   0.01267  Uiso   1.00
O2     O     0.80830   0.00900   0.62670   0.01267  Uiso   1.00
O3     O     0.39570   0.50250   0.69160   0.01267  Uiso   1.00
O4     O     0.57300   0.65470   0.61830   0.01267  Uiso   1.00
O5     O     0.86430   0.56500   0.12670   0.01267  Uiso   1.00
O6     O     0.60430   0.49750   0.30840   0.01267  Uiso   1.00
O7     O     0.83900   0.44830   0.25770   0.01267  Uiso   1.00
O8     O     0.42700   0.34530   0.38170   0.01267  Uiso   1.00
O9     O     0.16100   0.55170   0.74230   0.01267  Uiso   1.00
O10    O     0.22700   0.80870   0.11830   0.01267  Uiso   1.00
O11    O     0.30590   0.91270   0.19160   0.01267  Uiso   1.00
O12    O     0.20600   0.09670   0.24230   0.01267  Uiso   1.00
O13    O     0.77300   0.19130   0.88170   0.01267  Uiso   1.00
O14    O     0.13570   0.43500   0.87330   0.01267  Uiso   1.00
O15    O     0.69410   0.08730   0.80840   0.01267  Uiso   1.00
O16    O     0.19170   0.99100   0.37330   0.01267  Uiso   1.00
