data_image0
_cell_length_a       17.241
_cell_length_b       15.95
_cell_length_c       16.74
_cell_angle_alpha    90
_cell_angle_beta     108.386
_cell_angle_gamma    90

_symmetry_space_group_name_H-M    "P 1"
_symmetry_int_tables_number       1

loop_
  _symmetry_equiv_pos_as_xyz
  'x, y, z'

loop_
  _atom_site_label
  _atom_site_occupancy
  _atom_site_fract_x
  _atom_site_fract_y
  _atom_site_fract_z
  _atom_site_thermal_displace_type
  _atom_site_B_iso_or_equiv
  _atom_site_type_symbol
  C1       1.0000 0.38710  0.27980  0.30540  Biso   1.000  C
  C2       1.0000 0.43030  0.31150  0.39270  Biso   1.000  C
  C3       1.0000 0.50480  0.27950  0.43940  Biso   1.000  C
  H1       1.0000 0.52980  0.23910  0.41590  Biso   1.000  H
  C4       1.0000 0.54340  0.30650  0.52110  Biso   1.000  C
  C5       1.0000 0.50710  0.36920  0.55500  Biso   1.000  C
  H2       1.0000 0.53280  0.38750  0.60980  Biso   1.000  H
  C6       1.0000 0.43300  0.40480  0.50840  Biso   1.000  C
  C7       1.0000 0.39550  0.37400  0.42740  Biso   1.000  C
  H3       1.0000 0.34540  0.39630  0.39570  Biso   1.000  H
  C8       1.0000 0.62190  0.26440  0.57110  Biso   1.000  C
  C9       1.0000 0.39390  0.47330  0.54300  Biso   1.000  C
  C10      1.0000 0.31790  0.50220  0.50090  Biso   1.000  C
  H4       1.0000 0.28940  0.47860  0.44910  Biso   1.000  H
  C11      1.0000 0.28220  0.56480  0.53260  Biso   1.000  C
  H5       1.0000 0.23080  0.58300  0.49970  Biso   1.000  H
  C12      1.0000 0.38870  0.57300  0.64590  Biso   1.000  C
  H6       1.0000 0.41570  0.59750  0.69770  Biso   1.000  H
  C13      1.0000 0.42840  0.51130  0.61810  Biso   1.000  C
  H7       1.0000 0.48040  0.49500  0.65130  Biso   1.000  H
  C14      1.0000 0.20660  0.49060  0.19650  Biso   1.000  C
  H8       1.0000 0.23670  0.51810  0.16710  Biso   1.000  H
  C15      1.0000 0.17710  0.52710  0.25420  Biso   1.000  C
  H9       1.0000 0.18340  0.58270  0.27180  Biso   1.000  H
  C16      1.0000 0.14490  0.39640  0.24040  Biso   1.000  C
  H10      1.0000 0.12370  0.34460  0.24860  Biso   1.000  H
  C17      1.0000 0.09650  0.47470  0.34380  Biso   1.000  C
  C18      1.0000 0.09570  0.41180  0.39680  Biso   1.000  C
  H11      1.0000 0.12110  0.36120  0.39260  Biso   1.000  H
  C19      1.0000 0.05730  0.42150  0.45800  Biso   1.000  C
  H12      1.0000 0.05720  0.37690  0.49370  Biso   1.000  H
  C20      1.0000 0.02020  0.49420  0.46700  Biso   1.000  C
  C21      1.0000 0.01990  0.55550  0.41060  Biso   1.000  C
  H13      1.0000 0.99270  0.60530  0.41300  Biso   1.000  H
  C22      1.0000 0.05780  0.54720  0.35050  Biso   1.000  C
  H14      1.0000 0.05700  0.59140  0.31410  Biso   1.000  H
  N1       1.0000 0.31420  0.60080  0.60460  Biso   1.000  N
  N2       1.0000 0.18600  0.40850  0.18800  Biso   1.000  N
  N3       1.0000 0.13650  0.46590  0.28090  Biso   1.000  N
  Ni1      1.0000 0.24760  0.31315  0.14850  Biso   1.000  Ni
  O1       1.0000 0.31730  0.31100  0.27022  Biso   1.000  O
  O2       1.0000 0.42120  0.22760  0.27380  Biso   1.000  O
  O3       1.0000 0.65670  0.21480  0.53413  Biso   1.000  O
  O4       1.0000 0.65150  0.27680  0.64935  Biso   1.000  O
  C23      1.0000 0.88710  0.77980  0.30540  Biso   1.000  C
  C24      1.0000 0.93030  0.81150  0.39270  Biso   1.000  C
  C25      1.0000 0.00480  0.77950  0.43940  Biso   1.000  C
  H15      1.0000 0.02980  0.73910  0.41590  Biso   1.000  H
  C26      1.0000 0.04340  0.80650  0.52110  Biso   1.000  C
  C27      1.0000 0.00710  0.86920  0.55500  Biso   1.000  C
  H16      1.0000 0.03280  0.88750  0.60980  Biso   1.000  H
  C28      1.0000 0.93300  0.90480  0.50840  Biso   1.000  C
  C29      1.0000 0.89550  0.87400  0.42740  Biso   1.000  C
  H17      1.0000 0.84540  0.89630  0.39570  Biso   1.000  H
  C30      1.0000 0.12190  0.76440  0.57110  Biso   1.000  C
  C31      1.0000 0.89390  0.97330  0.54300  Biso   1.000  C
  C32      1.0000 0.81790  0.00220  0.50090  Biso   1.000  C
  H18      1.0000 0.78940  0.97860  0.44910  Biso   1.000  H
  C33      1.0000 0.78220  0.06480  0.53260  Biso   1.000  C
  H19      1.0000 0.73080  0.08300  0.49970  Biso   1.000  H
  C34      1.0000 0.88870  0.07300  0.64590  Biso   1.000  C
  H20      1.0000 0.91570  0.09750  0.69770  Biso   1.000  H
  C35      1.0000 0.92840  0.01130  0.61810  Biso   1.000  C
  H21      1.0000 0.98040  0.99500  0.65130  Biso   1.000  H
  C36      1.0000 0.70660  0.99060  0.19650  Biso   1.000  C
  H22      1.0000 0.73670  0.01810  0.16710  Biso   1.000  H
  C37      1.0000 0.67710  0.02710  0.25420  Biso   1.000  C
  H23      1.0000 0.68340  0.08270  0.27180  Biso   1.000  H
  C38      1.0000 0.64490  0.89640  0.24040  Biso   1.000  C
  H24      1.0000 0.62370  0.84460  0.24860  Biso   1.000  H
  C39      1.0000 0.59650  0.97470  0.34380  Biso   1.000  C
  C40      1.0000 0.59570  0.91180  0.39680  Biso   1.000  C
  H25      1.0000 0.62110  0.86120  0.39260  Biso   1.000  H
  C41      1.0000 0.55730  0.92150  0.45800  Biso   1.000  C
  H26      1.0000 0.55720  0.87690  0.49370  Biso   1.000  H
  C42      1.0000 0.52020  0.99420  0.46700  Biso   1.000  C
  C43      1.0000 0.51990  0.05550  0.41060  Biso   1.000  C
  H27      1.0000 0.49270  0.10530  0.41300  Biso   1.000  H
  C44      1.0000 0.55780  0.04720  0.35050  Biso   1.000  C
  H28      1.0000 0.55700  0.09140  0.31410  Biso   1.000  H
  N4       1.0000 0.81420  0.10080  0.60460  Biso   1.000  N
  N5       1.0000 0.68600  0.90850  0.18800  Biso   1.000  N
  N6       1.0000 0.63650  0.96590  0.28090  Biso   1.000  N
  Ni2      1.0000 0.74760  0.81315  0.14850  Biso   1.000  Ni
  O5       1.0000 0.81730  0.81100  0.27022  Biso   1.000  O
  O6       1.0000 0.92120  0.72760  0.27380  Biso   1.000  O
  O7       1.0000 0.15670  0.71480  0.53413  Biso   1.000  O
  O8       1.0000 0.15150  0.77680  0.64935  Biso   1.000  O
  C45      1.0000 0.61290  0.27980  0.19460  Biso   1.000  C
  C46      1.0000 0.56970  0.31150  0.10730  Biso   1.000  C
  C47      1.0000 0.49520  0.27950  0.06060  Biso   1.000  C
  H29      1.0000 0.47020  0.23910  0.08410  Biso   1.000  H
  C48      1.0000 0.45660  0.30650  0.97890  Biso   1.000  C
  C49      1.0000 0.49290  0.36920  0.94500  Biso   1.000  C
  H30      1.0000 0.46720  0.38750  0.89020  Biso   1.000  H
  C50      1.0000 0.56700  0.40480  0.99160  Biso   1.000  C
  C51      1.0000 0.60450  0.37400  0.07260  Biso   1.000  C
  H31      1.0000 0.65460  0.39630  0.10430  Biso   1.000  H
  C52      1.0000 0.37810  0.26440  0.92890  Biso   1.000  C
  C53      1.0000 0.60610  0.47330  0.95700  Biso   1.000  C
  C54      1.0000 0.68210  0.50220  0.99910  Biso   1.000  C
  H32      1.0000 0.71060  0.47860  0.05090  Biso   1.000  H
  C55      1.0000 0.71780  0.56480  0.96740  Biso   1.000  C
  H33      1.0000 0.76920  0.58300  0.00030  Biso   1.000  H
  C56      1.0000 0.61130  0.57300  0.85410  Biso   1.000  C
  H34      1.0000 0.58430  0.59750  0.80230  Biso   1.000  H
  C57      1.0000 0.57160  0.51130  0.88190  Biso   1.000  C
  H35      1.0000 0.51960  0.49500  0.84870  Biso   1.000  H
  C58      1.0000 0.79340  0.49060  0.30350  Biso   1.000  C
  H36      1.0000 0.76330  0.51810  0.33290  Biso   1.000  H
  C59      1.0000 0.82290  0.52710  0.24580  Biso   1.000  C
  H37      1.0000 0.81660  0.58270  0.22820  Biso   1.000  H
  C60      1.0000 0.85510  0.39640  0.25960  Biso   1.000  C
  H38      1.0000 0.87630  0.34460  0.25140  Biso   1.000  H
  C61      1.0000 0.90350  0.47470  0.15620  Biso   1.000  C
  C62      1.0000 0.90430  0.41180  0.10320  Biso   1.000  C
  H39      1.0000 0.87890  0.36120  0.10740  Biso   1.000  H
  C63      1.0000 0.94270  0.42150  0.04200  Biso   1.000  C
  H40      1.0000 0.94280  0.37690  0.00630  Biso   1.000  H
  C64      1.0000 0.97980  0.49420  0.03300  Biso   1.000  C
  C65      1.0000 0.98010  0.55550  0.08940  Biso   1.000  C
  H41      1.0000 0.00730  0.60530  0.08700  Biso   1.000  H
  C66      1.0000 0.94220  0.54720  0.14950  Biso   1.000  C
  H42      1.0000 0.94300  0.59140  0.18590  Biso   1.000  H
  N7       1.0000 0.68580  0.60080  0.89540  Biso   1.000  N
  N8       1.0000 0.81400  0.40850  0.31200  Biso   1.000  N
  N9       1.0000 0.86350  0.46590  0.21910  Biso   1.000  N
  Ni3      1.0000 0.75240  0.31315  0.35150  Biso   1.000  Ni
  O9       1.0000 0.68270  0.31100  0.22978  Biso   1.000  O
  O10      1.0000 0.57880  0.22760  0.22620  Biso   1.000  O
  O11      1.0000 0.34330  0.21480  0.96587  Biso   1.000  O
  O12      1.0000 0.34850  0.27680  0.85065  Biso   1.000  O
  C67      1.0000 0.11290  0.77980  0.19460  Biso   1.000  C
  C68      1.0000 0.06970  0.81150  0.10730  Biso   1.000  C
  C69      1.0000 0.99520  0.77950  0.06060  Biso   1.000  C
  H43      1.0000 0.97020  0.73910  0.08410  Biso   1.000  H
  C70      1.0000 0.95660  0.80650  0.97890  Biso   1.000  C
  C71      1.0000 0.99290  0.86920  0.94500  Biso   1.000  C
  H44      1.0000 0.96720  0.88750  0.89020  Biso   1.000  H
  C72      1.0000 0.06700  0.90480  0.99160  Biso   1.000  C
  C73      1.0000 0.10450  0.87400  0.07260  Biso   1.000  C
  H45      1.0000 0.15460  0.89630  0.10430  Biso   1.000  H
  C74      1.0000 0.87810  0.76440  0.92890  Biso   1.000  C
  C75      1.0000 0.10610  0.97330  0.95700  Biso   1.000  C
  C76      1.0000 0.18210  0.00220  0.99910  Biso   1.000  C
  H46      1.0000 0.21060  0.97860  0.05090  Biso   1.000  H
  C77      1.0000 0.21780  0.06480  0.96740  Biso   1.000  C
  H47      1.0000 0.26920  0.08300  0.00030  Biso   1.000  H
  C78      1.0000 0.11130  0.07300  0.85410  Biso   1.000  C
  H48      1.0000 0.08430  0.09750  0.80230  Biso   1.000  H
  C79      1.0000 0.07160  0.01130  0.88190  Biso   1.000  C
  H49      1.0000 0.01960  0.99500  0.84870  Biso   1.000  H
  C80      1.0000 0.29340  0.99060  0.30350  Biso   1.000  C
  H50      1.0000 0.26330  0.01810  0.33290  Biso   1.000  H
  C81      1.0000 0.32290  0.02710  0.24580  Biso   1.000  C
  H51      1.0000 0.31660  0.08270  0.22820  Biso   1.000  H
  C82      1.0000 0.35510  0.89640  0.25960  Biso   1.000  C
  H52      1.0000 0.37630  0.84460  0.25140  Biso   1.000  H
  C83      1.0000 0.40350  0.97470  0.15620  Biso   1.000  C
  C84      1.0000 0.40430  0.91180  0.10320  Biso   1.000  C
  H53      1.0000 0.37890  0.86120  0.10740  Biso   1.000  H
  C85      1.0000 0.44270  0.92150  0.04200  Biso   1.000  C
  H54      1.0000 0.44280  0.87690  0.00630  Biso   1.000  H
  C86      1.0000 0.47980  0.99420  0.03300  Biso   1.000  C
  C87      1.0000 0.48010  0.05550  0.08940  Biso   1.000  C
  H55      1.0000 0.50730  0.10530  0.08700  Biso   1.000  H
  C88      1.0000 0.44220  0.04720  0.14950  Biso   1.000  C
  H56      1.0000 0.44300  0.09140  0.18590  Biso   1.000  H
  N10      1.0000 0.18580  0.10080  0.89540  Biso   1.000  N
  N11      1.0000 0.31400  0.90850  0.31200  Biso   1.000  N
  N12      1.0000 0.36350  0.96590  0.21910  Biso   1.000  N
  Ni4      1.0000 0.25240  0.81315  0.35150  Biso   1.000  Ni
  O13      1.0000 0.18270  0.81100  0.22978  Biso   1.000  O
  O14      1.0000 0.07880  0.72760  0.22620  Biso   1.000  O
  O15      1.0000 0.84330  0.71480  0.96587  Biso   1.000  O
  O16      1.0000 0.84850  0.77680  0.85065  Biso   1.000  O
  C89      1.0000 0.61290  0.72020  0.69460  Biso   1.000  C
  C90      1.0000 0.56970  0.68850  0.60730  Biso   1.000  C
  C91      1.0000 0.49520  0.72050  0.56060  Biso   1.000  C
  H57      1.0000 0.47020  0.76090  0.58410  Biso   1.000  H
  C92      1.0000 0.45660  0.69350  0.47890  Biso   1.000  C
  C93      1.0000 0.49290  0.63080  0.44500  Biso   1.000  C
  H58      1.0000 0.46720  0.61250  0.39020  Biso   1.000  H
  C94      1.0000 0.56700  0.59520  0.49160  Biso   1.000  C
  C95      1.0000 0.60450  0.62600  0.57260  Biso   1.000  C
  H59      1.0000 0.65460  0.60370  0.60430  Biso   1.000  H
  C96      1.0000 0.37810  0.73560  0.42890  Biso   1.000  C
  C97      1.0000 0.60610  0.52670  0.45700  Biso   1.000  C
  C98      1.0000 0.68210  0.49780  0.49910  Biso   1.000  C
  H60      1.0000 0.71060  0.52140  0.55090  Biso   1.000  H
  C99      1.0000 0.71780  0.43520  0.46740  Biso   1.000  C
  H61      1.0000 0.76920  0.41700  0.50030  Biso   1.000  H
  C100     1.0000 0.61130  0.42700  0.35410  Biso   1.000  C
  H62      1.0000 0.58430  0.40250  0.30230  Biso   1.000  H
  C101     1.0000 0.57160  0.48870  0.38190  Biso   1.000  C
  H63      1.0000 0.51960  0.50500  0.34870  Biso   1.000  H
  C102     1.0000 0.79340  0.50940  0.80350  Biso   1.000  C
  H64      1.0000 0.76330  0.48190  0.83290  Biso   1.000  H
  C103     1.0000 0.82290  0.47290  0.74580  Biso   1.000  C
  H65      1.0000 0.81660  0.41730  0.72820  Biso   1.000  H
  C104     1.0000 0.85510  0.60360  0.75960  Biso   1.000  C
  H66      1.0000 0.87630  0.65540  0.75140  Biso   1.000  H
  C105     1.0000 0.90350  0.52530  0.65620  Biso   1.000  C
  C106     1.0000 0.90430  0.58820  0.60320  Biso   1.000  C
  H67      1.0000 0.87890  0.63880  0.60740  Biso   1.000  H
  C107     1.0000 0.94270  0.57850  0.54200  Biso   1.000  C
  H68      1.0000 0.94280  0.62310  0.50630  Biso   1.000  H
  C108     1.0000 0.97980  0.50580  0.53300  Biso   1.000  C
  C109     1.0000 0.98010  0.44450  0.58940  Biso   1.000  C
  H69      1.0000 0.00730  0.39470  0.58700  Biso   1.000  H
  C110     1.0000 0.94220  0.45280  0.64950  Biso   1.000  C
  H70      1.0000 0.94300  0.40860  0.68590  Biso   1.000  H
  N13      1.0000 0.68580  0.39920  0.39540  Biso   1.000  N
  N14      1.0000 0.81400  0.59150  0.81200  Biso   1.000  N
  N15      1.0000 0.86350  0.53410  0.71910  Biso   1.000  N
  Ni5      1.0000 0.75240  0.68685  0.85150  Biso   1.000  Ni
  O17      1.0000 0.68270  0.68900  0.72978  Biso   1.000  O
  O18      1.0000 0.57880  0.77240  0.72620  Biso   1.000  O
  O19      1.0000 0.34330  0.78520  0.46587  Biso   1.000  O
  O20      1.0000 0.34850  0.72320  0.35065  Biso   1.000  O
  C111     1.0000 0.11290  0.22020  0.69460  Biso   1.000  C
  C112     1.0000 0.06970  0.18850  0.60730  Biso   1.000  C
  C113     1.0000 0.99520  0.22050  0.56060  Biso   1.000  C
  H71      1.0000 0.97020  0.26090  0.58410  Biso   1.000  H
  C114     1.0000 0.95660  0.19350  0.47890  Biso   1.000  C
  C115     1.0000 0.99290  0.13080  0.44500  Biso   1.000  C
  H72      1.0000 0.96720  0.11250  0.39020  Biso   1.000  H
  C116     1.0000 0.06700  0.09520  0.49160  Biso   1.000  C
  C117     1.0000 0.10450  0.12600  0.57260  Biso   1.000  C
  H73      1.0000 0.15460  0.10370  0.60430  Biso   1.000  H
  C118     1.0000 0.87810  0.23560  0.42890  Biso   1.000  C
  C119     1.0000 0.10610  0.02670  0.45700  Biso   1.000  C
  C120     1.0000 0.18210  0.99780  0.49910  Biso   1.000  C
  H74      1.0000 0.21060  0.02140  0.55090  Biso   1.000  H
  C121     1.0000 0.21780  0.93520  0.46740  Biso   1.000  C
  H75      1.0000 0.26920  0.91700  0.50030  Biso   1.000  H
  C122     1.0000 0.11130  0.92700  0.35410  Biso   1.000  C
  H76      1.0000 0.08430  0.90250  0.30230  Biso   1.000  H
  C123     1.0000 0.07160  0.98870  0.38190  Biso   1.000  C
  H77      1.0000 0.01960  0.00500  0.34870  Biso   1.000  H
  C124     1.0000 0.29340  0.00940  0.80350  Biso   1.000  C
  H78      1.0000 0.26330  0.98190  0.83290  Biso   1.000  H
  C125     1.0000 0.32290  0.97290  0.74580  Biso   1.000  C
  H79      1.0000 0.31660  0.91730  0.72820  Biso   1.000  H
  C126     1.0000 0.35510  0.10360  0.75960  Biso   1.000  C
  H80      1.0000 0.37630  0.15540  0.75140  Biso   1.000  H
  C127     1.0000 0.40350  0.02530  0.65620  Biso   1.000  C
  C128     1.0000 0.40430  0.08820  0.60320  Biso   1.000  C
  H81      1.0000 0.37890  0.13880  0.60740  Biso   1.000  H
  C129     1.0000 0.44270  0.07850  0.54200  Biso   1.000  C
  H82      1.0000 0.44280  0.12310  0.50630  Biso   1.000  H
  C130     1.0000 0.47980  0.00580  0.53300  Biso   1.000  C
  C131     1.0000 0.48010  0.94450  0.58940  Biso   1.000  C
  H83      1.0000 0.50730  0.89470  0.58700  Biso   1.000  H
  C132     1.0000 0.44220  0.95280  0.64950  Biso   1.000  C
  H84      1.0000 0.44300  0.90860  0.68590  Biso   1.000  H
  N16      1.0000 0.18580  0.89920  0.39540  Biso   1.000  N
  N17      1.0000 0.31400  0.09150  0.81200  Biso   1.000  N
  N18      1.0000 0.36350  0.03410  0.71910  Biso   1.000  N
  Ni6      1.0000 0.25240  0.18685  0.85150  Biso   1.000  Ni
  O21      1.0000 0.18270  0.18900  0.72978  Biso   1.000  O
  O22      1.0000 0.07880  0.27240  0.72620  Biso   1.000  O
  O23      1.0000 0.84330  0.28520  0.46587  Biso   1.000  O
  O24      1.0000 0.84850  0.22320  0.35065  Biso   1.000  O
  C133     1.0000 0.38710  0.72020  0.80540  Biso   1.000  C
  C134     1.0000 0.43030  0.68850  0.89270  Biso   1.000  C
  C135     1.0000 0.50480  0.72050  0.93940  Biso   1.000  C
  H85      1.0000 0.52980  0.76090  0.91590  Biso   1.000  H
  C136     1.0000 0.54340  0.69350  0.02110  Biso   1.000  C
  C137     1.0000 0.50710  0.63080  0.05500  Biso   1.000  C
  H86      1.0000 0.53280  0.61250  0.10980  Biso   1.000  H
  C138     1.0000 0.43300  0.59520  0.00840  Biso   1.000  C
  C139     1.0000 0.39550  0.62600  0.92740  Biso   1.000  C
  H87      1.0000 0.34540  0.60370  0.89570  Biso   1.000  H
  C140     1.0000 0.62190  0.73560  0.07110  Biso   1.000  C
  C141     1.0000 0.39390  0.52670  0.04300  Biso   1.000  C
  C142     1.0000 0.31790  0.49780  0.00090  Biso   1.000  C
  H88      1.0000 0.28940  0.52140  0.94910  Biso   1.000  H
  C143     1.0000 0.28220  0.43520  0.03260  Biso   1.000  C
  H89      1.0000 0.23080  0.41700  0.99970  Biso   1.000  H
  C144     1.0000 0.38870  0.42700  0.14590  Biso   1.000  C
  H90      1.0000 0.41570  0.40250  0.19770  Biso   1.000  H
  C145     1.0000 0.42840  0.48870  0.11810  Biso   1.000  C
  H91      1.0000 0.48040  0.50500  0.15130  Biso   1.000  H
  C146     1.0000 0.20660  0.50940  0.69650  Biso   1.000  C
  H92      1.0000 0.23670  0.48190  0.66710  Biso   1.000  H
  C147     1.0000 0.17710  0.47290  0.75420  Biso   1.000  C
  H93      1.0000 0.18340  0.41730  0.77180  Biso   1.000  H
  C148     1.0000 0.14490  0.60360  0.74040  Biso   1.000  C
  H94      1.0000 0.12370  0.65540  0.74860  Biso   1.000  H
  C149     1.0000 0.09650  0.52530  0.84380  Biso   1.000  C
  C150     1.0000 0.09570  0.58820  0.89680  Biso   1.000  C
  H95      1.0000 0.12110  0.63880  0.89260  Biso   1.000  H
  C151     1.0000 0.05730  0.57850  0.95800  Biso   1.000  C
  H96      1.0000 0.05720  0.62310  0.99370  Biso   1.000  H
  C152     1.0000 0.02020  0.50580  0.96700  Biso   1.000  C
  C153     1.0000 0.01990  0.44450  0.91060  Biso   1.000  C
  H97      1.0000 0.99270  0.39470  0.91300  Biso   1.000  H
  C154     1.0000 0.05780  0.45280  0.85050  Biso   1.000  C
  H98      1.0000 0.05700  0.40860  0.81410  Biso   1.000  H
  N19      1.0000 0.31420  0.39920  0.10460  Biso   1.000  N
  N20      1.0000 0.18600  0.59150  0.68800  Biso   1.000  N
  N21      1.0000 0.13650  0.53410  0.78090  Biso   1.000  N
  Ni7      1.0000 0.24760  0.68685  0.64850  Biso   1.000  Ni
  O25      1.0000 0.31730  0.68900  0.77022  Biso   1.000  O
  O26      1.0000 0.42120  0.77240  0.77380  Biso   1.000  O
  O27      1.0000 0.65670  0.78520  0.03413  Biso   1.000  O
  O28      1.0000 0.65150  0.72320  0.14935  Biso   1.000  O
  C155     1.0000 0.88710  0.22020  0.80540  Biso   1.000  C
  C156     1.0000 0.93030  0.18850  0.89270  Biso   1.000  C
  C157     1.0000 0.00480  0.22050  0.93940  Biso   1.000  C
  H99      1.0000 0.02980  0.26090  0.91590  Biso   1.000  H
  C158     1.0000 0.04340  0.19350  0.02110  Biso   1.000  C
  C159     1.0000 0.00710  0.13080  0.05500  Biso   1.000  C
  H100     1.0000 0.03280  0.11250  0.10980  Biso   1.000  H
  C160     1.0000 0.93300  0.09520  0.00840  Biso   1.000  C
  C161     1.0000 0.89550  0.12600  0.92740  Biso   1.000  C
  H101     1.0000 0.84540  0.10370  0.89570  Biso   1.000  H
  C162     1.0000 0.12190  0.23560  0.07110  Biso   1.000  C
  C163     1.0000 0.89390  0.02670  0.04300  Biso   1.000  C
  C164     1.0000 0.81790  0.99780  0.00090  Biso   1.000  C
  H102     1.0000 0.78940  0.02140  0.94910  Biso   1.000  H
  C165     1.0000 0.78220  0.93520  0.03260  Biso   1.000  C
  H103     1.0000 0.73080  0.91700  0.99970  Biso   1.000  H
  C166     1.0000 0.88870  0.92700  0.14590  Biso   1.000  C
  H104     1.0000 0.91570  0.90250  0.19770  Biso   1.000  H
  C167     1.0000 0.92840  0.98870  0.11810  Biso   1.000  C
  H105     1.0000 0.98040  0.00500  0.15130  Biso   1.000  H
  C168     1.0000 0.70660  0.00940  0.69650  Biso   1.000  C
  H106     1.0000 0.73670  0.98190  0.66710  Biso   1.000  H
  C169     1.0000 0.67710  0.97290  0.75420  Biso   1.000  C
  H107     1.0000 0.68340  0.91730  0.77180  Biso   1.000  H
  C170     1.0000 0.64490  0.10360  0.74040  Biso   1.000  C
  H108     1.0000 0.62370  0.15540  0.74860  Biso   1.000  H
  C171     1.0000 0.59650  0.02530  0.84380  Biso   1.000  C
  C172     1.0000 0.59570  0.08820  0.89680  Biso   1.000  C
  H109     1.0000 0.62110  0.13880  0.89260  Biso   1.000  H
  C173     1.0000 0.55730  0.07850  0.95800  Biso   1.000  C
  H110     1.0000 0.55720  0.12310  0.99370  Biso   1.000  H
  C174     1.0000 0.52020  0.00580  0.96700  Biso   1.000  C
  C175     1.0000 0.51990  0.94450  0.91060  Biso   1.000  C
  H111     1.0000 0.49270  0.89470  0.91300  Biso   1.000  H
  C176     1.0000 0.55780  0.95280  0.85050  Biso   1.000  C
  H112     1.0000 0.55700  0.90860  0.81410  Biso   1.000  H
  N22      1.0000 0.81420  0.89920  0.10460  Biso   1.000  N
  N23      1.0000 0.68600  0.09150  0.68800  Biso   1.000  N
  N24      1.0000 0.63650  0.03410  0.78090  Biso   1.000  N
  Ni8      1.0000 0.74760  0.18685  0.64850  Biso   1.000  Ni
  O29      1.0000 0.81730  0.18900  0.77022  Biso   1.000  O
  O30      1.0000 0.92120  0.27240  0.77380  Biso   1.000  O
  O31      1.0000 0.15670  0.28520  0.03413  Biso   1.000  O
  O32      1.0000 0.15150  0.22320  0.14935  Biso   1.000  O
