data_image0
_cell_length_a       8.497
_cell_length_b       9.167
_cell_length_c       12.57
_cell_angle_alpha    90
_cell_angle_beta     90
_cell_angle_gamma    90

_symmetry_space_group_name_H-M    "P 1"
_symmetry_int_tables_number       1

loop_
  _symmetry_equiv_pos_as_xyz
  'x, y, z'

loop_
  _atom_site_label
  _atom_site_occupancy
  _atom_site_fract_x
  _atom_site_fract_y
  _atom_site_fract_z
  _atom_site_thermal_displace_type
  _atom_site_B_iso_or_equiv
  _atom_site_type_symbol
  C1       1.0000 0.51850  0.44530  0.97900  Biso   1.000  C
  C2       1.0000 0.98150  0.55470  0.47900  Biso   1.000  C
  C3       1.0000 0.48150  0.94530  0.02100  Biso   1.000  C
  C4       1.0000 0.01850  0.05470  0.52100  Biso   1.000  C
  C5       1.0000 0.48150  0.55470  0.02100  Biso   1.000  C
  C6       1.0000 0.01850  0.44530  0.52100  Biso   1.000  C
  C7       1.0000 0.51850  0.05470  0.97900  Biso   1.000  C
  C8       1.0000 0.98150  0.94530  0.47900  Biso   1.000  C
  Cd1      1.0000 0.59360  0.25000  0.89560  Biso   1.000  Cd
  C9       1.0000 0.38660  0.25000  0.77850  Biso   1.000  C
  C10      1.0000 0.78640  0.25000  0.78200  Biso   1.000  C
  Cd2      1.0000 0.90640  0.75000  0.39560  Biso   1.000  Cd
  C11      1.0000 0.11340  0.75000  0.27850  Biso   1.000  C
  C12      1.0000 0.71360  0.75000  0.28200  Biso   1.000  C
  Cd3      1.0000 0.40640  0.75000  0.10440  Biso   1.000  Cd
  C13      1.0000 0.61340  0.75000  0.22150  Biso   1.000  C
  C14      1.0000 0.21360  0.75000  0.21800  Biso   1.000  C
  Cd4      1.0000 0.09360  0.25000  0.60440  Biso   1.000  Cd
  C15      1.0000 0.88660  0.25000  0.72150  Biso   1.000  C
  C16      1.0000 0.28640  0.25000  0.71800  Biso   1.000  C
