data_GITPIK_clean
_audit_creation_date              2015-10-16
_audit_creation_method            'Materials Studio'
_symmetry_space_group_name_H-M    'P1'
_symmetry_Int_Tables_number       1
_symmetry_cell_setting            triclinic
loop_
_symmetry_equiv_pos_as_xyz
  x,y,z
_cell_length_a                    7.3171
_cell_length_b                    15.2173
_cell_length_c                    35.7570
_cell_angle_alpha                 98.5021
_cell_angle_beta                  90.0000
_cell_angle_gamma                 103.9110
loop_
_atom_site_label
_atom_site_type_symbol
_atom_site_fract_x
_atom_site_fract_y
_atom_site_fract_z
_atom_site_U_iso_or_equiv
_atom_site_adp_type
_atom_site_occupancy
Zn1    Zn    0.10257   0.09530   0.78154   0.01267  Uiso   1.00
Zn2    Zn    0.75245   0.58064   0.18466   0.01267  Uiso   1.00
Zn3    Zn    0.82819   0.58064   0.68466   0.01267  Uiso   1.00
Zn4    Zn    0.00727   0.90470   0.71846   0.01267  Uiso   1.00
Zn5    Zn    0.99273   0.09530   0.28154   0.01267  Uiso   1.00
Zn6    Zn    0.89743   0.90470   0.21846   0.01267  Uiso   1.00
Zn7    Zn    0.24755   0.41936   0.81534   0.01267  Uiso   1.00
Zn8    Zn    0.17181   0.41936   0.31534   0.01267  Uiso   1.00
H1     H     0.00040   0.73060   0.79800   0.01267  Uiso   1.00
H2     H     0.49160   0.27100   0.35790   0.01267  Uiso   1.00
H3     H     0.26040   0.13440   0.57740   0.01267  Uiso   1.00
H4     H     0.37230   0.63180   0.68380   0.01267  Uiso   1.00
H5     H     0.99140   0.56360   0.41300   0.01267  Uiso   1.00
H6     H     0.38630   0.35840   0.65650   0.01267  Uiso   1.00
H7     H     0.97210   0.35840   0.15650   0.01267  Uiso   1.00
H8     H     0.22060   0.72900   0.14210   0.01267  Uiso   1.00
H9     H     0.12600   0.86560   0.92260   0.01267  Uiso   1.00
H10    H     0.75260   0.60000   0.52380   0.01267  Uiso   1.00
H11    H     0.26980   0.26940   0.70200   0.01267  Uiso   1.00
H12    H     0.99960   0.26940   0.20200   0.01267  Uiso   1.00
H13    H     0.25940   0.54460   0.15460   0.01267  Uiso   1.00
H14    H     0.41100   0.27160   0.56080   0.01267  Uiso   1.00
H15    H     0.68540   0.71160   0.62030   0.01267  Uiso   1.00
H16    H     0.58900   0.72840   0.43920   0.01267  Uiso   1.00
H17    H     0.67040   0.36360   0.49080   0.01267  Uiso   1.00
H18    H     0.73960   0.86560   0.42260   0.01267  Uiso   1.00
H19    H     0.10980   0.37980   0.52960   0.01267  Uiso   1.00
H20    H     0.02620   0.71160   0.12030   0.01267  Uiso   1.00
H21    H     0.50840   0.72900   0.64210   0.01267  Uiso   1.00
H22    H     0.15260   0.40000   0.97620   0.01267  Uiso   1.00
H23    H     0.89200   0.04580   0.12350   0.01267  Uiso   1.00
H24    H     0.27000   0.37980   0.02960   0.01267  Uiso   1.00
H25    H     0.57220   0.56360   0.91300   0.01267  Uiso   1.00
H26    H     0.32960   0.63640   0.50920   0.01267  Uiso   1.00
H27    H     0.73020   0.73060   0.29800   0.01267  Uiso   1.00
H28    H     0.61370   0.64160   0.34350   0.01267  Uiso   1.00
H29    H     0.76900   0.30800   0.43250   0.01267  Uiso   1.00
H30    H     0.42780   0.43640   0.08700   0.01267  Uiso   1.00
H31    H     0.74060   0.45540   0.84540   0.01267  Uiso   1.00
H32    H     0.24740   0.40000   0.47620   0.01267  Uiso   1.00
H33    H     0.84620   0.95420   0.37650   0.01267  Uiso   1.00
H34    H     0.87400   0.13440   0.07740   0.01267  Uiso   1.00
H35    H     0.13940   0.72840   0.93920   0.01267  Uiso   1.00
H36    H     0.10800   0.95420   0.87650   0.01267  Uiso   1.00
H37    H     0.71480   0.45540   0.34540   0.01267  Uiso   1.00
H38    H     0.53900   0.30800   0.93250   0.01267  Uiso   1.00
H39    H     0.30680   0.63640   0.00920   0.01267  Uiso   1.00
H40    H     0.74050   0.36820   0.81620   0.01267  Uiso   1.00
H41    H     0.15380   0.04580   0.62350   0.01267  Uiso   1.00
H42    H     0.73000   0.62020   0.97040   0.01267  Uiso   1.00
H43    H     0.31460   0.28840   0.37970   0.01267  Uiso   1.00
H44    H     0.89020   0.62020   0.47040   0.01267  Uiso   1.00
H45    H     0.86060   0.27160   0.06080   0.01267  Uiso   1.00
H46    H     0.46100   0.69200   0.06750   0.01267  Uiso   1.00
H47    H     0.77940   0.27100   0.85790   0.01267  Uiso   1.00
H48    H     0.25950   0.63180   0.18380   0.01267  Uiso   1.00
H49    H     0.23100   0.69200   0.56750   0.01267  Uiso   1.00
H50    H     0.97380   0.28840   0.87970   0.01267  Uiso   1.00
H51    H     0.28520   0.54460   0.65460   0.01267  Uiso   1.00
H52    H     0.69320   0.36360   0.99080   0.01267  Uiso   1.00
H53    H     0.00860   0.43640   0.58700   0.01267  Uiso   1.00
H54    H     0.02790   0.64160   0.84350   0.01267  Uiso   1.00
H55    H     0.84740   0.60000   0.02380   0.01267  Uiso   1.00
H56    H     0.62770   0.36820   0.31620   0.01267  Uiso   1.00
C1     C     0.25801   0.24862   0.32258   0.01267  Uiso   1.00
C2     C     0.09050   0.89120   0.86979   0.01267  Uiso   1.00
C3     C     0.91354   0.29768   0.85696   0.01267  Uiso   1.00
C4     C     0.26964   0.24188   0.67697   0.01267  Uiso   1.00
C5     C     0.19930   0.10880   0.63021   0.01267  Uiso   1.00
C6     C     0.74199   0.75138   0.67742   0.01267  Uiso   1.00
C7     C     0.77241   0.49802   0.48684   0.01267  Uiso   1.00
C8     C     0.95940   0.09160   0.19827   0.01267  Uiso   1.00
C9     C     0.72561   0.49802   0.98684   0.01267  Uiso   1.00
C10    C     0.38414   0.29768   0.35696   0.01267  Uiso   1.00
C11    C     0.92727   0.52334   0.42849   0.01267  Uiso   1.00
C12    C     0.94770   0.14800   0.16786   0.01267  Uiso   1.00
C13    C     0.09269   0.60358   0.91643   0.01267  Uiso   1.00
C14    C     0.44640   0.45700   0.38857   0.01267  Uiso   1.00
C15    C     0.73482   0.40384   0.47531   0.01267  Uiso   1.00
C16    C     0.86610   0.50760   0.05209   0.01267  Uiso   1.00
C17    C     0.66265   0.74370   0.38808   0.01267  Uiso   1.00
C18    C     0.48911   0.39642   0.58357   0.01267  Uiso   1.00
C19    C     0.08646   0.70232   0.14304   0.01267  Uiso   1.00
C20    C     0.00939   0.75138   0.17742   0.01267  Uiso   1.00
C21    C     0.73036   0.75812   0.32303   0.01267  Uiso   1.00
C22    C     0.17879   0.57698   0.16965   0.01267  Uiso   1.00
C23    C     0.57594   0.37088   0.94031   0.01267  Uiso   1.00
C24    C     0.90950   0.10880   0.13021   0.01267  Uiso   1.00
C25    C     0.10290   0.83820   0.89751   0.01267  Uiso   1.00
C26    C     0.13266   0.44272   0.53707   0.01267  Uiso   1.00
C27    C     0.43533   0.51686   0.69756   0.01267  Uiso   1.00
C28    C     0.02776   0.75812   0.82303   0.01267  Uiso   1.00
C29    C     0.07273   0.47666   0.57151   0.01267  Uiso   1.00
C30    C     0.56741   0.60682   0.12045   0.01267  Uiso   1.00
C31    C     0.79494   0.37088   0.44031   0.01267  Uiso   1.00
C32    C     0.26518   0.59616   0.52469   0.01267  Uiso   1.00
C33    C     0.04309   0.70438   0.85038   0.01267  Uiso   1.00
C34    C     0.89710   0.16180   0.10249   0.01267  Uiso   1.00
C35    C     0.86780   0.90840   0.30173   0.01267  Uiso   1.00
C36    C     0.61586   0.70232   0.64304   0.01267  Uiso   1.00
C37    C     0.27439   0.50198   0.01316   0.01267  Uiso   1.00
C38    C     0.68994   0.55728   0.96293   0.01267  Uiso   1.00
C39    C     0.43259   0.39318   0.87955   0.01267  Uiso   1.00
C40    C     0.53669   0.42918   0.91679   0.01267  Uiso   1.00
C41    C     0.08153   0.51686   0.19756   0.01267  Uiso   1.00
C42    C     0.98940   0.54300   0.11143   0.01267  Uiso   1.00
C43    C     0.66902   0.40384   0.97531   0.01267  Uiso   1.00
C44    C     0.08105   0.74370   0.88808   0.01267  Uiso   1.00
C45    C     0.13390   0.49240   0.94791   0.01267  Uiso   1.00
C46    C     0.10751   0.57082   0.58321   0.01267  Uiso   1.00
C47    C     0.20030   0.14800   0.66786   0.01267  Uiso   1.00
C48    C     0.86734   0.55728   0.46293   0.01267  Uiso   1.00
C49    C     0.91847   0.48314   0.80244   0.01267  Uiso   1.00
C50    C     0.42406   0.62912   0.05969   0.01267  Uiso   1.00
C51    C     0.51089   0.60358   0.41643   0.01267  Uiso   1.00
C52    C     0.33871   0.29562   0.64962   0.01267  Uiso   1.00
C53    C     0.39819   0.57698   0.66965   0.01267  Uiso   1.00
C54    C     0.13220   0.09160   0.69827   0.01267  Uiso   1.00
C55    C     0.97224   0.24188   0.17697   0.01267  Uiso   1.00
C56    C     0.46331   0.57082   0.08321   0.01267  Uiso   1.00
C57    C     0.73530   0.83820   0.39751   0.01267  Uiso   1.00
C58    C     0.80070   0.89120   0.36979   0.01267  Uiso   1.00
C59    C     0.91895   0.25630   0.11192   0.01267  Uiso   1.00
C60    C     0.82121   0.42302   0.83035   0.01267  Uiso   1.00
C61    C     0.89249   0.42918   0.41679   0.01267  Uiso   1.00
C62    C     0.26470   0.16180   0.60249   0.01267  Uiso   1.00
C63    C     0.33735   0.25630   0.61192   0.01267  Uiso   1.00
C64    C     0.95691   0.29562   0.14962   0.01267  Uiso   1.00
C65    C     0.03941   0.60682   0.62045   0.01267  Uiso   1.00
C66    C     0.66129   0.70438   0.35038   0.01267  Uiso   1.00
C67    C     0.55360   0.54300   0.61143   0.01267  Uiso   1.00
C68    C     0.20506   0.62912   0.55969   0.01267  Uiso   1.00
C69    C     0.79970   0.85200   0.33214   0.01267  Uiso   1.00
C70    C     0.05230   0.85200   0.83214   0.01267  Uiso   1.00
C71    C     0.33098   0.59616   0.02469   0.01267  Uiso   1.00
C72    C     0.35850   0.49240   0.44791   0.01267  Uiso   1.00
C73    C     0.64150   0.50760   0.55209   0.01267  Uiso   1.00
C74    C     0.99061   0.24862   0.82258   0.01267  Uiso   1.00
C75    C     0.59607   0.52334   0.92849   0.01267  Uiso   1.00
C76    C     0.96059   0.39318   0.37955   0.01267  Uiso   1.00
C77    C     0.01060   0.45700   0.88857   0.01267  Uiso   1.00
C78    C     0.60181   0.42302   0.33035   0.01267  Uiso   1.00
C79    C     0.56467   0.48314   0.30244   0.01267  Uiso   1.00
C80    C     0.04060   0.90840   0.80173   0.01267  Uiso   1.00
C81    C     0.22759   0.50198   0.51316   0.01267  Uiso   1.00
C82    C     0.40393   0.47666   0.07151   0.01267  Uiso   1.00
C83    C     0.31006   0.44272   0.03707   0.01267  Uiso   1.00
C84    C     0.90731   0.39642   0.08357   0.01267  Uiso   1.00
N1     N     0.94449   0.39518   0.85619   0.01267  Uiso   1.00
N2     N     0.36268   0.42596   0.41845   0.01267  Uiso   1.00
N3     N     0.06328   0.42596   0.91845   0.01267  Uiso   1.00
N4     N     0.52643   0.54526   0.38567   0.01267  Uiso   1.00
N5     N     0.93672   0.57404   0.08155   0.01267  Uiso   1.00
N6     N     0.41292   0.30464   0.58259   0.01267  Uiso   1.00
N7     N     0.27559   0.45878   0.47855   0.01267  Uiso   1.00
N8     N     0.15481   0.58222   0.94858   0.01267  Uiso   1.00
N9     N     0.58708   0.69536   0.41741   0.01267  Uiso   1.00
N10    N     0.10828   0.69536   0.91741   0.01267  Uiso   1.00
N11    N     0.01883   0.54526   0.88567   0.01267  Uiso   1.00
N12    N     0.81681   0.54122   0.02145   0.01267  Uiso   1.00
N13    N     0.47357   0.45474   0.61433   0.01267  Uiso   1.00
N14    N     0.54931   0.60482   0.64381   0.01267  Uiso   1.00
N15    N     0.89172   0.30464   0.08259   0.01267  Uiso   1.00
N16    N     0.42741   0.58222   0.44858   0.01267  Uiso   1.00
N17    N     0.18319   0.45878   0.97855   0.01267  Uiso   1.00
N18    N     0.57259   0.41778   0.55142   0.01267  Uiso   1.00
N19    N     0.84519   0.41778   0.05142   0.01267  Uiso   1.00
N20    N     0.63732   0.57404   0.58155   0.01267  Uiso   1.00
N21    N     0.98117   0.45474   0.11433   0.01267  Uiso   1.00
N22    N     0.45069   0.39518   0.35619   0.01267  Uiso   1.00
N23    N     0.05551   0.60482   0.14381   0.01267  Uiso   1.00
N24    N     0.72441   0.54122   0.52145   0.01267  Uiso   1.00
O1     O     0.00214   0.86648   0.76851   0.01267  Uiso   1.00
O2     O     0.07620   0.00580   0.68823   0.01267  Uiso   1.00
O3     O     0.81513   0.51866   0.78486   0.01267  Uiso   1.00
O4     O     0.92386   0.30992   0.36792   0.01267  Uiso   1.00
O5     O     0.07614   0.69008   0.63208   0.01267  Uiso   1.00
O6     O     0.19285   0.29190   0.30103   0.01267  Uiso   1.00
O7     O     0.78008   0.83816   0.68238   0.01267  Uiso   1.00
O8     O     0.99786   0.13352   0.23149   0.01267  Uiso   1.00
O9     O     0.18487   0.48134   0.21514   0.01267  Uiso   1.00
O10    O     0.05808   0.83816   0.18238   0.01267  Uiso   1.00
O11    O     0.94539   0.54558   0.63884   0.01267  Uiso   1.00
O12    O     0.86434   0.86648   0.26851   0.01267  Uiso   1.00
O13    O     0.09340   0.49480   0.79749   0.01267  Uiso   1.00
O14    O     0.40140   0.49480   0.29749   0.01267  Uiso   1.00
O15    O     0.61394   0.69008   0.13208   0.01267  Uiso   1.00
O16    O     0.39981   0.45442   0.86116   0.01267  Uiso   1.00
O17    O     0.07040   0.99420   0.81177   0.01267  Uiso   1.00
O18    O     0.60019   0.54558   0.13884   0.01267  Uiso   1.00
O19    O     0.92960   0.00580   0.18823   0.01267  Uiso   1.00
O20    O     0.21992   0.16184   0.31762   0.01267  Uiso   1.00
O21    O     0.90660   0.50520   0.20251   0.01267  Uiso   1.00
O22    O     0.13566   0.13352   0.73149   0.01267  Uiso   1.00
O23    O     0.09905   0.29190   0.80103   0.01267  Uiso   1.00
O24    O     0.90095   0.70810   0.19897   0.01267  Uiso   1.00
O25    O     0.70353   0.51866   0.28486   0.01267  Uiso   1.00
O26    O     0.38606   0.30992   0.86792   0.01267  Uiso   1.00
O27    O     0.29647   0.48134   0.71514   0.01267  Uiso   1.00
O28    O     0.80715   0.70810   0.69897   0.01267  Uiso   1.00
O29    O     0.59860   0.50520   0.70251   0.01267  Uiso   1.00
O30    O     0.94192   0.16184   0.81762   0.01267  Uiso   1.00
O31    O     0.92380   0.99420   0.31177   0.01267  Uiso   1.00
O32    O     0.05461   0.45442   0.36116   0.01267  Uiso   1.00
