data_GITTOT_clean5b
_audit_creation_date              2014-07-02
_audit_creation_method            'Materials Studio'
_symmetry_space_group_name_H-M    'P1'
_symmetry_Int_Tables_number       1
_symmetry_cell_setting            triclinic
loop_
_symmetry_equiv_pos_as_xyz
  x,y,z
_cell_length_a                    14.6868
_cell_length_b                    14.6868
_cell_length_c                    14.6868
_cell_angle_alpha                 109.4710
_cell_angle_beta                  109.4710
_cell_angle_gamma                 109.4710
loop_
_atom_site_label
_atom_site_type_symbol
_atom_site_fract_x
_atom_site_fract_y
_atom_site_fract_z
_atom_site_U_iso_or_equiv
_atom_site_adp_type
_atom_site_occupancy
Co1    Co    0.75000   0.25000   0.50000   0.01267  Uiso   1.00
Co2    Co    0.25000   0.75000   0.50000   0.01267  Uiso   1.00
Co3    Co    0.50000   0.25000   0.75000   0.01267  Uiso   1.00
Co4    Co    0.50000   0.75000   0.25000   0.01267  Uiso   1.00
Co5    Co    0.25000   0.50000   0.75000   0.01267  Uiso   1.00
Co6    Co    0.75000   0.50000   0.25000   0.01267  Uiso   1.00
H1     H     0.57397   0.35508   0.47164   0.01267  Uiso   1.00
H2     H     0.88344   0.10233   0.52836   0.01267  Uiso   1.00
H3     H     0.11656   0.64492   0.21889   0.01267  Uiso   1.00
H4     H     0.42603   0.89767   0.78111   0.01267  Uiso   1.00
H5     H     0.21889   0.11656   0.64492   0.01267  Uiso   1.00
H6     H     0.78111   0.42603   0.89767   0.01267  Uiso   1.00
H7     H     0.47164   0.57397   0.35508   0.01267  Uiso   1.00
H8     H     0.52836   0.88344   0.10233   0.01267  Uiso   1.00
H9     H     0.10233   0.52836   0.88344   0.01267  Uiso   1.00
H10    H     0.35508   0.47164   0.57397   0.01267  Uiso   1.00
H11    H     0.89767   0.78111   0.42603   0.01267  Uiso   1.00
H12    H     0.64492   0.21889   0.11656   0.01267  Uiso   1.00
H13    H     0.10233   0.88344   0.52836   0.01267  Uiso   1.00
H14    H     0.35508   0.57397   0.47164   0.01267  Uiso   1.00
H15    H     0.89767   0.42603   0.78111   0.01267  Uiso   1.00
H16    H     0.64492   0.11656   0.21889   0.01267  Uiso   1.00
H17    H     0.57397   0.47164   0.35508   0.01267  Uiso   1.00
H18    H     0.88344   0.52836   0.10233   0.01267  Uiso   1.00
H19    H     0.11656   0.21889   0.64492   0.01267  Uiso   1.00
H20    H     0.42603   0.78111   0.89767   0.01267  Uiso   1.00
H21    H     0.21889   0.64492   0.11656   0.01267  Uiso   1.00
H22    H     0.78111   0.89767   0.42603   0.01267  Uiso   1.00
H23    H     0.47164   0.35508   0.57397   0.01267  Uiso   1.00
H24    H     0.52836   0.10233   0.88344   0.01267  Uiso   1.00
C1     C     0.58550   0.32020   0.53070   0.01267  Uiso   1.00
C2     C     0.78950   0.05480   0.46930   0.01267  Uiso   1.00
C3     C     0.21050   0.67980   0.26530   0.01267  Uiso   1.00
C4     C     0.41450   0.94520   0.73470   0.01267  Uiso   1.00
C5     C     0.26530   0.21050   0.67980   0.01267  Uiso   1.00
C6     C     0.73470   0.41450   0.94520   0.01267  Uiso   1.00
C7     C     0.53070   0.58550   0.32020   0.01267  Uiso   1.00
C8     C     0.46930   0.78950   0.05480   0.01267  Uiso   1.00
C9     C     0.05480   0.46930   0.78950   0.01267  Uiso   1.00
C10    C     0.32020   0.53070   0.58550   0.01267  Uiso   1.00
C11    C     0.94520   0.73470   0.41450   0.01267  Uiso   1.00
C12    C     0.67980   0.26530   0.21050   0.01267  Uiso   1.00
C13    C     0.05480   0.78950   0.46930   0.01267  Uiso   1.00
C14    C     0.32020   0.58550   0.53070   0.01267  Uiso   1.00
C15    C     0.94520   0.41450   0.73470   0.01267  Uiso   1.00
C16    C     0.67980   0.21050   0.26530   0.01267  Uiso   1.00
C17    C     0.58550   0.53070   0.32020   0.01267  Uiso   1.00
C18    C     0.78950   0.46930   0.05480   0.01267  Uiso   1.00
C19    C     0.21050   0.26530   0.67980   0.01267  Uiso   1.00
C20    C     0.41450   0.73470   0.94520   0.01267  Uiso   1.00
C21    C     0.26530   0.67980   0.21050   0.01267  Uiso   1.00
C22    C     0.73470   0.94520   0.41450   0.01267  Uiso   1.00
C23    C     0.53070   0.32020   0.58550   0.01267  Uiso   1.00
C24    C     0.46930   0.05480   0.78950   0.01267  Uiso   1.00
C25    C     0.63000   0.24680   0.63000   0.01267  Uiso   1.00
C26    C     0.67860   0.18860   0.67860   0.01267  Uiso   1.00
C27    C     0.61680   0.00000   0.37000   0.01267  Uiso   1.00
C28    C     0.51000  -0.00000   0.32140   0.01267  Uiso   1.00
C29    C     0.38320   0.75320   0.38320   0.01267  Uiso   1.00
C30    C     0.49000   0.81140   0.49000   0.01267  Uiso   1.00
C31    C     0.37000  -0.00000   0.61680   0.01267  Uiso   1.00
C32    C     0.32140   0.00000   0.51000   0.01267  Uiso   1.00
C33    C     0.38320   0.38320   0.75320   0.01267  Uiso   1.00
C34    C     0.49000   0.49000   0.81140   0.01267  Uiso   1.00
C35    C     0.61680   0.37000   0.00000   0.01267  Uiso   1.00
C36    C     0.51000   0.32140  -0.00000   0.01267  Uiso   1.00
C37    C     0.63000   0.63000   0.24680   0.01267  Uiso   1.00
C38    C     0.67860   0.67860   0.18860   0.01267  Uiso   1.00
C39    C     0.37000   0.61680   0.00000   0.01267  Uiso   1.00
C40    C     0.32140   0.51000  -0.00000   0.01267  Uiso   1.00
C41    C     0.00000   0.37000   0.61680   0.01267  Uiso   1.00
C42    C     0.00000   0.32140   0.51000   0.01267  Uiso   1.00
C43    C     0.24680   0.63000   0.63000   0.01267  Uiso   1.00
C44    C     0.18860   0.67860   0.67860   0.01267  Uiso   1.00
C45    C     0.00000   0.61680   0.37000   0.01267  Uiso   1.00
C46    C     0.00000   0.51000   0.32140   0.01267  Uiso   1.00
C47    C     0.75320   0.38320   0.38320   0.01267  Uiso   1.00
C48    C     0.81140   0.49000   0.49000   0.01267  Uiso   1.00
N1     N     0.65190   0.27350   0.55880   0.01267  Uiso   1.00
N2     N     0.71470   0.09310   0.44120   0.01267  Uiso   1.00
N3     N     0.28530   0.72650   0.37840   0.01267  Uiso   1.00
N4     N     0.34810   0.90690   0.62160   0.01267  Uiso   1.00
N5     N     0.37840   0.28530   0.72650   0.01267  Uiso   1.00
N6     N     0.62160   0.34810   0.90690   0.01267  Uiso   1.00
N7     N     0.55880   0.65190   0.27350   0.01267  Uiso   1.00
N8     N     0.44120   0.71470   0.09310   0.01267  Uiso   1.00
N9     N     0.09310   0.44120   0.71470   0.01267  Uiso   1.00
N10    N     0.27350   0.55880   0.65190   0.01267  Uiso   1.00
N11    N     0.90690   0.62160   0.34810   0.01267  Uiso   1.00
N12    N     0.72650   0.37840   0.28530   0.01267  Uiso   1.00
N13    N     0.09310   0.71470   0.44120   0.01267  Uiso   1.00
N14    N     0.27350   0.65190   0.55880   0.01267  Uiso   1.00
N15    N     0.90690   0.34810   0.62160   0.01267  Uiso   1.00
N16    N     0.72650   0.28530   0.37840   0.01267  Uiso   1.00
N17    N     0.65190   0.55880   0.27350   0.01267  Uiso   1.00
N18    N     0.71470   0.44120   0.09310   0.01267  Uiso   1.00
N19    N     0.28530   0.37840   0.72650   0.01267  Uiso   1.00
N20    N     0.34810   0.62160   0.90690   0.01267  Uiso   1.00
N21    N     0.37840   0.72650   0.28530   0.01267  Uiso   1.00
N22    N     0.62160   0.90690   0.34810   0.01267  Uiso   1.00
N23    N     0.55880   0.27350   0.65190   0.01267  Uiso   1.00
N24    N     0.44120   0.09310   0.71470   0.01267  Uiso   1.00
H25    H     0.73573   0.17368   0.64610   0.01267  Uiso   1.00
H26    H     0.60859   0.10522   0.65348   0.01267  Uiso   1.00
H27    H     0.72864   0.24240   0.77337   0.01267  Uiso   1.00
H28    H     0.43702   0.91427   0.28637   0.01267  Uiso   1.00
H29    H     0.50257   0.02021   0.25164   0.01267  Uiso   1.00
H30    H     0.50876   0.06552   0.38904   0.01267  Uiso   1.00
H31    H     0.55908   0.87359   0.48724   0.01267  Uiso   1.00
H32    H     0.51259   0.74757   0.50211   0.01267  Uiso   1.00
H33    H     0.47998   0.85754   0.56231   0.01267  Uiso   1.00
H34    H     0.30435   0.92212   0.43892   0.01267  Uiso   1.00
H35    H     0.38268   0.07735   0.51644   0.01267  Uiso   1.00
H36    H     0.24002   0.00053   0.49299   0.01267  Uiso   1.00
H37    H     0.49743   0.51764   0.74907   0.01267  Uiso   1.00
H38    H     0.56298   0.47725   0.84935   0.01267  Uiso   1.00
H39    H     0.49124   0.55676   0.88028   0.01267  Uiso   1.00
H40    H     0.48741   0.23498   0.98952   0.01267  Uiso   1.00
H41    H     0.44092   0.31450   0.92815   0.01267  Uiso   1.00
H42    H     0.52002   0.37756   0.08233   0.01267  Uiso   1.00
H43    H     0.61732   0.69468   0.13376   0.01267  Uiso   1.00
H44    H     0.69565   0.61777   0.13457   0.01267  Uiso   1.00
H45    H     0.75998   0.76051   0.25297   0.01267  Uiso   1.00
H46    H     0.39141   0.49663   0.04490   0.01267  Uiso   1.00
H47    H     0.26427   0.43796   0.91037   0.01267  Uiso   1.00
H48    H     0.27136   0.51376   0.04473   0.01267  Uiso   1.00
H49    H     0.05231   0.39141   0.50087   0.01267  Uiso   1.00
H50    H     0.91082   0.27132   0.43720   0.01267  Uiso   1.00
H51    H     0.03687   0.26431   0.51028   0.01267  Uiso   1.00
H52    H     0.12880   0.61477   0.68855   0.01267  Uiso   1.00
H53    H     0.13978   0.70174   0.62079   0.01267  Uiso   1.00
H54    H     0.25272   0.75644   0.76362   0.01267  Uiso   1.00
H55    H     0.02356   0.50415   0.25396   0.01267  Uiso   1.00
H56    H     0.91333   0.43692   0.28333   0.01267  Uiso   1.00
H57    H     0.06311   0.50728   0.38975   0.01267  Uiso   1.00
H58    H     0.86022   0.56196   0.48100   0.01267  Uiso   1.00
H59    H     0.87120   0.48597   0.55975   0.01267  Uiso   1.00
H60    H     0.74728   0.50372   0.51090   0.01267  Uiso   1.00
