data_image0
_cell_length_a       33.6474
_cell_length_b       13.9237
_cell_length_c       23.3437
_cell_angle_alpha    90
_cell_angle_beta     112.495
_cell_angle_gamma    90

_symmetry_space_group_name_H-M    "P 1"
_symmetry_int_tables_number       1

loop_
  _symmetry_equiv_pos_as_xyz
  'x, y, z'

loop_
  _atom_site_label
  _atom_site_occupancy
  _atom_site_fract_x
  _atom_site_fract_y
  _atom_site_fract_z
  _atom_site_thermal_displace_type
  _atom_site_B_iso_or_equiv
  _atom_site_type_symbol
  Ag1      1.0000 0.15400  0.13611  0.29129  Biso   1.000  Ag
  N1       1.0000 0.21781  0.15160  0.37218  Biso   1.000  N
  C1       1.0000 0.24861  0.15020  0.41503  Biso   1.000  C
  C2       1.0000 0.28719  0.14480  0.46933  Biso   1.000  C
  C3       1.0000 0.30777  0.05850  0.48719  Biso   1.000  C
  C4       1.0000 0.30454  0.22880  0.50359  Biso   1.000  C
  C5       1.0000 0.34603  0.05140  0.53993  Biso   1.000  C
  H1       1.0000 0.29620  0.00380  0.46400  Biso   1.000  H
  H2       1.0000 0.29100  0.28770  0.49090  Biso   1.000  H
  C6       1.0000 0.34188  0.22290  0.55611  Biso   1.000  C
  C7       1.0000 0.36346  0.13510  0.57456  Biso   1.000  C
  H3       1.0000 0.35970  0.99250  0.55190  Biso   1.000  H
  H4       1.0000 0.35280  0.27780  0.57950  Biso   1.000  H
  C8       1.0000 0.40529  0.13260  0.62837  Biso   1.000  C
  C9       1.0000 0.44030  0.09300  0.61987  Biso   1.000  C
  C10      1.0000 0.40549  0.17150  0.68477  Biso   1.000  C
  C11      1.0000 0.44235  0.05460  0.56390  Biso   1.000  C
  N2       1.0000 0.48120  0.07950  0.66832  Biso   1.000  N
  C12      1.0000 0.36966  0.18250  0.70276  Biso   1.000  C
  N3       1.0000 0.44217  0.20134  0.73319  Biso   1.000  N
  C13      1.0000 0.48350  0.02260  0.57783  Biso   1.000  C
  H5       1.0000 0.41990  0.05210  0.52530  Biso   1.000  H
  C14      1.0000 0.50572  0.03840  0.64226  Biso   1.000  C
  H6       1.0000 0.34110  0.16830  0.67880  Biso   1.000  H
  C15      1.0000 0.38558  0.21820  0.76258  Biso   1.000  C
  C16      1.0000 0.43029  0.23090  0.77969  Biso   1.000  C
  H7       1.0000 0.49460  0.99580  0.55060  Biso   1.000  H
  H8       1.0000 0.53440  0.02180  0.66390  Biso   1.000  H
  H9       1.0000 0.36990  0.23140  0.78690  Biso   1.000  H
  C17      1.0000 0.37893  0.50640  0.68207  Biso   1.000  C
  C18      1.0000 0.46224  0.27630  0.83370  Biso   1.000  C
  C19      1.0000 0.38125  0.48050  0.62582  Biso   1.000  C
  H10      1.0000 0.35600  0.53650  0.68760  Biso   1.000  H
  C20      1.0000 0.41825  0.47790  0.72912  Biso   1.000  C
  C21      1.0000 0.46370  0.28250  0.89528  Biso   1.000  C
  N4       1.0000 0.49673  0.31864  0.82857  Biso   1.000  N
  C22      1.0000 0.42235  0.43700  0.64047  Biso   1.000  C
  H11      1.0000 0.36020  0.48970  0.58650  Biso   1.000  H
  H12      1.0000 0.42520  0.48670  0.77140  Biso   1.000  H
  N5       1.0000 0.44408  0.43670  0.70462  Biso   1.000  N
  H13      1.0000 0.44310  0.26010  0.90950  Biso   1.000  H
  C23      1.0000 0.50121  0.32770  0.92934  Biso   1.000  C
  C24      1.0000 0.52185  0.35360  0.88826  Biso   1.000  C
  C25      1.0000 0.43965  0.40460  0.59746  Biso   1.000  C
  H14      1.0000 0.51160  0.33960  0.97170  Biso   1.000  H
  C26      1.0000 0.41617  0.43290  0.53187  Biso   1.000  C
  C27      1.0000 0.41085  0.53020  0.51731  Biso   1.000  C
  C28      1.0000 0.40022  0.36600  0.48446  Biso   1.000  C
  H15      1.0000 0.42060  0.57480  0.54940  Biso   1.000  H
  C29      1.0000 0.39173  0.56330  0.45716  Biso   1.000  C
  C30      1.0000 0.37966  0.39740  0.42337  Biso   1.000  C
  H16      1.0000 0.40320  0.30070  0.49330  Biso   1.000  H
  H17      1.0000 0.38930  0.62870  0.44840  Biso   1.000  H
  C31      1.0000 0.37619  0.49530  0.41005  Biso   1.000  C
  H18      1.0000 0.36830  0.35290  0.39150  Biso   1.000  H
  C32      1.0000 0.35823  0.52840  0.34729  Biso   1.000  C
  Ag2      1.0000 0.65400  0.63611  0.29129  Biso   1.000  Ag
  N6       1.0000 0.71781  0.65160  0.37218  Biso   1.000  N
  C33      1.0000 0.74861  0.65020  0.41503  Biso   1.000  C
  C34      1.0000 0.78719  0.64480  0.46933  Biso   1.000  C
  C35      1.0000 0.80777  0.55850  0.48719  Biso   1.000  C
  C36      1.0000 0.80454  0.72880  0.50359  Biso   1.000  C
  C37      1.0000 0.84603  0.55140  0.53993  Biso   1.000  C
  H19      1.0000 0.79620  0.50380  0.46400  Biso   1.000  H
  H20      1.0000 0.79100  0.78770  0.49090  Biso   1.000  H
  C38      1.0000 0.84188  0.72290  0.55611  Biso   1.000  C
  C39      1.0000 0.86346  0.63510  0.57456  Biso   1.000  C
  H21      1.0000 0.85970  0.49250  0.55190  Biso   1.000  H
  H22      1.0000 0.85280  0.77780  0.57950  Biso   1.000  H
  C40      1.0000 0.90529  0.63260  0.62837  Biso   1.000  C
  C41      1.0000 0.94030  0.59300  0.61987  Biso   1.000  C
  C42      1.0000 0.90549  0.67150  0.68477  Biso   1.000  C
  C43      1.0000 0.94235  0.55460  0.56390  Biso   1.000  C
  N7       1.0000 0.98120  0.57950  0.66832  Biso   1.000  N
  C44      1.0000 0.86966  0.68250  0.70276  Biso   1.000  C
  N8       1.0000 0.94217  0.70134  0.73319  Biso   1.000  N
  C45      1.0000 0.98350  0.52260  0.57783  Biso   1.000  C
  H23      1.0000 0.91990  0.55210  0.52530  Biso   1.000  H
  C46      1.0000 0.00572  0.53840  0.64226  Biso   1.000  C
  H24      1.0000 0.84110  0.66830  0.67880  Biso   1.000  H
  C47      1.0000 0.88558  0.71820  0.76258  Biso   1.000  C
  C48      1.0000 0.93029  0.73090  0.77969  Biso   1.000  C
  H25      1.0000 0.99460  0.49580  0.55060  Biso   1.000  H
  H26      1.0000 0.03440  0.52180  0.66390  Biso   1.000  H
  H27      1.0000 0.86990  0.73140  0.78690  Biso   1.000  H
  C49      1.0000 0.87893  0.00640  0.68207  Biso   1.000  C
  C50      1.0000 0.96224  0.77630  0.83370  Biso   1.000  C
  C51      1.0000 0.88125  0.98050  0.62582  Biso   1.000  C
  H28      1.0000 0.85600  0.03650  0.68760  Biso   1.000  H
  C52      1.0000 0.91825  0.97790  0.72912  Biso   1.000  C
  C53      1.0000 0.96370  0.78250  0.89528  Biso   1.000  C
  N9       1.0000 0.99673  0.81864  0.82857  Biso   1.000  N
  C54      1.0000 0.92235  0.93700  0.64047  Biso   1.000  C
  H29      1.0000 0.86020  0.98970  0.58650  Biso   1.000  H
  H30      1.0000 0.92520  0.98670  0.77140  Biso   1.000  H
  N10      1.0000 0.94408  0.93670  0.70462  Biso   1.000  N
  H31      1.0000 0.94310  0.76010  0.90950  Biso   1.000  H
  C55      1.0000 0.00121  0.82770  0.92934  Biso   1.000  C
  C56      1.0000 0.02185  0.85360  0.88826  Biso   1.000  C
  C57      1.0000 0.93965  0.90460  0.59746  Biso   1.000  C
  H32      1.0000 0.01160  0.83960  0.97170  Biso   1.000  H
  C58      1.0000 0.91617  0.93290  0.53187  Biso   1.000  C
  C59      1.0000 0.91085  0.03020  0.51731  Biso   1.000  C
  C60      1.0000 0.90022  0.86600  0.48446  Biso   1.000  C
  H33      1.0000 0.92060  0.07480  0.54940  Biso   1.000  H
  C61      1.0000 0.89173  0.06330  0.45716  Biso   1.000  C
  C62      1.0000 0.87966  0.89740  0.42337  Biso   1.000  C
  H34      1.0000 0.90320  0.80070  0.49330  Biso   1.000  H
  H35      1.0000 0.88930  0.12870  0.44840  Biso   1.000  H
  C63      1.0000 0.87619  0.99530  0.41005  Biso   1.000  C
  H36      1.0000 0.86830  0.85290  0.39150  Biso   1.000  H
  C64      1.0000 0.85823  0.02840  0.34729  Biso   1.000  C
  Ag3      1.0000 0.84600  0.13611  0.20871  Biso   1.000  Ag
  N11      1.0000 0.78219  0.15160  0.12782  Biso   1.000  N
  C65      1.0000 0.75139  0.15020  0.08497  Biso   1.000  C
  C66      1.0000 0.71281  0.14480  0.03067  Biso   1.000  C
  C67      1.0000 0.69223  0.05850  0.01281  Biso   1.000  C
  C68      1.0000 0.69546  0.22880  0.99641  Biso   1.000  C
  C69      1.0000 0.65397  0.05140  0.96007  Biso   1.000  C
  H37      1.0000 0.70380  0.00380  0.03600  Biso   1.000  H
  H38      1.0000 0.70900  0.28770  0.00910  Biso   1.000  H
  C70      1.0000 0.65812  0.22290  0.94389  Biso   1.000  C
  C71      1.0000 0.63654  0.13510  0.92544  Biso   1.000  C
  H39      1.0000 0.64030  0.99250  0.94810  Biso   1.000  H
  H40      1.0000 0.64720  0.27780  0.92050  Biso   1.000  H
  C72      1.0000 0.59471  0.13260  0.87163  Biso   1.000  C
  C73      1.0000 0.55970  0.09300  0.88013  Biso   1.000  C
  C74      1.0000 0.59451  0.17150  0.81523  Biso   1.000  C
  C75      1.0000 0.55765  0.05460  0.93610  Biso   1.000  C
  N12      1.0000 0.51880  0.07950  0.83168  Biso   1.000  N
  C76      1.0000 0.63034  0.18250  0.79724  Biso   1.000  C
  N13      1.0000 0.55783  0.20134  0.76681  Biso   1.000  N
  C77      1.0000 0.51650  0.02260  0.92217  Biso   1.000  C
  H41      1.0000 0.58010  0.05210  0.97470  Biso   1.000  H
  C78      1.0000 0.49428  0.03840  0.85774  Biso   1.000  C
  H42      1.0000 0.65890  0.16830  0.82120  Biso   1.000  H
  C79      1.0000 0.61442  0.21820  0.73742  Biso   1.000  C
  C80      1.0000 0.56971  0.23090  0.72031  Biso   1.000  C
  H43      1.0000 0.50540  0.99580  0.94940  Biso   1.000  H
  H44      1.0000 0.46560  0.02180  0.83610  Biso   1.000  H
  H45      1.0000 0.63010  0.23140  0.71310  Biso   1.000  H
  C81      1.0000 0.62107  0.50640  0.81793  Biso   1.000  C
  C82      1.0000 0.53776  0.27630  0.66630  Biso   1.000  C
  C83      1.0000 0.61875  0.48050  0.87418  Biso   1.000  C
  H46      1.0000 0.64400  0.53650  0.81240  Biso   1.000  H
  C84      1.0000 0.58175  0.47790  0.77088  Biso   1.000  C
  C85      1.0000 0.53630  0.28250  0.60472  Biso   1.000  C
  N14      1.0000 0.50327  0.31864  0.67143  Biso   1.000  N
  C86      1.0000 0.57765  0.43700  0.85953  Biso   1.000  C
  H47      1.0000 0.63980  0.48970  0.91350  Biso   1.000  H
  H48      1.0000 0.57480  0.48670  0.72860  Biso   1.000  H
  N15      1.0000 0.55592  0.43670  0.79538  Biso   1.000  N
  H49      1.0000 0.55690  0.26010  0.59050  Biso   1.000  H
  C87      1.0000 0.49879  0.32770  0.57066  Biso   1.000  C
  C88      1.0000 0.47815  0.35360  0.61174  Biso   1.000  C
  C89      1.0000 0.56035  0.40460  0.90254  Biso   1.000  C
  H50      1.0000 0.48840  0.33960  0.52830  Biso   1.000  H
  C90      1.0000 0.58383  0.43290  0.96813  Biso   1.000  C
  C91      1.0000 0.58915  0.53020  0.98269  Biso   1.000  C
  C92      1.0000 0.59978  0.36600  0.01554  Biso   1.000  C
  H51      1.0000 0.57940  0.57480  0.95060  Biso   1.000  H
  C93      1.0000 0.60827  0.56330  0.04284  Biso   1.000  C
  C94      1.0000 0.62034  0.39740  0.07663  Biso   1.000  C
  H52      1.0000 0.59680  0.30070  0.00670  Biso   1.000  H
  H53      1.0000 0.61070  0.62870  0.05160  Biso   1.000  H
  C95      1.0000 0.62381  0.49530  0.08995  Biso   1.000  C
  H54      1.0000 0.63170  0.35290  0.10850  Biso   1.000  H
  C96      1.0000 0.64177  0.52840  0.15271  Biso   1.000  C
  Ag4      1.0000 0.34600  0.63611  0.20871  Biso   1.000  Ag
  N16      1.0000 0.28219  0.65160  0.12782  Biso   1.000  N
  C97      1.0000 0.25139  0.65020  0.08497  Biso   1.000  C
  C98      1.0000 0.21281  0.64480  0.03067  Biso   1.000  C
  C99      1.0000 0.19223  0.55850  0.01281  Biso   1.000  C
  C100     1.0000 0.19546  0.72880  0.99641  Biso   1.000  C
  C101     1.0000 0.15397  0.55140  0.96007  Biso   1.000  C
  H55      1.0000 0.20380  0.50380  0.03600  Biso   1.000  H
  H56      1.0000 0.20900  0.78770  0.00910  Biso   1.000  H
  C102     1.0000 0.15812  0.72290  0.94389  Biso   1.000  C
  C103     1.0000 0.13654  0.63510  0.92544  Biso   1.000  C
  H57      1.0000 0.14030  0.49250  0.94810  Biso   1.000  H
  H58      1.0000 0.14720  0.77780  0.92050  Biso   1.000  H
  C104     1.0000 0.09471  0.63260  0.87163  Biso   1.000  C
  C105     1.0000 0.05970  0.59300  0.88013  Biso   1.000  C
  C106     1.0000 0.09451  0.67150  0.81523  Biso   1.000  C
  C107     1.0000 0.05765  0.55460  0.93610  Biso   1.000  C
  N17      1.0000 0.01880  0.57950  0.83168  Biso   1.000  N
  C108     1.0000 0.13034  0.68250  0.79724  Biso   1.000  C
  N18      1.0000 0.05783  0.70134  0.76681  Biso   1.000  N
  C109     1.0000 0.01650  0.52260  0.92217  Biso   1.000  C
  H59      1.0000 0.08010  0.55210  0.97470  Biso   1.000  H
  C110     1.0000 0.99428  0.53840  0.85774  Biso   1.000  C
  H60      1.0000 0.15890  0.66830  0.82120  Biso   1.000  H
  C111     1.0000 0.11442  0.71820  0.73742  Biso   1.000  C
  C112     1.0000 0.06971  0.73090  0.72031  Biso   1.000  C
  H61      1.0000 0.00540  0.49580  0.94940  Biso   1.000  H
  H62      1.0000 0.96560  0.52180  0.83610  Biso   1.000  H
  H63      1.0000 0.13010  0.73140  0.71310  Biso   1.000  H
  C113     1.0000 0.12107  0.00640  0.81793  Biso   1.000  C
  C114     1.0000 0.03776  0.77630  0.66630  Biso   1.000  C
  C115     1.0000 0.11875  0.98050  0.87418  Biso   1.000  C
  H64      1.0000 0.14400  0.03650  0.81240  Biso   1.000  H
  C116     1.0000 0.08175  0.97790  0.77088  Biso   1.000  C
  C117     1.0000 0.03630  0.78250  0.60472  Biso   1.000  C
  N19      1.0000 0.00327  0.81864  0.67143  Biso   1.000  N
  C118     1.0000 0.07765  0.93700  0.85953  Biso   1.000  C
  H65      1.0000 0.13980  0.98970  0.91350  Biso   1.000  H
  H66      1.0000 0.07480  0.98670  0.72860  Biso   1.000  H
  N20      1.0000 0.05592  0.93670  0.79538  Biso   1.000  N
  H67      1.0000 0.05690  0.76010  0.59050  Biso   1.000  H
  C119     1.0000 0.99879  0.82770  0.57066  Biso   1.000  C
  C120     1.0000 0.97815  0.85360  0.61174  Biso   1.000  C
  C121     1.0000 0.06035  0.90460  0.90254  Biso   1.000  C
  H68      1.0000 0.98840  0.83960  0.52830  Biso   1.000  H
  C122     1.0000 0.08383  0.93290  0.96813  Biso   1.000  C
  C123     1.0000 0.08915  0.03020  0.98269  Biso   1.000  C
  C124     1.0000 0.09978  0.86600  0.01554  Biso   1.000  C
  H69      1.0000 0.07940  0.07480  0.95060  Biso   1.000  H
  C125     1.0000 0.10827  0.06330  0.04284  Biso   1.000  C
  C126     1.0000 0.12034  0.89740  0.07663  Biso   1.000  C
  H70      1.0000 0.09680  0.80070  0.00670  Biso   1.000  H
  H71      1.0000 0.11070  0.12870  0.05160  Biso   1.000  H
  C127     1.0000 0.12381  0.99530  0.08995  Biso   1.000  C
  H72      1.0000 0.13170  0.85290  0.10850  Biso   1.000  H
  C128     1.0000 0.14177  0.02840  0.15271  Biso   1.000  C
  N21      1.0000 0.65465  0.55970  0.20252  Biso   1.000  N
  N22      1.0000 0.15465  0.05970  0.20252  Biso   1.000  N
  N23      1.0000 0.34535  0.55970  0.29748  Biso   1.000  N
  N24      1.0000 0.84535  0.05970  0.29748  Biso   1.000  N
  Zn1      1.0000 0.50000  0.14412  0.75000  Biso   1.000  Zn
  Zn2      1.0000 0.50000  0.37086  0.75000  Biso   1.000  Zn
  Zn3      1.0000 0.00000  0.64412  0.75000  Biso   1.000  Zn
  Zn4      1.0000 0.00000  0.87086  0.75000  Biso   1.000  Zn
  N25      1.0000 0.34535  0.44030  0.79748  Biso   1.000  N
  N26      1.0000 0.84535  0.94030  0.79748  Biso   1.000  N
  N27      1.0000 0.65465  0.44030  0.70252  Biso   1.000  N
  N28      1.0000 0.15465  0.94030  0.70252  Biso   1.000  N
  Ag5      1.0000 0.84600  0.86389  0.70871  Biso   1.000  Ag
  N29      1.0000 0.78219  0.84840  0.62782  Biso   1.000  N
  C129     1.0000 0.75139  0.84980  0.58497  Biso   1.000  C
  C130     1.0000 0.71281  0.85520  0.53067  Biso   1.000  C
  C131     1.0000 0.69223  0.94150  0.51281  Biso   1.000  C
  C132     1.0000 0.69546  0.77120  0.49641  Biso   1.000  C
  C133     1.0000 0.65397  0.94860  0.46007  Biso   1.000  C
  H73      1.0000 0.70380  0.99620  0.53600  Biso   1.000  H
  H74      1.0000 0.70900  0.71230  0.50910  Biso   1.000  H
  C134     1.0000 0.65812  0.77710  0.44389  Biso   1.000  C
  C135     1.0000 0.63654  0.86490  0.42544  Biso   1.000  C
  H75      1.0000 0.64030  0.00750  0.44810  Biso   1.000  H
  H76      1.0000 0.64720  0.72220  0.42050  Biso   1.000  H
  C136     1.0000 0.59471  0.86740  0.37163  Biso   1.000  C
  C137     1.0000 0.55970  0.90700  0.38013  Biso   1.000  C
  C138     1.0000 0.59451  0.82850  0.31523  Biso   1.000  C
  C139     1.0000 0.55765  0.94540  0.43610  Biso   1.000  C
  N30      1.0000 0.51880  0.92050  0.33168  Biso   1.000  N
  C140     1.0000 0.63034  0.81750  0.29724  Biso   1.000  C
  N31      1.0000 0.55783  0.79866  0.26681  Biso   1.000  N
  C141     1.0000 0.51650  0.97740  0.42217  Biso   1.000  C
  H77      1.0000 0.58010  0.94790  0.47470  Biso   1.000  H
  C142     1.0000 0.49428  0.96160  0.35774  Biso   1.000  C
  H78      1.0000 0.65890  0.83170  0.32120  Biso   1.000  H
  C143     1.0000 0.61442  0.78180  0.23742  Biso   1.000  C
  C144     1.0000 0.56971  0.76910  0.22031  Biso   1.000  C
  H79      1.0000 0.50540  0.00420  0.44940  Biso   1.000  H
  H80      1.0000 0.46560  0.97820  0.33610  Biso   1.000  H
  H81      1.0000 0.63010  0.76860  0.21310  Biso   1.000  H
  C145     1.0000 0.62107  0.49360  0.31793  Biso   1.000  C
  C146     1.0000 0.53776  0.72370  0.16630  Biso   1.000  C
  C147     1.0000 0.61875  0.51950  0.37418  Biso   1.000  C
  H82      1.0000 0.64400  0.46350  0.31240  Biso   1.000  H
  C148     1.0000 0.58175  0.52210  0.27088  Biso   1.000  C
  C149     1.0000 0.53630  0.71750  0.10472  Biso   1.000  C
  N32      1.0000 0.50327  0.68136  0.17143  Biso   1.000  N
  C150     1.0000 0.57765  0.56300  0.35953  Biso   1.000  C
  H83      1.0000 0.63980  0.51030  0.41350  Biso   1.000  H
  H84      1.0000 0.57480  0.51330  0.22860  Biso   1.000  H
  N33      1.0000 0.55592  0.56330  0.29538  Biso   1.000  N
  H85      1.0000 0.55690  0.73990  0.09050  Biso   1.000  H
  C151     1.0000 0.49879  0.67230  0.07066  Biso   1.000  C
  C152     1.0000 0.47815  0.64640  0.11174  Biso   1.000  C
  C153     1.0000 0.56035  0.59540  0.40254  Biso   1.000  C
  H86      1.0000 0.48840  0.66040  0.02830  Biso   1.000  H
  C154     1.0000 0.58383  0.56710  0.46813  Biso   1.000  C
  C155     1.0000 0.58915  0.46980  0.48269  Biso   1.000  C
  C156     1.0000 0.59978  0.63400  0.51554  Biso   1.000  C
  H87      1.0000 0.57940  0.42520  0.45060  Biso   1.000  H
  C157     1.0000 0.60827  0.43670  0.54284  Biso   1.000  C
  C158     1.0000 0.62034  0.60260  0.57663  Biso   1.000  C
  H88      1.0000 0.59680  0.69930  0.50670  Biso   1.000  H
  H89      1.0000 0.61070  0.37130  0.55160  Biso   1.000  H
  C159     1.0000 0.62381  0.50470  0.58995  Biso   1.000  C
  H90      1.0000 0.63170  0.64710  0.60850  Biso   1.000  H
  C160     1.0000 0.64177  0.47160  0.65271  Biso   1.000  C
  Ag6      1.0000 0.34600  0.36389  0.70871  Biso   1.000  Ag
  N34      1.0000 0.28219  0.34840  0.62782  Biso   1.000  N
  C161     1.0000 0.25139  0.34980  0.58497  Biso   1.000  C
  C162     1.0000 0.21281  0.35520  0.53067  Biso   1.000  C
  C163     1.0000 0.19223  0.44150  0.51281  Biso   1.000  C
  C164     1.0000 0.19546  0.27120  0.49641  Biso   1.000  C
  C165     1.0000 0.15397  0.44860  0.46007  Biso   1.000  C
  H91      1.0000 0.20380  0.49620  0.53600  Biso   1.000  H
  H92      1.0000 0.20900  0.21230  0.50910  Biso   1.000  H
  C166     1.0000 0.15812  0.27710  0.44389  Biso   1.000  C
  C167     1.0000 0.13654  0.36490  0.42544  Biso   1.000  C
  H93      1.0000 0.14030  0.50750  0.44810  Biso   1.000  H
  H94      1.0000 0.14720  0.22220  0.42050  Biso   1.000  H
  C168     1.0000 0.09471  0.36740  0.37163  Biso   1.000  C
  C169     1.0000 0.05970  0.40700  0.38013  Biso   1.000  C
  C170     1.0000 0.09451  0.32850  0.31523  Biso   1.000  C
  C171     1.0000 0.05765  0.44540  0.43610  Biso   1.000  C
  N35      1.0000 0.01880  0.42050  0.33168  Biso   1.000  N
  C172     1.0000 0.13034  0.31750  0.29724  Biso   1.000  C
  N36      1.0000 0.05783  0.29866  0.26681  Biso   1.000  N
  C173     1.0000 0.01650  0.47740  0.42217  Biso   1.000  C
  H95      1.0000 0.08010  0.44790  0.47470  Biso   1.000  H
  C174     1.0000 0.99428  0.46160  0.35774  Biso   1.000  C
  H96      1.0000 0.15890  0.33170  0.32120  Biso   1.000  H
  C175     1.0000 0.11442  0.28180  0.23742  Biso   1.000  C
  C176     1.0000 0.06971  0.26910  0.22031  Biso   1.000  C
  H97      1.0000 0.00540  0.50420  0.44940  Biso   1.000  H
  H98      1.0000 0.96560  0.47820  0.33610  Biso   1.000  H
  H99      1.0000 0.13010  0.26860  0.21310  Biso   1.000  H
  C177     1.0000 0.12107  0.99360  0.31793  Biso   1.000  C
  C178     1.0000 0.03776  0.22370  0.16630  Biso   1.000  C
  C179     1.0000 0.11875  0.01950  0.37418  Biso   1.000  C
  H100     1.0000 0.14400  0.96350  0.31240  Biso   1.000  H
  C180     1.0000 0.08175  0.02210  0.27088  Biso   1.000  C
  C181     1.0000 0.03630  0.21750  0.10472  Biso   1.000  C
  N37      1.0000 0.00327  0.18136  0.17143  Biso   1.000  N
  C182     1.0000 0.07765  0.06300  0.35953  Biso   1.000  C
  H101     1.0000 0.13980  0.01030  0.41350  Biso   1.000  H
  H102     1.0000 0.07480  0.01330  0.22860  Biso   1.000  H
  N38      1.0000 0.05592  0.06330  0.29538  Biso   1.000  N
  H103     1.0000 0.05690  0.23990  0.09050  Biso   1.000  H
  C183     1.0000 0.99879  0.17230  0.07066  Biso   1.000  C
  C184     1.0000 0.97815  0.14640  0.11174  Biso   1.000  C
  C185     1.0000 0.06035  0.09540  0.40254  Biso   1.000  C
  H104     1.0000 0.98840  0.16040  0.02830  Biso   1.000  H
  C186     1.0000 0.08383  0.06710  0.46813  Biso   1.000  C
  C187     1.0000 0.08915  0.96980  0.48269  Biso   1.000  C
  C188     1.0000 0.09978  0.13400  0.51554  Biso   1.000  C
  H105     1.0000 0.07940  0.92520  0.45060  Biso   1.000  H
  C189     1.0000 0.10827  0.93670  0.54284  Biso   1.000  C
  C190     1.0000 0.12034  0.10260  0.57663  Biso   1.000  C
  H106     1.0000 0.09680  0.19930  0.50670  Biso   1.000  H
  H107     1.0000 0.11070  0.87130  0.55160  Biso   1.000  H
  C191     1.0000 0.12381  0.00470  0.58995  Biso   1.000  C
  H108     1.0000 0.13170  0.14710  0.60850  Biso   1.000  H
  C192     1.0000 0.14177  0.97160  0.65271  Biso   1.000  C
  Ag7      1.0000 0.15400  0.86389  0.79129  Biso   1.000  Ag
  N39      1.0000 0.21781  0.84840  0.87218  Biso   1.000  N
  C193     1.0000 0.24861  0.84980  0.91503  Biso   1.000  C
  C194     1.0000 0.28719  0.85520  0.96933  Biso   1.000  C
  C195     1.0000 0.30777  0.94150  0.98719  Biso   1.000  C
  C196     1.0000 0.30454  0.77120  0.00359  Biso   1.000  C
  C197     1.0000 0.34603  0.94860  0.03993  Biso   1.000  C
  H109     1.0000 0.29620  0.99620  0.96400  Biso   1.000  H
  H110     1.0000 0.29100  0.71230  0.99090  Biso   1.000  H
  C198     1.0000 0.34188  0.77710  0.05611  Biso   1.000  C
  C199     1.0000 0.36346  0.86490  0.07456  Biso   1.000  C
  H111     1.0000 0.35970  0.00750  0.05190  Biso   1.000  H
  H112     1.0000 0.35280  0.72220  0.07950  Biso   1.000  H
  C200     1.0000 0.40529  0.86740  0.12837  Biso   1.000  C
  C201     1.0000 0.44030  0.90700  0.11987  Biso   1.000  C
  C202     1.0000 0.40549  0.82850  0.18477  Biso   1.000  C
  C203     1.0000 0.44235  0.94540  0.06390  Biso   1.000  C
  N40      1.0000 0.48120  0.92050  0.16832  Biso   1.000  N
  C204     1.0000 0.36966  0.81750  0.20276  Biso   1.000  C
  N41      1.0000 0.44217  0.79866  0.23319  Biso   1.000  N
  C205     1.0000 0.48350  0.97740  0.07783  Biso   1.000  C
  H113     1.0000 0.41990  0.94790  0.02530  Biso   1.000  H
  C206     1.0000 0.50572  0.96160  0.14226  Biso   1.000  C
  H114     1.0000 0.34110  0.83170  0.17880  Biso   1.000  H
  C207     1.0000 0.38558  0.78180  0.26258  Biso   1.000  C
  C208     1.0000 0.43029  0.76910  0.27969  Biso   1.000  C
  H115     1.0000 0.49460  0.00420  0.05060  Biso   1.000  H
  H116     1.0000 0.53440  0.97820  0.16390  Biso   1.000  H
  H117     1.0000 0.36990  0.76860  0.28690  Biso   1.000  H
  C209     1.0000 0.37893  0.49360  0.18207  Biso   1.000  C
  C210     1.0000 0.46224  0.72370  0.33370  Biso   1.000  C
  C211     1.0000 0.38125  0.51950  0.12582  Biso   1.000  C
  H118     1.0000 0.35600  0.46350  0.18760  Biso   1.000  H
  C212     1.0000 0.41825  0.52210  0.22912  Biso   1.000  C
  C213     1.0000 0.46370  0.71750  0.39528  Biso   1.000  C
  N42      1.0000 0.49673  0.68136  0.32857  Biso   1.000  N
  C214     1.0000 0.42235  0.56300  0.14047  Biso   1.000  C
  H119     1.0000 0.36020  0.51030  0.08650  Biso   1.000  H
  H120     1.0000 0.42520  0.51330  0.27140  Biso   1.000  H
  N43      1.0000 0.44408  0.56330  0.20462  Biso   1.000  N
  H121     1.0000 0.44310  0.73990  0.40950  Biso   1.000  H
  C215     1.0000 0.50121  0.67230  0.42934  Biso   1.000  C
  C216     1.0000 0.52185  0.64640  0.38826  Biso   1.000  C
  C217     1.0000 0.43965  0.59540  0.09746  Biso   1.000  C
  H122     1.0000 0.51160  0.66040  0.47170  Biso   1.000  H
  C218     1.0000 0.41617  0.56710  0.03187  Biso   1.000  C
  C219     1.0000 0.41085  0.46980  0.01731  Biso   1.000  C
  C220     1.0000 0.40022  0.63400  0.98446  Biso   1.000  C
  H123     1.0000 0.42060  0.42520  0.04940  Biso   1.000  H
  C221     1.0000 0.39173  0.43670  0.95716  Biso   1.000  C
  C222     1.0000 0.37966  0.60260  0.92337  Biso   1.000  C
  H124     1.0000 0.40320  0.69930  0.99330  Biso   1.000  H
  H125     1.0000 0.38930  0.37130  0.94840  Biso   1.000  H
  C223     1.0000 0.37619  0.50470  0.91005  Biso   1.000  C
  H126     1.0000 0.36830  0.64710  0.89150  Biso   1.000  H
  C224     1.0000 0.35823  0.47160  0.84729  Biso   1.000  C
  Ag8      1.0000 0.65400  0.36389  0.79129  Biso   1.000  Ag
  N44      1.0000 0.71781  0.34840  0.87218  Biso   1.000  N
  C225     1.0000 0.74861  0.34980  0.91503  Biso   1.000  C
  C226     1.0000 0.78719  0.35520  0.96933  Biso   1.000  C
  C227     1.0000 0.80777  0.44150  0.98719  Biso   1.000  C
  C228     1.0000 0.80454  0.27120  0.00359  Biso   1.000  C
  C229     1.0000 0.84603  0.44860  0.03993  Biso   1.000  C
  H127     1.0000 0.79620  0.49620  0.96400  Biso   1.000  H
  H128     1.0000 0.79100  0.21230  0.99090  Biso   1.000  H
  C230     1.0000 0.84188  0.27710  0.05611  Biso   1.000  C
  C231     1.0000 0.86346  0.36490  0.07456  Biso   1.000  C
  H129     1.0000 0.85970  0.50750  0.05190  Biso   1.000  H
  H130     1.0000 0.85280  0.22220  0.07950  Biso   1.000  H
  C232     1.0000 0.90529  0.36740  0.12837  Biso   1.000  C
  C233     1.0000 0.94030  0.40700  0.11987  Biso   1.000  C
  C234     1.0000 0.90549  0.32850  0.18477  Biso   1.000  C
  C235     1.0000 0.94235  0.44540  0.06390  Biso   1.000  C
  N45      1.0000 0.98120  0.42050  0.16832  Biso   1.000  N
  C236     1.0000 0.86966  0.31750  0.20276  Biso   1.000  C
  N46      1.0000 0.94217  0.29866  0.23319  Biso   1.000  N
  C237     1.0000 0.98350  0.47740  0.07783  Biso   1.000  C
  H131     1.0000 0.91990  0.44790  0.02530  Biso   1.000  H
  C238     1.0000 0.00572  0.46160  0.14226  Biso   1.000  C
  H132     1.0000 0.84110  0.33170  0.17880  Biso   1.000  H
  C239     1.0000 0.88558  0.28180  0.26258  Biso   1.000  C
  C240     1.0000 0.93029  0.26910  0.27969  Biso   1.000  C
  H133     1.0000 0.99460  0.50420  0.05060  Biso   1.000  H
  H134     1.0000 0.03440  0.47820  0.16390  Biso   1.000  H
  H135     1.0000 0.86990  0.26860  0.28690  Biso   1.000  H
  C241     1.0000 0.87893  0.99360  0.18207  Biso   1.000  C
  C242     1.0000 0.96224  0.22370  0.33370  Biso   1.000  C
  C243     1.0000 0.88125  0.01950  0.12582  Biso   1.000  C
  H136     1.0000 0.85600  0.96350  0.18760  Biso   1.000  H
  C244     1.0000 0.91825  0.02210  0.22912  Biso   1.000  C
  C245     1.0000 0.96370  0.21750  0.39528  Biso   1.000  C
  N47      1.0000 0.99673  0.18136  0.32857  Biso   1.000  N
  C246     1.0000 0.92235  0.06300  0.14047  Biso   1.000  C
  H137     1.0000 0.86020  0.01030  0.08650  Biso   1.000  H
  H138     1.0000 0.92520  0.01330  0.27140  Biso   1.000  H
  N48      1.0000 0.94408  0.06330  0.20462  Biso   1.000  N
  H139     1.0000 0.94310  0.23990  0.40950  Biso   1.000  H
  C247     1.0000 0.00121  0.17230  0.42934  Biso   1.000  C
  C248     1.0000 0.02185  0.14640  0.38826  Biso   1.000  C
  C249     1.0000 0.93965  0.09540  0.09746  Biso   1.000  C
  H140     1.0000 0.01160  0.16040  0.47170  Biso   1.000  H
  C250     1.0000 0.91617  0.06710  0.03187  Biso   1.000  C
  C251     1.0000 0.91085  0.96980  0.01731  Biso   1.000  C
  C252     1.0000 0.90022  0.13400  0.98446  Biso   1.000  C
  H141     1.0000 0.92060  0.92520  0.04940  Biso   1.000  H
  C253     1.0000 0.89173  0.93670  0.95716  Biso   1.000  C
  C254     1.0000 0.87966  0.10260  0.92337  Biso   1.000  C
  H142     1.0000 0.90320  0.19930  0.99330  Biso   1.000  H
  H143     1.0000 0.88930  0.87130  0.94840  Biso   1.000  H
  C255     1.0000 0.87619  0.00470  0.91005  Biso   1.000  C
  H144     1.0000 0.86830  0.14710  0.89150  Biso   1.000  H
  C256     1.0000 0.85823  0.97160  0.84729  Biso   1.000  C
  Zn5      1.0000 0.50000  0.85588  0.25000  Biso   1.000  Zn
  Zn6      1.0000 0.50000  0.62914  0.25000  Biso   1.000  Zn
  Zn7      1.0000 0.00000  0.35588  0.25000  Biso   1.000  Zn
  Zn8      1.0000 0.00000  0.12914  0.25000  Biso   1.000  Zn
