data_image0
_cell_length_a       34.607
_cell_length_b       12.8631
_cell_length_c       23.8751
_cell_angle_alpha    90
_cell_angle_beta     114.026
_cell_angle_gamma    90

_symmetry_space_group_name_H-M    "P 1"
_symmetry_int_tables_number       1

loop_
  _symmetry_equiv_pos_as_xyz
  'x, y, z'

loop_
  _atom_site_label
  _atom_site_occupancy
  _atom_site_fract_x
  _atom_site_fract_y
  _atom_site_fract_z
  _atom_site_thermal_displace_type
  _atom_site_B_iso_or_equiv
  _atom_site_type_symbol
  C1       1.0000 0.08160  0.95050  0.77970  Biso   1.000  C
  H1       1.0000 0.07520  0.93350  0.73900  Biso   1.000  H
  C2       1.0000 0.12100  0.93320  0.83030  Biso   1.000  C
  H2       1.0000 0.14510  0.90460  0.82840  Biso   1.000  H
  C3       1.0000 0.11704  0.96500  0.88030  Biso   1.000  C
  H3       1.0000 0.13790  0.96160  0.92000  Biso   1.000  H
  C4       1.0000 0.07639  0.00460  0.86350  Biso   1.000  C
  C5       1.0000 0.05852  0.04880  0.90260  Biso   1.000  C
  C6       1.0000 0.01967  0.09640  0.88370  Biso   1.000  C
  C7       1.0000 0.99640  0.12320  0.92090  Biso   1.000  C
  H4       1.0000 0.00520  0.11040  0.96260  Biso   1.000  H
  C8       1.0000 0.95982  0.16990  0.88400  Biso   1.000  C
  H5       1.0000 0.93900  0.19520  0.89570  Biso   1.000  H
  C9       1.0000 0.95914  0.17310  0.82450  Biso   1.000  C
  C10      1.0000 0.08299  0.03260  0.96980  Biso   1.000  C
  C11      1.0000 0.09490  0.93420  0.99340  Biso   1.000  C
  C12      1.0000 0.11430  0.92390  0.05660  Biso   1.000  C
  C13      1.0000 0.12304  0.00550  0.09550  Biso   1.000  C
  C14      1.0000 0.11260  0.10760  0.07160  Biso   1.000  C
  C15      1.0000 0.09080  0.11890  0.00780  Biso   1.000  C
  C16      1.0000 0.14090  0.99000  0.16100  Biso   1.000  C
  C17      1.0000 0.92804  0.22070  0.76890  Biso   1.000  C
  C18      1.0000 0.88520  0.24050  0.75160  Biso   1.000  C
  H6       1.0000 0.86950  0.22550  0.77420  Biso   1.000  H
  C19      1.0000 0.87055  0.28630  0.69480  Biso   1.000  C
  H7       1.0000 0.84290  0.30740  0.67130  Biso   1.000  H
  C20      1.0000 0.90628  0.29530  0.67880  Biso   1.000  C
  C21      1.0000 0.90835  0.33750  0.62610  Biso   1.000  C
  C22      1.0000 0.94272  0.37320  0.61990  Biso   1.000  C
  C23      1.0000 0.94748  0.40650  0.56550  Biso   1.000  C
  H8       1.0000 0.92540  0.41250  0.52690  Biso   1.000  H
  C24      1.0000 0.98970  0.42860  0.57840  Biso   1.000  C
  H9       1.0000 0.00170  0.44670  0.55130  Biso   1.000  H
  C25      1.0000 0.01030  0.41680  0.64380  Biso   1.000  C
  H10      1.0000 0.03860  0.43230  0.66690  Biso   1.000  H
  C26      1.0000 0.86627  0.35200  0.57360  Biso   1.000  C
  C27      1.0000 0.84108  0.26350  0.54840  Biso   1.000  C
  H11      1.0000 0.85090  0.19800  0.56440  Biso   1.000  H
  C28      1.0000 0.80089  0.27390  0.49880  Biso   1.000  C
  H12      1.0000 0.78310  0.21700  0.48390  Biso   1.000  H
  C29      1.0000 0.78954  0.36840  0.47440  Biso   1.000  C
  C30      1.0000 0.81320  0.45890  0.49600  Biso   1.000  C
  H13      1.0000 0.80380  0.52350  0.47820  Biso   1.000  H
  C31      1.0000 0.85270  0.44540  0.54720  Biso   1.000  C
  H14      1.0000 0.86980  0.50330  0.56310  Biso   1.000  H
  C32      1.0000 0.74820  0.38260  0.42240  Biso   1.000  C
  N1       1.0000 0.05512  0.99610  0.80110  Biso   1.000  N
  N2       1.0000 0.99426  0.12490  0.82387  Biso   1.000  N
  N3       1.0000 0.15440  0.98040  0.21220  Biso   1.000  N
  N4       1.0000 0.94244  0.25470  0.72681  Biso   1.000  N
  N5       1.0000 0.98377  0.38050  0.66750  Biso   1.000  N
  N6       1.0000 0.71572  0.39610  0.38480  Biso   1.000  N
  C33      1.0000 0.58160  0.45050  0.77970  Biso   1.000  C
  H15      1.0000 0.57520  0.43350  0.73900  Biso   1.000  H
  C34      1.0000 0.62100  0.43320  0.83030  Biso   1.000  C
  H16      1.0000 0.64510  0.40460  0.82840  Biso   1.000  H
  C35      1.0000 0.61704  0.46500  0.88030  Biso   1.000  C
  H17      1.0000 0.63790  0.46160  0.92000  Biso   1.000  H
  C36      1.0000 0.57639  0.50460  0.86350  Biso   1.000  C
  C37      1.0000 0.55852  0.54880  0.90260  Biso   1.000  C
  C38      1.0000 0.51967  0.59640  0.88370  Biso   1.000  C
  C39      1.0000 0.49640  0.62320  0.92090  Biso   1.000  C
  H18      1.0000 0.50520  0.61040  0.96260  Biso   1.000  H
  C40      1.0000 0.45982  0.66990  0.88400  Biso   1.000  C
  H19      1.0000 0.43900  0.69520  0.89570  Biso   1.000  H
  C41      1.0000 0.45914  0.67310  0.82450  Biso   1.000  C
  C42      1.0000 0.58299  0.53260  0.96980  Biso   1.000  C
  C43      1.0000 0.59490  0.43420  0.99340  Biso   1.000  C
  C44      1.0000 0.61430  0.42390  0.05660  Biso   1.000  C
  C45      1.0000 0.62304  0.50550  0.09550  Biso   1.000  C
  C46      1.0000 0.61260  0.60760  0.07160  Biso   1.000  C
  C47      1.0000 0.59080  0.61890  0.00780  Biso   1.000  C
  C48      1.0000 0.64090  0.49000  0.16100  Biso   1.000  C
  C49      1.0000 0.42804  0.72070  0.76890  Biso   1.000  C
  C50      1.0000 0.38520  0.74050  0.75160  Biso   1.000  C
  H20      1.0000 0.36950  0.72550  0.77420  Biso   1.000  H
  C51      1.0000 0.37055  0.78630  0.69480  Biso   1.000  C
  H21      1.0000 0.34290  0.80740  0.67130  Biso   1.000  H
  C52      1.0000 0.40628  0.79530  0.67880  Biso   1.000  C
  C53      1.0000 0.40835  0.83750  0.62610  Biso   1.000  C
  C54      1.0000 0.44272  0.87320  0.61990  Biso   1.000  C
  C55      1.0000 0.44748  0.90650  0.56550  Biso   1.000  C
  H22      1.0000 0.42540  0.91250  0.52690  Biso   1.000  H
  C56      1.0000 0.48970  0.92860  0.57840  Biso   1.000  C
  H23      1.0000 0.50170  0.94670  0.55130  Biso   1.000  H
  C57      1.0000 0.51030  0.91680  0.64380  Biso   1.000  C
  H24      1.0000 0.53860  0.93230  0.66690  Biso   1.000  H
  C58      1.0000 0.36627  0.85200  0.57360  Biso   1.000  C
  C59      1.0000 0.34108  0.76350  0.54840  Biso   1.000  C
  H25      1.0000 0.35090  0.69800  0.56440  Biso   1.000  H
  C60      1.0000 0.30089  0.77390  0.49880  Biso   1.000  C
  H26      1.0000 0.28310  0.71700  0.48390  Biso   1.000  H
  C61      1.0000 0.28954  0.86840  0.47440  Biso   1.000  C
  C62      1.0000 0.31320  0.95890  0.49600  Biso   1.000  C
  H27      1.0000 0.30380  0.02350  0.47820  Biso   1.000  H
  C63      1.0000 0.35270  0.94540  0.54720  Biso   1.000  C
  H28      1.0000 0.36980  0.00330  0.56310  Biso   1.000  H
  C64      1.0000 0.24820  0.88260  0.42240  Biso   1.000  C
  N7       1.0000 0.55512  0.49610  0.80110  Biso   1.000  N
  N8       1.0000 0.49426  0.62490  0.82387  Biso   1.000  N
  N9       1.0000 0.65440  0.48040  0.21220  Biso   1.000  N
  N10      1.0000 0.44244  0.75470  0.72681  Biso   1.000  N
  N11      1.0000 0.48377  0.88050  0.66750  Biso   1.000  N
  N12      1.0000 0.21572  0.89610  0.38480  Biso   1.000  N
  C65      1.0000 0.91840  0.95050  0.72030  Biso   1.000  C
  H29      1.0000 0.92480  0.93350  0.76100  Biso   1.000  H
  C66      1.0000 0.87900  0.93320  0.66970  Biso   1.000  C
  H30      1.0000 0.85490  0.90460  0.67160  Biso   1.000  H
  C67      1.0000 0.88296  0.96500  0.61970  Biso   1.000  C
  H31      1.0000 0.86210  0.96160  0.58000  Biso   1.000  H
  C68      1.0000 0.92361  0.00460  0.63650  Biso   1.000  C
  C69      1.0000 0.94148  0.04880  0.59740  Biso   1.000  C
  C70      1.0000 0.98033  0.09640  0.61630  Biso   1.000  C
  C71      1.0000 0.00360  0.12320  0.57910  Biso   1.000  C
  H32      1.0000 0.99480  0.11040  0.53740  Biso   1.000  H
  C72      1.0000 0.04018  0.16990  0.61600  Biso   1.000  C
  H33      1.0000 0.06100  0.19520  0.60430  Biso   1.000  H
  C73      1.0000 0.04086  0.17310  0.67550  Biso   1.000  C
  C74      1.0000 0.91701  0.03260  0.53020  Biso   1.000  C
  C75      1.0000 0.90510  0.93420  0.50660  Biso   1.000  C
  C76      1.0000 0.88570  0.92390  0.44340  Biso   1.000  C
  C77      1.0000 0.87696  0.00550  0.40450  Biso   1.000  C
  C78      1.0000 0.88740  0.10760  0.42840  Biso   1.000  C
  C79      1.0000 0.90920  0.11890  0.49220  Biso   1.000  C
  C80      1.0000 0.85910  0.99000  0.33900  Biso   1.000  C
  C81      1.0000 0.07196  0.22070  0.73110  Biso   1.000  C
  C82      1.0000 0.11480  0.24050  0.74840  Biso   1.000  C
  H34      1.0000 0.13050  0.22550  0.72580  Biso   1.000  H
  C83      1.0000 0.12945  0.28630  0.80520  Biso   1.000  C
  H35      1.0000 0.15710  0.30740  0.82870  Biso   1.000  H
  C84      1.0000 0.09372  0.29530  0.82120  Biso   1.000  C
  C85      1.0000 0.09165  0.33750  0.87390  Biso   1.000  C
  C86      1.0000 0.05728  0.37320  0.88010  Biso   1.000  C
  C87      1.0000 0.05252  0.40650  0.93450  Biso   1.000  C
  H36      1.0000 0.07460  0.41250  0.97310  Biso   1.000  H
  C88      1.0000 0.01030  0.42860  0.92160  Biso   1.000  C
  H37      1.0000 0.99830  0.44670  0.94870  Biso   1.000  H
  C89      1.0000 0.98970  0.41680  0.85620  Biso   1.000  C
  H38      1.0000 0.96140  0.43230  0.83310  Biso   1.000  H
  C90      1.0000 0.13373  0.35200  0.92640  Biso   1.000  C
  C91      1.0000 0.15892  0.26350  0.95160  Biso   1.000  C
  H39      1.0000 0.14910  0.19800  0.93560  Biso   1.000  H
  C92      1.0000 0.19911  0.27390  0.00120  Biso   1.000  C
  H40      1.0000 0.21690  0.21700  0.01610  Biso   1.000  H
  C93      1.0000 0.21046  0.36840  0.02560  Biso   1.000  C
  C94      1.0000 0.18680  0.45890  0.00400  Biso   1.000  C
  H41      1.0000 0.19620  0.52350  0.02180  Biso   1.000  H
  C95      1.0000 0.14730  0.44540  0.95280  Biso   1.000  C
  H42      1.0000 0.13020  0.50330  0.93690  Biso   1.000  H
  C96      1.0000 0.25180  0.38260  0.07760  Biso   1.000  C
  N13      1.0000 0.94488  0.99610  0.69890  Biso   1.000  N
  N14      1.0000 0.00574  0.12490  0.67613  Biso   1.000  N
  N15      1.0000 0.84560  0.98040  0.28780  Biso   1.000  N
  N16      1.0000 0.05756  0.25470  0.77319  Biso   1.000  N
  N17      1.0000 0.01623  0.38050  0.83250  Biso   1.000  N
  N18      1.0000 0.28428  0.39610  0.11520  Biso   1.000  N
  C97      1.0000 0.41840  0.45050  0.72030  Biso   1.000  C
  H43      1.0000 0.42480  0.43350  0.76100  Biso   1.000  H
  C98      1.0000 0.37900  0.43320  0.66970  Biso   1.000  C
  H44      1.0000 0.35490  0.40460  0.67160  Biso   1.000  H
  C99      1.0000 0.38296  0.46500  0.61970  Biso   1.000  C
  H45      1.0000 0.36210  0.46160  0.58000  Biso   1.000  H
  C100     1.0000 0.42361  0.50460  0.63650  Biso   1.000  C
  C101     1.0000 0.44148  0.54880  0.59740  Biso   1.000  C
  C102     1.0000 0.48033  0.59640  0.61630  Biso   1.000  C
  C103     1.0000 0.50360  0.62320  0.57910  Biso   1.000  C
  H46      1.0000 0.49480  0.61040  0.53740  Biso   1.000  H
  C104     1.0000 0.54018  0.66990  0.61600  Biso   1.000  C
  H47      1.0000 0.56100  0.69520  0.60430  Biso   1.000  H
  C105     1.0000 0.54086  0.67310  0.67550  Biso   1.000  C
  C106     1.0000 0.41701  0.53260  0.53020  Biso   1.000  C
  C107     1.0000 0.40510  0.43420  0.50660  Biso   1.000  C
  C108     1.0000 0.38570  0.42390  0.44340  Biso   1.000  C
  C109     1.0000 0.37696  0.50550  0.40450  Biso   1.000  C
  C110     1.0000 0.38740  0.60760  0.42840  Biso   1.000  C
  C111     1.0000 0.40920  0.61890  0.49220  Biso   1.000  C
  C112     1.0000 0.35910  0.49000  0.33900  Biso   1.000  C
  C113     1.0000 0.57196  0.72070  0.73110  Biso   1.000  C
  C114     1.0000 0.61480  0.74050  0.74840  Biso   1.000  C
  H48      1.0000 0.63050  0.72550  0.72580  Biso   1.000  H
  C115     1.0000 0.62945  0.78630  0.80520  Biso   1.000  C
  H49      1.0000 0.65710  0.80740  0.82870  Biso   1.000  H
  C116     1.0000 0.59372  0.79530  0.82120  Biso   1.000  C
  C117     1.0000 0.59165  0.83750  0.87390  Biso   1.000  C
  C118     1.0000 0.55728  0.87320  0.88010  Biso   1.000  C
  C119     1.0000 0.55252  0.90650  0.93450  Biso   1.000  C
  H50      1.0000 0.57460  0.91250  0.97310  Biso   1.000  H
  C120     1.0000 0.51030  0.92860  0.92160  Biso   1.000  C
  H51      1.0000 0.49830  0.94670  0.94870  Biso   1.000  H
  C121     1.0000 0.48970  0.91680  0.85620  Biso   1.000  C
  H52      1.0000 0.46140  0.93230  0.83310  Biso   1.000  H
  C122     1.0000 0.63373  0.85200  0.92640  Biso   1.000  C
  C123     1.0000 0.65892  0.76350  0.95160  Biso   1.000  C
  H53      1.0000 0.64910  0.69800  0.93560  Biso   1.000  H
  C124     1.0000 0.69911  0.77390  0.00120  Biso   1.000  C
  H54      1.0000 0.71690  0.71700  0.01610  Biso   1.000  H
  C125     1.0000 0.71046  0.86840  0.02560  Biso   1.000  C
  C126     1.0000 0.68680  0.95890  0.00400  Biso   1.000  C
  H55      1.0000 0.69620  0.02350  0.02180  Biso   1.000  H
  C127     1.0000 0.64730  0.94540  0.95280  Biso   1.000  C
  H56      1.0000 0.63020  0.00330  0.93690  Biso   1.000  H
  C128     1.0000 0.75180  0.88260  0.07760  Biso   1.000  C
  N19      1.0000 0.44488  0.49610  0.69890  Biso   1.000  N
  N20      1.0000 0.50574  0.62490  0.67613  Biso   1.000  N
  N21      1.0000 0.34560  0.48040  0.28780  Biso   1.000  N
  N22      1.0000 0.55756  0.75470  0.77319  Biso   1.000  N
  N23      1.0000 0.51623  0.88050  0.83250  Biso   1.000  N
  N24      1.0000 0.78428  0.89610  0.11520  Biso   1.000  N
  Ag1      1.0000 0.84700  0.91385  0.19566  Biso   1.000  Ag
  Ag2      1.0000 0.34700  0.41385  0.19566  Biso   1.000  Ag
  Ag3      1.0000 0.15300  0.91385  0.30434  Biso   1.000  Ag
  Ag4      1.0000 0.65300  0.41385  0.30434  Biso   1.000  Ag
  Zn1      1.0000 0.00000  0.06686  0.75000  Biso   1.000  Zn
  Zn2      1.0000 0.00000  0.31425  0.75000  Biso   1.000  Zn
  Zn3      1.0000 0.50000  0.56686  0.75000  Biso   1.000  Zn
  Zn4      1.0000 0.50000  0.81425  0.75000  Biso   1.000  Zn
  Ag5      1.0000 0.15300  0.08615  0.80434  Biso   1.000  Ag
  Ag6      1.0000 0.65300  0.58615  0.80434  Biso   1.000  Ag
  Ag7      1.0000 0.84700  0.08615  0.69566  Biso   1.000  Ag
  Ag8      1.0000 0.34700  0.58615  0.69566  Biso   1.000  Ag
  C129     1.0000 0.91840  0.04950  0.22030  Biso   1.000  C
  H57      1.0000 0.92480  0.06650  0.26100  Biso   1.000  H
  C130     1.0000 0.87900  0.06680  0.16970  Biso   1.000  C
  H58      1.0000 0.85490  0.09540  0.17160  Biso   1.000  H
  C131     1.0000 0.88296  0.03500  0.11970  Biso   1.000  C
  H59      1.0000 0.86210  0.03840  0.08000  Biso   1.000  H
  C132     1.0000 0.92361  0.99540  0.13650  Biso   1.000  C
  C133     1.0000 0.94148  0.95120  0.09740  Biso   1.000  C
  C134     1.0000 0.98033  0.90360  0.11630  Biso   1.000  C
  C135     1.0000 0.00360  0.87680  0.07910  Biso   1.000  C
  H60      1.0000 0.99480  0.88960  0.03740  Biso   1.000  H
  C136     1.0000 0.04018  0.83010  0.11600  Biso   1.000  C
  H61      1.0000 0.06100  0.80480  0.10430  Biso   1.000  H
  C137     1.0000 0.04086  0.82690  0.17550  Biso   1.000  C
  C138     1.0000 0.91701  0.96740  0.03020  Biso   1.000  C
  C139     1.0000 0.90510  0.06580  0.00660  Biso   1.000  C
  C140     1.0000 0.88570  0.07610  0.94340  Biso   1.000  C
  C141     1.0000 0.87696  0.99450  0.90450  Biso   1.000  C
  C142     1.0000 0.88740  0.89240  0.92840  Biso   1.000  C
  C143     1.0000 0.90920  0.88110  0.99220  Biso   1.000  C
  C144     1.0000 0.85910  0.01000  0.83900  Biso   1.000  C
  C145     1.0000 0.07196  0.77930  0.23110  Biso   1.000  C
  C146     1.0000 0.11480  0.75950  0.24840  Biso   1.000  C
  H62      1.0000 0.13050  0.77450  0.22580  Biso   1.000  H
  C147     1.0000 0.12945  0.71370  0.30520  Biso   1.000  C
  H63      1.0000 0.15710  0.69260  0.32870  Biso   1.000  H
  C148     1.0000 0.09372  0.70470  0.32120  Biso   1.000  C
  C149     1.0000 0.09165  0.66250  0.37390  Biso   1.000  C
  C150     1.0000 0.05728  0.62680  0.38010  Biso   1.000  C
  C151     1.0000 0.05252  0.59350  0.43450  Biso   1.000  C
  H64      1.0000 0.07460  0.58750  0.47310  Biso   1.000  H
  C152     1.0000 0.01030  0.57140  0.42160  Biso   1.000  C
  H65      1.0000 0.99830  0.55330  0.44870  Biso   1.000  H
  C153     1.0000 0.98970  0.58320  0.35620  Biso   1.000  C
  H66      1.0000 0.96140  0.56770  0.33310  Biso   1.000  H
  C154     1.0000 0.13373  0.64800  0.42640  Biso   1.000  C
  C155     1.0000 0.15892  0.73650  0.45160  Biso   1.000  C
  H67      1.0000 0.14910  0.80200  0.43560  Biso   1.000  H
  C156     1.0000 0.19911  0.72610  0.50120  Biso   1.000  C
  H68      1.0000 0.21690  0.78300  0.51610  Biso   1.000  H
  C157     1.0000 0.21046  0.63160  0.52560  Biso   1.000  C
  C158     1.0000 0.18680  0.54110  0.50400  Biso   1.000  C
  H69      1.0000 0.19620  0.47650  0.52180  Biso   1.000  H
  C159     1.0000 0.14730  0.55460  0.45280  Biso   1.000  C
  H70      1.0000 0.13020  0.49670  0.43690  Biso   1.000  H
  C160     1.0000 0.25180  0.61740  0.57760  Biso   1.000  C
  N25      1.0000 0.94488  0.00390  0.19890  Biso   1.000  N
  N26      1.0000 0.00574  0.87510  0.17613  Biso   1.000  N
  N27      1.0000 0.84560  0.01960  0.78780  Biso   1.000  N
  N28      1.0000 0.05756  0.74530  0.27319  Biso   1.000  N
  N29      1.0000 0.01623  0.61950  0.33250  Biso   1.000  N
  N30      1.0000 0.28428  0.60390  0.61520  Biso   1.000  N
  C161     1.0000 0.41840  0.54950  0.22030  Biso   1.000  C
  H71      1.0000 0.42480  0.56650  0.26100  Biso   1.000  H
  C162     1.0000 0.37900  0.56680  0.16970  Biso   1.000  C
  H72      1.0000 0.35490  0.59540  0.17160  Biso   1.000  H
  C163     1.0000 0.38296  0.53500  0.11970  Biso   1.000  C
  H73      1.0000 0.36210  0.53840  0.08000  Biso   1.000  H
  C164     1.0000 0.42361  0.49540  0.13650  Biso   1.000  C
  C165     1.0000 0.44148  0.45120  0.09740  Biso   1.000  C
  C166     1.0000 0.48033  0.40360  0.11630  Biso   1.000  C
  C167     1.0000 0.50360  0.37680  0.07910  Biso   1.000  C
  H74      1.0000 0.49480  0.38960  0.03740  Biso   1.000  H
  C168     1.0000 0.54018  0.33010  0.11600  Biso   1.000  C
  H75      1.0000 0.56100  0.30480  0.10430  Biso   1.000  H
  C169     1.0000 0.54086  0.32690  0.17550  Biso   1.000  C
  C170     1.0000 0.41701  0.46740  0.03020  Biso   1.000  C
  C171     1.0000 0.40510  0.56580  0.00660  Biso   1.000  C
  C172     1.0000 0.38570  0.57610  0.94340  Biso   1.000  C
  C173     1.0000 0.37696  0.49450  0.90450  Biso   1.000  C
  C174     1.0000 0.38740  0.39240  0.92840  Biso   1.000  C
  C175     1.0000 0.40920  0.38110  0.99220  Biso   1.000  C
  C176     1.0000 0.35910  0.51000  0.83900  Biso   1.000  C
  C177     1.0000 0.57196  0.27930  0.23110  Biso   1.000  C
  C178     1.0000 0.61480  0.25950  0.24840  Biso   1.000  C
  H76      1.0000 0.63050  0.27450  0.22580  Biso   1.000  H
  C179     1.0000 0.62945  0.21370  0.30520  Biso   1.000  C
  H77      1.0000 0.65710  0.19260  0.32870  Biso   1.000  H
  C180     1.0000 0.59372  0.20470  0.32120  Biso   1.000  C
  C181     1.0000 0.59165  0.16250  0.37390  Biso   1.000  C
  C182     1.0000 0.55728  0.12680  0.38010  Biso   1.000  C
  C183     1.0000 0.55252  0.09350  0.43450  Biso   1.000  C
  H78      1.0000 0.57460  0.08750  0.47310  Biso   1.000  H
  C184     1.0000 0.51030  0.07140  0.42160  Biso   1.000  C
  H79      1.0000 0.49830  0.05330  0.44870  Biso   1.000  H
  C185     1.0000 0.48970  0.08320  0.35620  Biso   1.000  C
  H80      1.0000 0.46140  0.06770  0.33310  Biso   1.000  H
  C186     1.0000 0.63373  0.14800  0.42640  Biso   1.000  C
  C187     1.0000 0.65892  0.23650  0.45160  Biso   1.000  C
  H81      1.0000 0.64910  0.30200  0.43560  Biso   1.000  H
  C188     1.0000 0.69911  0.22610  0.50120  Biso   1.000  C
  H82      1.0000 0.71690  0.28300  0.51610  Biso   1.000  H
  C189     1.0000 0.71046  0.13160  0.52560  Biso   1.000  C
  C190     1.0000 0.68680  0.04110  0.50400  Biso   1.000  C
  H83      1.0000 0.69620  0.97650  0.52180  Biso   1.000  H
  C191     1.0000 0.64730  0.05460  0.45280  Biso   1.000  C
  H84      1.0000 0.63020  0.99670  0.43690  Biso   1.000  H
  C192     1.0000 0.75180  0.11740  0.57760  Biso   1.000  C
  N31      1.0000 0.44488  0.50390  0.19890  Biso   1.000  N
  N32      1.0000 0.50574  0.37510  0.17613  Biso   1.000  N
  N33      1.0000 0.34560  0.51960  0.78780  Biso   1.000  N
  N34      1.0000 0.55756  0.24530  0.27319  Biso   1.000  N
  N35      1.0000 0.51623  0.11950  0.33250  Biso   1.000  N
  N36      1.0000 0.78428  0.10390  0.61520  Biso   1.000  N
  C193     1.0000 0.08160  0.04950  0.27970  Biso   1.000  C
  H85      1.0000 0.07520  0.06650  0.23900  Biso   1.000  H
  C194     1.0000 0.12100  0.06680  0.33030  Biso   1.000  C
  H86      1.0000 0.14510  0.09540  0.32840  Biso   1.000  H
  C195     1.0000 0.11704  0.03500  0.38030  Biso   1.000  C
  H87      1.0000 0.13790  0.03840  0.42000  Biso   1.000  H
  C196     1.0000 0.07639  0.99540  0.36350  Biso   1.000  C
  C197     1.0000 0.05852  0.95120  0.40260  Biso   1.000  C
  C198     1.0000 0.01967  0.90360  0.38370  Biso   1.000  C
  C199     1.0000 0.99640  0.87680  0.42090  Biso   1.000  C
  H88      1.0000 0.00520  0.88960  0.46260  Biso   1.000  H
  C200     1.0000 0.95982  0.83010  0.38400  Biso   1.000  C
  H89      1.0000 0.93900  0.80480  0.39570  Biso   1.000  H
  C201     1.0000 0.95914  0.82690  0.32450  Biso   1.000  C
  C202     1.0000 0.08299  0.96740  0.46980  Biso   1.000  C
  C203     1.0000 0.09490  0.06580  0.49340  Biso   1.000  C
  C204     1.0000 0.11430  0.07610  0.55660  Biso   1.000  C
  C205     1.0000 0.12304  0.99450  0.59550  Biso   1.000  C
  C206     1.0000 0.11260  0.89240  0.57160  Biso   1.000  C
  C207     1.0000 0.09080  0.88110  0.50780  Biso   1.000  C
  C208     1.0000 0.14090  0.01000  0.66100  Biso   1.000  C
  C209     1.0000 0.92804  0.77930  0.26890  Biso   1.000  C
  C210     1.0000 0.88520  0.75950  0.25160  Biso   1.000  C
  H90      1.0000 0.86950  0.77450  0.27420  Biso   1.000  H
  C211     1.0000 0.87055  0.71370  0.19480  Biso   1.000  C
  H91      1.0000 0.84290  0.69260  0.17130  Biso   1.000  H
  C212     1.0000 0.90628  0.70470  0.17880  Biso   1.000  C
  C213     1.0000 0.90835  0.66250  0.12610  Biso   1.000  C
  C214     1.0000 0.94272  0.62680  0.11990  Biso   1.000  C
  C215     1.0000 0.94748  0.59350  0.06550  Biso   1.000  C
  H92      1.0000 0.92540  0.58750  0.02690  Biso   1.000  H
  C216     1.0000 0.98970  0.57140  0.07840  Biso   1.000  C
  H93      1.0000 0.00170  0.55330  0.05130  Biso   1.000  H
  C217     1.0000 0.01030  0.58320  0.14380  Biso   1.000  C
  H94      1.0000 0.03860  0.56770  0.16690  Biso   1.000  H
  C218     1.0000 0.86627  0.64800  0.07360  Biso   1.000  C
  C219     1.0000 0.84108  0.73650  0.04840  Biso   1.000  C
  H95      1.0000 0.85090  0.80200  0.06440  Biso   1.000  H
  C220     1.0000 0.80089  0.72610  0.99880  Biso   1.000  C
  H96      1.0000 0.78310  0.78300  0.98390  Biso   1.000  H
  C221     1.0000 0.78954  0.63160  0.97440  Biso   1.000  C
  C222     1.0000 0.81320  0.54110  0.99600  Biso   1.000  C
  H97      1.0000 0.80380  0.47650  0.97820  Biso   1.000  H
  C223     1.0000 0.85270  0.55460  0.04720  Biso   1.000  C
  H98      1.0000 0.86980  0.49670  0.06310  Biso   1.000  H
  C224     1.0000 0.74820  0.61740  0.92240  Biso   1.000  C
  N37      1.0000 0.05512  0.00390  0.30110  Biso   1.000  N
  N38      1.0000 0.99426  0.87510  0.32387  Biso   1.000  N
  N39      1.0000 0.15440  0.01960  0.71220  Biso   1.000  N
  N40      1.0000 0.94244  0.74530  0.22681  Biso   1.000  N
  N41      1.0000 0.98377  0.61950  0.16750  Biso   1.000  N
  N42      1.0000 0.71572  0.60390  0.88480  Biso   1.000  N
  C225     1.0000 0.58160  0.54950  0.27970  Biso   1.000  C
  H99      1.0000 0.57520  0.56650  0.23900  Biso   1.000  H
  C226     1.0000 0.62100  0.56680  0.33030  Biso   1.000  C
  H100     1.0000 0.64510  0.59540  0.32840  Biso   1.000  H
  C227     1.0000 0.61704  0.53500  0.38030  Biso   1.000  C
  H101     1.0000 0.63790  0.53840  0.42000  Biso   1.000  H
  C228     1.0000 0.57639  0.49540  0.36350  Biso   1.000  C
  C229     1.0000 0.55852  0.45120  0.40260  Biso   1.000  C
  C230     1.0000 0.51967  0.40360  0.38370  Biso   1.000  C
  C231     1.0000 0.49640  0.37680  0.42090  Biso   1.000  C
  H102     1.0000 0.50520  0.38960  0.46260  Biso   1.000  H
  C232     1.0000 0.45982  0.33010  0.38400  Biso   1.000  C
  H103     1.0000 0.43900  0.30480  0.39570  Biso   1.000  H
  C233     1.0000 0.45914  0.32690  0.32450  Biso   1.000  C
  C234     1.0000 0.58299  0.46740  0.46980  Biso   1.000  C
  C235     1.0000 0.59490  0.56580  0.49340  Biso   1.000  C
  C236     1.0000 0.61430  0.57610  0.55660  Biso   1.000  C
  C237     1.0000 0.62304  0.49450  0.59550  Biso   1.000  C
  C238     1.0000 0.61260  0.39240  0.57160  Biso   1.000  C
  C239     1.0000 0.59080  0.38110  0.50780  Biso   1.000  C
  C240     1.0000 0.64090  0.51000  0.66100  Biso   1.000  C
  C241     1.0000 0.42804  0.27930  0.26890  Biso   1.000  C
  C242     1.0000 0.38520  0.25950  0.25160  Biso   1.000  C
  H104     1.0000 0.36950  0.27450  0.27420  Biso   1.000  H
  C243     1.0000 0.37055  0.21370  0.19480  Biso   1.000  C
  H105     1.0000 0.34290  0.19260  0.17130  Biso   1.000  H
  C244     1.0000 0.40628  0.20470  0.17880  Biso   1.000  C
  C245     1.0000 0.40835  0.16250  0.12610  Biso   1.000  C
  C246     1.0000 0.44272  0.12680  0.11990  Biso   1.000  C
  C247     1.0000 0.44748  0.09350  0.06550  Biso   1.000  C
  H106     1.0000 0.42540  0.08750  0.02690  Biso   1.000  H
  C248     1.0000 0.48970  0.07140  0.07840  Biso   1.000  C
  H107     1.0000 0.50170  0.05330  0.05130  Biso   1.000  H
  C249     1.0000 0.51030  0.08320  0.14380  Biso   1.000  C
  H108     1.0000 0.53860  0.06770  0.16690  Biso   1.000  H
  C250     1.0000 0.36627  0.14800  0.07360  Biso   1.000  C
  C251     1.0000 0.34108  0.23650  0.04840  Biso   1.000  C
  H109     1.0000 0.35090  0.30200  0.06440  Biso   1.000  H
  C252     1.0000 0.30089  0.22610  0.99880  Biso   1.000  C
  H110     1.0000 0.28310  0.28300  0.98390  Biso   1.000  H
  C253     1.0000 0.28954  0.13160  0.97440  Biso   1.000  C
  C254     1.0000 0.31320  0.04110  0.99600  Biso   1.000  C
  H111     1.0000 0.30380  0.97650  0.97820  Biso   1.000  H
  C255     1.0000 0.35270  0.05460  0.04720  Biso   1.000  C
  H112     1.0000 0.36980  0.99670  0.06310  Biso   1.000  H
  C256     1.0000 0.24820  0.11740  0.92240  Biso   1.000  C
  N43      1.0000 0.55512  0.50390  0.30110  Biso   1.000  N
  N44      1.0000 0.49426  0.37510  0.32387  Biso   1.000  N
  N45      1.0000 0.65440  0.51960  0.71220  Biso   1.000  N
  N46      1.0000 0.44244  0.24530  0.22681  Biso   1.000  N
  N47      1.0000 0.48377  0.11950  0.16750  Biso   1.000  N
  N48      1.0000 0.21572  0.10390  0.88480  Biso   1.000  N
  Zn5      1.0000 0.00000  0.93314  0.25000  Biso   1.000  Zn
  Zn6      1.0000 0.00000  0.68575  0.25000  Biso   1.000  Zn
  Zn7      1.0000 0.50000  0.43314  0.25000  Biso   1.000  Zn
  Zn8      1.0000 0.50000  0.18575  0.25000  Biso   1.000  Zn
