data_GIWBIY_charged
_audit_creation_date              2014-07-02
_audit_creation_method            'Materials Studio'
_symmetry_space_group_name_H-M    'P1'
_symmetry_Int_Tables_number       1
_symmetry_cell_setting            triclinic
loop_
_symmetry_equiv_pos_as_xyz
  x,y,z
_cell_length_a                    13.2080
_cell_length_b                    16.9219
_cell_length_c                    31.7120
_cell_angle_alpha                 82.8810
_cell_angle_beta                  77.9802
_cell_angle_gamma                 67.0290
loop_
_atom_site_label
_atom_site_type_symbol
_atom_site_fract_x
_atom_site_fract_y
_atom_site_fract_z
_atom_site_U_iso_or_equiv
_atom_site_adp_type
_atom_site_occupancy
In1    In    0.89936   0.20665   0.91217   0.01267  Uiso   1.00
In2    In    0.98182   0.70665   0.41217   0.01267  Uiso   1.00
Ag1    Ag    0.97531   0.73218   0.73088   0.01267  Uiso   1.00
Ag2    Ag    0.56163   0.23218   0.23088   0.01267  Uiso   1.00
H1     H     0.16520   0.16380   0.86920   0.01267  Uiso   1.00
H2     H     0.27790   0.07180   0.80700   0.01267  Uiso   1.00
H3     H     0.17080   0.98350   0.79510   0.01267  Uiso   1.00
H4     H     0.76990   0.97500   0.86300   0.01267  Uiso   1.00
H5     H     0.61480   0.05600   0.92080   0.01267  Uiso   1.00
H6     H     0.66910   0.16300   0.94760   0.01267  Uiso   1.00
H7     H     0.85520   0.03490   0.78090   0.01267  Uiso   1.00
H8     H     0.88440   0.92780   0.73440   0.01267  Uiso   1.00
H9     H     0.12110   0.76180   0.79260   0.01267  Uiso   1.00
H10    H     0.10080   0.86330   0.84030   0.01267  Uiso   1.00
H11    H     0.86950   0.55960   0.44820   0.01267  Uiso   1.00
H12    H     0.82030   0.50970   0.52450   0.01267  Uiso   1.00
H13    H     0.86930   0.58950   0.57170   0.01267  Uiso   1.00
H14    H     0.04010   0.83380   0.54620   0.01267  Uiso   1.00
H15    H     0.08640   0.92470   0.48130   0.01267  Uiso   1.00
H16    H     0.06370   0.86520   0.41700   0.01267  Uiso   1.00
H17    H     0.80970   0.80690   0.58890   0.01267  Uiso   1.00
H18    H     0.81470   0.81020   0.66120   0.01267  Uiso   1.00
H19    H     0.10670   0.61850   0.65090   0.01267  Uiso   1.00
H20    H     0.10910   0.61020   0.57740   0.01267  Uiso   1.00
H21    H     0.04990   0.26080   0.96520   0.01267  Uiso   1.00
H22    H     0.11820   0.38070   0.94930   0.01267  Uiso   1.00
H23    H     0.04140   0.46670   0.88550   0.01267  Uiso   1.00
H24    H     0.80030   0.42940   0.77800   0.01267  Uiso   1.00
H25    H     0.70390   0.32980   0.77560   0.01267  Uiso   1.00
H26    H     0.74170   0.22600   0.83880   0.01267  Uiso   1.00
H27    H     0.09760   0.42190   0.80010   0.01267  Uiso   1.00
H28    H     0.11080   0.54220   0.75920   0.01267  Uiso   1.00
H29    H     0.78900   0.67280   0.79340   0.01267  Uiso   1.00
H30    H     0.76570   0.54810   0.83030   0.01267  Uiso   1.00
H31    H     0.80180   0.66380   0.36920   0.01267  Uiso   1.00
H32    H     0.84330   0.57180   0.30700   0.01267  Uiso   1.00
H33    H     0.05060   0.48350   0.29510   0.01267  Uiso   1.00
H34    H     0.39210   0.47500   0.36300   0.01267  Uiso   1.00
H35    H     0.40840   0.55600   0.42080   0.01267  Uiso   1.00
H36    H     0.22030   0.66300   0.44760   0.01267  Uiso   1.00
H37    H     0.32900   0.53490   0.28090   0.01267  Uiso   1.00
H38    H     0.45340   0.42780   0.23440   0.01267  Uiso   1.00
H39    H     0.32450   0.26180   0.29260   0.01267  Uiso   1.00
H40    H     0.19560   0.36330   0.34030   0.01267  Uiso   1.00
H41    H     0.12270   0.05960   0.94820   0.01267  Uiso   1.00
H42    H     0.14550   0.00970   0.02450   0.01267  Uiso   1.00
H43    H     0.96950   0.08950   0.07170   0.01267  Uiso   1.00
H44    H     0.57990   0.33380   0.04620   0.01267  Uiso   1.00
H45    H     0.50760   0.42470   0.98130   0.01267  Uiso   1.00
H46    H     0.65410   0.36520   0.91700   0.01267  Uiso   1.00
H47    H     0.79450   0.30690   0.08890   0.01267  Uiso   1.00
H48    H     0.71390   0.31020   0.16120   0.01267  Uiso   1.00
H49    H     0.62390   0.11850   0.15090   0.01267  Uiso   1.00
H50    H     0.70330   0.11020   0.07740   0.01267  Uiso   1.00
H51    H     0.72410   0.76080   0.46520   0.01267  Uiso   1.00
H52    H     0.55180   0.88070   0.44930   0.01267  Uiso   1.00
H53    H     0.60640   0.96670   0.38550   0.01267  Uiso   1.00
H54    H     0.99230   0.92940   0.27800   0.01267  Uiso   1.00
H55    H     0.19070   0.82980   0.27560   0.01267  Uiso   1.00
H56    H     0.19350   0.72600   0.33880   0.01267  Uiso   1.00
H57    H     0.68040   0.92190   0.30010   0.01267  Uiso   1.00
H58    H     0.58780   0.04220   0.25920   0.01267  Uiso   1.00
H59    H     0.74480   0.17280   0.29340   0.01267  Uiso   1.00
H60    H     0.85590   0.04810   0.33030   0.01267  Uiso   1.00
C1     C     0.14210   0.12710   0.85650   0.01267  Uiso   1.00
C2     C     0.20680   0.07460   0.82240   0.01267  Uiso   1.00
C3     C     0.14710   0.02690   0.81530   0.01267  Uiso   1.00
C4     C     0.04450   0.05550   0.84410   0.01267  Uiso   1.00
C5     C     0.95580   0.02860   0.84700   0.01267  Uiso   1.00
C6     C     0.85050   0.05500   0.87460   0.01267  Uiso   1.00
C7     C     0.76780   0.02000   0.87880   0.01267  Uiso   1.00
C8     C     0.68290   0.06460   0.91080   0.01267  Uiso   1.00
C9     C     0.71360   0.12380   0.92580   0.01267  Uiso   1.00
C10    C     0.97330   0.96120   0.81660   0.01267  Uiso   1.00
C11    C     0.91020   0.97910   0.78430   0.01267  Uiso   1.00
C12    C     0.92790   0.91400   0.75660   0.01267  Uiso   1.00
C13    C     0.06580   0.81780   0.79060   0.01267  Uiso   1.00
C14    C     0.05410   0.87830   0.81910   0.01267  Uiso   1.00
C15    C     0.88030   0.57990   0.47290   0.01267  Uiso   1.00
C16    C     0.85240   0.55180   0.51540   0.01267  Uiso   1.00
C17    C     0.87950   0.59510   0.54110   0.01267  Uiso   1.00
C18    C     0.92660   0.65180   0.51420   0.01267  Uiso   1.00
C19    C     0.96270   0.70987   0.52713   0.01267  Uiso   1.00
C20    C     0.00260   0.76900   0.50260   0.01267  Uiso   1.00
C21    C     0.03620   0.82840   0.51720   0.01267  Uiso   1.00
C22    C     0.06310   0.87820   0.48140   0.01267  Uiso   1.00
C23    C     0.04820   0.84490   0.44590   0.01267  Uiso   1.00
C24    C     0.96000   0.71050   0.57530   0.01267  Uiso   1.00
C25    C     0.87260   0.76830   0.60070   0.01267  Uiso   1.00
C26    C     0.87640   0.77020   0.64380   0.01267  Uiso   1.00
C27    C     0.04670   0.65830   0.63790   0.01267  Uiso   1.00
C28    C     0.04860   0.65260   0.59400   0.01267  Uiso   1.00
C29    C     0.03700   0.30090   0.94130   0.01267  Uiso   1.00
C30    C     0.07330   0.36870   0.93310   0.01267  Uiso   1.00
C31    C     0.03290   0.41500   0.89780   0.01267  Uiso   1.00
C32    C     0.97610   0.37130   0.88290   0.01267  Uiso   1.00
C33    C     0.92060   0.39610   0.84750   0.01267  Uiso   1.00
C34    C     0.85470   0.35860   0.83420   0.01267  Uiso   1.00
C35    C     0.80010   0.38280   0.79800   0.01267  Uiso   1.00
C36    C     0.74680   0.32850   0.79650   0.01267  Uiso   1.00
C37    C     0.76880   0.27120   0.83180   0.01267  Uiso   1.00
C38    C     0.93120   0.47280   0.82040   0.01267  Uiso   1.00
C39    C     0.03220   0.47210   0.79870   0.01267  Uiso   1.00
C40    C     0.03980   0.54450   0.77450   0.01267  Uiso   1.00
C41    C     0.85190   0.62040   0.79360   0.01267  Uiso   1.00
C42    C     0.83800   0.54650   0.81710   0.01267  Uiso   1.00
C43    C     0.87430   0.62710   0.35650   0.01267  Uiso   1.00
C44    C     0.89620   0.57460   0.32240   0.01267  Uiso   1.00
C45    C     0.01070   0.52690   0.31530   0.01267  Uiso   1.00
C46    C     0.05590   0.55550   0.34410   0.01267  Uiso   1.00
C47    C     0.16860   0.52860   0.34700   0.01267  Uiso   1.00
C48    C     0.21990   0.55500   0.37460   0.01267  Uiso   1.00
C49    C     0.33340   0.52000   0.37880   0.01267  Uiso   1.00
C50    C     0.34170   0.56460   0.41080   0.01267  Uiso   1.00
C51    C     0.23680   0.62380   0.42580   0.01267  Uiso   1.00
C52    C     0.24890   0.46120   0.31660   0.01267  Uiso   1.00
C53    C     0.32640   0.47910   0.28430   0.01267  Uiso   1.00
C54    C     0.40150   0.41400   0.25660   0.01267  Uiso   1.00
C55    C     0.32580   0.31780   0.29060   0.01267  Uiso   1.00
C56    C     0.24850   0.37830   0.31910   0.01267  Uiso   1.00
C57    C     0.06690   0.07990   0.97290   0.01267  Uiso   1.00
C58    C     0.08040   0.05180   0.01540   0.01267  Uiso   1.00
C59    C     0.98430   0.09510   0.04110   0.01267  Uiso   1.00
C60    C     0.90740   0.15180   0.01420   0.01267  Uiso   1.00
C61    C     0.80030   0.20987   0.02713   0.01267  Uiso   1.00
C62    C     0.72580   0.26900   0.00260   0.01267  Uiso   1.00
C63    C     0.61820   0.32840   0.01720   0.01267  Uiso   1.00
C64    C     0.57730   0.37820   0.98140   0.01267  Uiso   1.00
C65    C     0.66100   0.34490   0.94590   0.01267  Uiso   1.00
C66    C     0.75420   0.21050   0.07530   0.01267  Uiso   1.00
C67    C     0.75840   0.26830   0.10070   0.01267  Uiso   1.00
C68    C     0.70960   0.27020   0.14380   0.01267  Uiso   1.00
C69    C     0.65710   0.15830   0.13790   0.01267  Uiso   1.00
C70    C     0.70480   0.15260   0.09400   0.01267  Uiso   1.00
C71    C     0.72080   0.80090   0.44130   0.01267  Uiso   1.00
C72    C     0.62490   0.86870   0.43310   0.01267  Uiso   1.00
C73    C     0.65430   0.91500   0.39780   0.01267  Uiso   1.00
C74    C     0.76970   0.87130   0.38290   0.01267  Uiso   1.00
C75    C     0.83580   0.89610   0.34750   0.01267  Uiso   1.00
C76    C     0.95250   0.85860   0.33420   0.01267  Uiso   1.00
C77    C     0.01910   0.88280   0.29800   0.01267  Uiso   1.00
C78    C     0.12820   0.82850   0.29650   0.01267  Uiso   1.00
C79    C     0.12820   0.77120   0.33180   0.01267  Uiso   1.00
C80    C     0.77560   0.97280   0.32040   0.01267  Uiso   1.00
C81    C     0.69700   0.97210   0.29870   0.01267  Uiso   1.00
C82    C     0.64120   0.04450   0.27450   0.01267  Uiso   1.00
C83    C     0.73410   0.12040   0.29360   0.01267  Uiso   1.00
C84    C     0.79840   0.04650   0.31710   0.01267  Uiso   1.00
N1     N     0.04380   0.11881   0.86879   0.01267  Uiso   1.00
N2     N     0.81752   0.11744   0.90452   0.01267  Uiso   1.00
N3     N     0.00060   0.83632   0.75988   0.01267  Uiso   1.00
N4     N     0.92450   0.63992   0.47148   0.01267  Uiso   1.00
N5     N     0.00990   0.78177   0.45703   0.01267  Uiso   1.00
N6     N     0.96400   0.71760   0.66200   0.01267  Uiso   1.00
N7     N     0.98060   0.29987   0.91053   0.01267  Uiso   1.00
N8     N     0.83290   0.28711   0.85509   0.01267  Uiso   1.00
N9     N     0.95100   0.61700   0.77200   0.01267  Uiso   1.00
N10    N     0.96860   0.61881   0.36879   0.01267  Uiso   1.00
N11    N     0.16052   0.61744   0.40452   0.01267  Uiso   1.00
N12    N     0.40320   0.33632   0.25988   0.01267  Uiso   1.00
N13    N     0.96410   0.13992   0.97148   0.01267  Uiso   1.00
N14    N     0.75130   0.28177   0.95703   0.01267  Uiso   1.00
N15    N     0.65640   0.21760   0.16200   0.01267  Uiso   1.00
N16    N     0.80900   0.79987   0.41053   0.01267  Uiso   1.00
N17    N     0.02490   0.78711   0.35509   0.01267  Uiso   1.00
N18    N     0.66000   0.11700   0.27200   0.01267  Uiso   1.00
In3    In    0.01818   0.29335   0.58783   0.01267  Uiso   1.00
In4    In    0.10064   0.79335   0.08783   0.01267  Uiso   1.00
Ag3    Ag    0.43837   0.76782   0.76912   0.01267  Uiso   1.00
Ag4    Ag    0.02469   0.26782   0.26912   0.01267  Uiso   1.00
H61    H     0.19820   0.33620   0.63080   0.01267  Uiso   1.00
H62    H     0.15670   0.42820   0.69300   0.01267  Uiso   1.00
H63    H     0.94940   0.51650   0.70490   0.01267  Uiso   1.00
H64    H     0.60790   0.52500   0.63700   0.01267  Uiso   1.00
H65    H     0.59160   0.44400   0.57920   0.01267  Uiso   1.00
H66    H     0.77970   0.33700   0.55240   0.01267  Uiso   1.00
H67    H     0.67100   0.46510   0.71910   0.01267  Uiso   1.00
H68    H     0.54660   0.57220   0.76560   0.01267  Uiso   1.00
H69    H     0.67550   0.73820   0.70740   0.01267  Uiso   1.00
H70    H     0.80440   0.63670   0.65970   0.01267  Uiso   1.00
H71    H     0.87730   0.94040   0.05180   0.01267  Uiso   1.00
H72    H     0.85450   0.99030   0.97550   0.01267  Uiso   1.00
H73    H     0.03050   0.91050   0.92830   0.01267  Uiso   1.00
H74    H     0.42010   0.66620   0.95380   0.01267  Uiso   1.00
H75    H     0.49240   0.57530   0.01870   0.01267  Uiso   1.00
H76    H     0.34590   0.63480   0.08300   0.01267  Uiso   1.00
H77    H     0.20550   0.69310   0.91110   0.01267  Uiso   1.00
H78    H     0.28610   0.68980   0.83880   0.01267  Uiso   1.00
H79    H     0.37610   0.88150   0.84910   0.01267  Uiso   1.00
H80    H     0.29670   0.88980   0.92260   0.01267  Uiso   1.00
H81    H     0.27590   0.23920   0.53480   0.01267  Uiso   1.00
H82    H     0.44820   0.11930   0.55070   0.01267  Uiso   1.00
H83    H     0.39360   0.03330   0.61450   0.01267  Uiso   1.00
H84    H     0.00770   0.07060   0.72200   0.01267  Uiso   1.00
H85    H     0.80930   0.17020   0.72440   0.01267  Uiso   1.00
H86    H     0.80650   0.27400   0.66120   0.01267  Uiso   1.00
H87    H     0.31960   0.07810   0.69990   0.01267  Uiso   1.00
H88    H     0.41220   0.95780   0.74080   0.01267  Uiso   1.00
H89    H     0.25520   0.82720   0.70660   0.01267  Uiso   1.00
H90    H     0.14410   0.95190   0.66970   0.01267  Uiso   1.00
H91    H     0.83480   0.83620   0.13080   0.01267  Uiso   1.00
H92    H     0.72210   0.92820   0.19300   0.01267  Uiso   1.00
H93    H     0.82920   0.01650   0.20490   0.01267  Uiso   1.00
H94    H     0.23010   0.02500   0.13700   0.01267  Uiso   1.00
H95    H     0.38520   0.94400   0.07920   0.01267  Uiso   1.00
H96    H     0.33090   0.83700   0.05240   0.01267  Uiso   1.00
H97    H     0.14480   0.96510   0.21910   0.01267  Uiso   1.00
H98    H     0.11560   0.07220   0.26560   0.01267  Uiso   1.00
H99    H     0.87890   0.23820   0.20740   0.01267  Uiso   1.00
H100   H     0.89920   0.13670   0.15970   0.01267  Uiso   1.00
H101   H     0.13050   0.44040   0.55180   0.01267  Uiso   1.00
H102   H     0.17970   0.49030   0.47550   0.01267  Uiso   1.00
H103   H     0.13070   0.41050   0.42830   0.01267  Uiso   1.00
H104   H     0.95990   0.16620   0.45380   0.01267  Uiso   1.00
H105   H     0.91360   0.07530   0.51870   0.01267  Uiso   1.00
H106   H     0.93630   0.13480   0.58300   0.01267  Uiso   1.00
H107   H     0.19030   0.19310   0.41110   0.01267  Uiso   1.00
H108   H     0.18530   0.18980   0.33880   0.01267  Uiso   1.00
H109   H     0.89330   0.38150   0.34910   0.01267  Uiso   1.00
H110   H     0.89090   0.38980   0.42260   0.01267  Uiso   1.00
H111   H     0.95010   0.73920   0.03480   0.01267  Uiso   1.00
H112   H     0.88180   0.61930   0.05070   0.01267  Uiso   1.00
H113   H     0.95860   0.53330   0.11450   0.01267  Uiso   1.00
H114   H     0.19970   0.57060   0.22200   0.01267  Uiso   1.00
H115   H     0.29610   0.67020   0.22440   0.01267  Uiso   1.00
H116   H     0.25830   0.77400   0.16120   0.01267  Uiso   1.00
H117   H     0.90240   0.57810   0.19990   0.01267  Uiso   1.00
H118   H     0.88920   0.45780   0.24080   0.01267  Uiso   1.00
H119   H     0.21100   0.32720   0.20660   0.01267  Uiso   1.00
H120   H     0.23430   0.45190   0.16970   0.01267  Uiso   1.00
C85    C     0.12570   0.37290   0.64350   0.01267  Uiso   1.00
C86    C     0.10380   0.42540   0.67760   0.01267  Uiso   1.00
C87    C     0.98930   0.47310   0.68470   0.01267  Uiso   1.00
C88    C     0.94410   0.44450   0.65590   0.01267  Uiso   1.00
C89    C     0.83140   0.47140   0.65300   0.01267  Uiso   1.00
C90    C     0.78010   0.44500   0.62540   0.01267  Uiso   1.00
C91    C     0.66660   0.48000   0.62120   0.01267  Uiso   1.00
C92    C     0.65830   0.43540   0.58920   0.01267  Uiso   1.00
C93    C     0.76320   0.37620   0.57420   0.01267  Uiso   1.00
C94    C     0.75110   0.53880   0.68340   0.01267  Uiso   1.00
C95    C     0.67360   0.52090   0.71570   0.01267  Uiso   1.00
C96    C     0.59850   0.58600   0.74340   0.01267  Uiso   1.00
C97    C     0.67420   0.68220   0.70940   0.01267  Uiso   1.00
C98    C     0.75150   0.62170   0.68090   0.01267  Uiso   1.00
C99    C     0.93310   0.92010   0.02710   0.01267  Uiso   1.00
C100   C     0.91960   0.94820   0.98460   0.01267  Uiso   1.00
C101   C     0.01570   0.90490   0.95890   0.01267  Uiso   1.00
C102   C     0.09260   0.84820   0.98580   0.01267  Uiso   1.00
C103   C     0.19970   0.79013   0.97287   0.01267  Uiso   1.00
C104   C     0.27420   0.73100   0.99740   0.01267  Uiso   1.00
C105   C     0.38180   0.67160   0.98280   0.01267  Uiso   1.00
C106   C     0.42270   0.62180   0.01860   0.01267  Uiso   1.00
C107   C     0.33900   0.65510   0.05410   0.01267  Uiso   1.00
C108   C     0.24580   0.78950   0.92470   0.01267  Uiso   1.00
C109   C     0.24160   0.73170   0.89930   0.01267  Uiso   1.00
C110   C     0.29040   0.72980   0.85620   0.01267  Uiso   1.00
C111   C     0.34290   0.84170   0.86210   0.01267  Uiso   1.00
C112   C     0.29520   0.84740   0.90600   0.01267  Uiso   1.00
C113   C     0.27920   0.19910   0.55870   0.01267  Uiso   1.00
C114   C     0.37510   0.13130   0.56690   0.01267  Uiso   1.00
C115   C     0.34570   0.08500   0.60220   0.01267  Uiso   1.00
C116   C     0.23030   0.12870   0.61710   0.01267  Uiso   1.00
C117   C     0.16420   0.10390   0.65250   0.01267  Uiso   1.00
C118   C     0.04750   0.14140   0.66580   0.01267  Uiso   1.00
C119   C     0.98090   0.11720   0.70200   0.01267  Uiso   1.00
C120   C     0.87180   0.17150   0.70350   0.01267  Uiso   1.00
C121   C     0.87180   0.22880   0.66820   0.01267  Uiso   1.00
C122   C     0.22440   0.02720   0.67960   0.01267  Uiso   1.00
C123   C     0.30300   0.02790   0.70130   0.01267  Uiso   1.00
C124   C     0.35880   0.95550   0.72550   0.01267  Uiso   1.00
C125   C     0.26590   0.87960   0.70640   0.01267  Uiso   1.00
C126   C     0.20160   0.95350   0.68290   0.01267  Uiso   1.00
C127   C     0.85790   0.87290   0.14350   0.01267  Uiso   1.00
C128   C     0.79320   0.92540   0.17760   0.01267  Uiso   1.00
C129   C     0.85290   0.97310   0.18470   0.01267  Uiso   1.00
C130   C     0.95550   0.94450   0.15590   0.01267  Uiso   1.00
C131   C     0.04420   0.97140   0.15300   0.01267  Uiso   1.00
C132   C     0.14950   0.94500   0.12540   0.01267  Uiso   1.00
C133   C     0.23220   0.98000   0.12120   0.01267  Uiso   1.00
C134   C     0.31710   0.93540   0.08920   0.01267  Uiso   1.00
C135   C     0.28640   0.87620   0.07420   0.01267  Uiso   1.00
C136   C     0.02670   0.03880   0.18340   0.01267  Uiso   1.00
C137   C     0.08980   0.02090   0.21570   0.01267  Uiso   1.00
C138   C     0.07210   0.08600   0.24340   0.01267  Uiso   1.00
C139   C     0.93420   0.18220   0.20940   0.01267  Uiso   1.00
C140   C     0.94590   0.12170   0.18090   0.01267  Uiso   1.00
C141   C     0.11970   0.42010   0.52710   0.01267  Uiso   1.00
C142   C     0.14760   0.44820   0.48460   0.01267  Uiso   1.00
C143   C     0.12050   0.40490   0.45890   0.01267  Uiso   1.00
C144   C     0.07340   0.34820   0.48580   0.01267  Uiso   1.00
C145   C     0.03730   0.29013   0.47287   0.01267  Uiso   1.00
C146   C     0.99740   0.23100   0.49740   0.01267  Uiso   1.00
C147   C     0.96380   0.17160   0.48280   0.01267  Uiso   1.00
C148   C     0.93690   0.12180   0.51860   0.01267  Uiso   1.00
C149   C     0.95180   0.15510   0.55410   0.01267  Uiso   1.00
C150   C     0.04000   0.28950   0.42470   0.01267  Uiso   1.00
C151   C     0.12740   0.23170   0.39930   0.01267  Uiso   1.00
C152   C     0.12360   0.22980   0.35620   0.01267  Uiso   1.00
C153   C     0.95330   0.34170   0.36210   0.01267  Uiso   1.00
C154   C     0.95140   0.34740   0.40600   0.01267  Uiso   1.00
C155   C     0.96300   0.69910   0.05870   0.01267  Uiso   1.00
C156   C     0.92670   0.63130   0.06690   0.01267  Uiso   1.00
C157   C     0.96710   0.58500   0.10220   0.01267  Uiso   1.00
C158   C     0.02390   0.62870   0.11710   0.01267  Uiso   1.00
C159   C     0.07940   0.60390   0.15250   0.01267  Uiso   1.00
C160   C     0.14530   0.64140   0.16580   0.01267  Uiso   1.00
C161   C     0.19990   0.61720   0.20200   0.01267  Uiso   1.00
C162   C     0.25320   0.67150   0.20350   0.01267  Uiso   1.00
C163   C     0.23120   0.72880   0.16820   0.01267  Uiso   1.00
C164   C     0.06880   0.52720   0.17960   0.01267  Uiso   1.00
C165   C     0.96780   0.52790   0.20130   0.01267  Uiso   1.00
C166   C     0.96020   0.45550   0.22550   0.01267  Uiso   1.00
C167   C     0.14810   0.37960   0.20640   0.01267  Uiso   1.00
C168   C     0.16200   0.45350   0.18290   0.01267  Uiso   1.00
N19    N     0.03140   0.38119   0.63121   0.01267  Uiso   1.00
N20    N     0.83948   0.38256   0.59548   0.01267  Uiso   1.00
N21    N     0.59680   0.66368   0.74012   0.01267  Uiso   1.00
N22    N     0.03590   0.86008   0.02852   0.01267  Uiso   1.00
N23    N     0.24870   0.71823   0.04297   0.01267  Uiso   1.00
N24    N     0.34360   0.78240   0.83800   0.01267  Uiso   1.00
N25    N     0.19100   0.20013   0.58947   0.01267  Uiso   1.00
N26    N     0.97510   0.21289   0.64491   0.01267  Uiso   1.00
N27    N     0.34000   0.88300   0.72800   0.01267  Uiso   1.00
N28    N     0.95620   0.88119   0.13121   0.01267  Uiso   1.00
N29    N     0.18248   0.88256   0.09548   0.01267  Uiso   1.00
N30    N     0.99940   0.16368   0.24012   0.01267  Uiso   1.00
N31    N     0.07550   0.36008   0.52852   0.01267  Uiso   1.00
N32    N     0.99010   0.21823   0.54297   0.01267  Uiso   1.00
N33    N     0.03600   0.28240   0.33800   0.01267  Uiso   1.00
N34    N     0.01940   0.70013   0.08947   0.01267  Uiso   1.00
N35    N     0.16710   0.71289   0.14491   0.01267  Uiso   1.00
N36    N     0.04900   0.38300   0.22800   0.01267  Uiso   1.00
C169   C     0.35430   0.50410   0.74570   0.01267  Uiso   1.00
S1     S     0.31304   0.61380   0.72988   0.01267  Uiso   1.00
O1     O     0.20170   0.63960   0.72220   0.01267  Uiso   1.00
O2     O     0.39880   0.61800   0.69220   0.01267  Uiso   1.00
O3     O     0.32160   0.65150   0.76710   0.01267  Uiso   1.00
F1     F     0.29640   0.48600   0.78000   0.01267  Uiso   1.00
F2     F     0.34230   0.45900   0.71380   0.01267  Uiso   1.00
F3     F     0.46730   0.46240   0.74500   0.01267  Uiso   1.00
C170   C     0.60410   0.99590   0.75430   0.01267  Uiso   1.00
S2     S     0.65672   0.88620   0.77012   0.01267  Uiso   1.00
O4     O     0.56350   0.86040   0.77780   0.01267  Uiso   1.00
O5     O     0.70900   0.88200   0.80780   0.01267  Uiso   1.00
O6     O     0.74020   0.84850   0.73290   0.01267  Uiso   1.00
F4     F     0.56240   0.01400   0.72000   0.01267  Uiso   1.00
F5     F     0.51510   0.04100   0.78620   0.01267  Uiso   1.00
F6     F     0.67470   0.03760   0.75500   0.01267  Uiso   1.00
C171   C     0.64570   0.49590   0.25430   0.01267  Uiso   1.00
S3     S     0.68696   0.38620   0.27012   0.01267  Uiso   1.00
O7     O     0.79830   0.36040   0.27780   0.01267  Uiso   1.00
O8     O     0.60120   0.38200   0.30780   0.01267  Uiso   1.00
O9     O     0.67840   0.34850   0.23290   0.01267  Uiso   1.00
F7     F     0.70360   0.51400   0.22000   0.01267  Uiso   1.00
F8     F     0.65770   0.54100   0.28620   0.01267  Uiso   1.00
F9     F     0.53270   0.53760   0.25500   0.01267  Uiso   1.00
C172   C     0.39590   0.00410   0.24570   0.01267  Uiso   1.00
S4     S     0.34328   0.11380   0.22988   0.01267  Uiso   1.00
O10    O     0.43650   0.13960   0.22220   0.01267  Uiso   1.00
O11    O     0.29100   0.11800   0.19220   0.01267  Uiso   1.00
O12    O     0.25980   0.15150   0.26710   0.01267  Uiso   1.00
F10    F     0.43760   0.98600   0.28000   0.01267  Uiso   1.00
F11    F     0.48490   0.95900   0.21380   0.01267  Uiso   1.00
F12    F     0.32530   0.96240   0.24500   0.01267  Uiso   1.00
