data_GIWCAR_ion_b
_audit_creation_date              2014-07-02
_audit_creation_method            'Materials Studio'
_symmetry_space_group_name_H-M    'P1'
_symmetry_Int_Tables_number       1
_symmetry_cell_setting            triclinic
loop_
_symmetry_equiv_pos_as_xyz
  x,y,z
_cell_length_a                    16.6441
_cell_length_b                    16.6441
_cell_length_c                    33.1460
_cell_angle_alpha                 114.2648
_cell_angle_beta                  114.2648
_cell_angle_gamma                 45.4407
loop_
_atom_site_label
_atom_site_type_symbol
_atom_site_fract_x
_atom_site_fract_y
_atom_site_fract_z
_atom_site_U_iso_or_equiv
_atom_site_adp_type
_atom_site_occupancy
Ag1    Ag    0.01186   0.42214   0.22645   0.00000  Uiso   1.00
Ga2    Ga    0.54800   0.58218   0.41239   0.00000  Uiso   1.00
C3     C     0.67372   0.33672   0.36053   0.00000  Uiso   1.00
H4     H     0.74530   0.32070   0.37320   0.00000  Uiso   1.00
C5     C     0.65983   0.25823   0.32715   0.00000  Uiso   1.00
H6     H     0.71830   0.18230   0.31410   0.00000  Uiso   1.00
C7     C     0.54522   0.31402   0.31768   0.00000  Uiso   1.00
H8     H     0.50850   0.28430   0.29610   0.00000  Uiso   1.00
C9     C     0.49051   0.42431   0.34573   0.00000  Uiso   1.00
C10    C     0.37402   0.51002   0.34796   0.00000  Uiso   1.00
C11    C     0.32033   0.61933   0.37556   0.00000  Uiso   1.00
C12    C     0.20425   0.70285   0.37988   0.00000  Uiso   1.00
H13    H     0.14640   0.69600   0.36460   0.00000  Uiso   1.00
C14    C     0.19004   0.79744   0.41067   0.00000  Uiso   1.00
H15    H     0.12120   0.86760   0.42060   0.00000  Uiso   1.00
C16    C     0.29754   0.76834   0.42396   0.00000  Uiso   1.00
H17    H     0.31250   0.81810   0.44490   0.00000  Uiso   1.00
C18    C     0.29703   0.48343   0.31750   0.00000  Uiso   1.00
C19    C     0.30742   0.39622   0.32135   0.00000  Uiso   1.00
H20    H     0.36500   0.35140   0.34400   0.00000  Uiso   1.00
C21    C     0.23425   0.37505   0.29244   0.00000  Uiso   1.00
H22    H     0.24380   0.31420   0.29540   0.00000  Uiso   1.00
C23    C     0.14167   0.51767   0.25629   0.00000  Uiso   1.00
H24    H     0.08350   0.56010   0.23310   0.00000  Uiso   1.00
C25    C     0.21141   0.54561   0.28363   0.00000  Uiso   1.00
H26    H     0.20090   0.60570   0.27930   0.00000  Uiso   1.00
C27    C     0.43063   0.62943   0.97223   0.00000  Uiso   1.00
H28    H     0.36860   0.64740   0.94740   0.00000  Uiso   1.00
C29    C     0.42566   0.64666   0.01702   0.00000  Uiso   1.00
H30    H     0.36170   0.67750   0.02730   0.00000  Uiso   1.00
C31    C     0.53019   0.61059   0.04219   0.00000  Uiso   1.00
H32    H     0.55320   0.61140   0.07370   0.00000  Uiso   1.00
C33    C     0.59946   0.57126   0.01300   0.00000  Uiso   1.00
C34    C     0.71129   0.53129   0.02416   0.00000  Uiso   1.00
C35    C     0.77407   0.50547   0.99638   0.00000  Uiso   1.00
C36    C     0.88824   0.46364   0.00754   0.00000  Uiso   1.00
H37    H     0.93740   0.44860   0.03620   0.00000  Uiso   1.00
C38    C     0.91502   0.44882   0.97002   0.00000  Uiso   1.00
H39    H     0.98550   0.42190   0.96730   0.00000  Uiso   1.00
C40    C     0.81622   0.48182   0.93608   0.00000  Uiso   1.00
H41    H     0.81060   0.48020   0.90610   0.00000  Uiso   1.00
C42    C     0.77283   0.51403   0.07237   0.00000  Uiso   1.00
C43    C     0.79812   0.58392   0.10158   0.00000  Uiso   1.00
H44    H     0.77560   0.64520   0.09230   0.00000  Uiso   1.00
C45    C     0.85797   0.56237   0.14532   0.00000  Uiso   1.00
H46    H     0.87440   0.61120   0.16580   0.00000  Uiso   1.00
C47    C     0.86724   0.41044   0.13054   0.00000  Uiso   1.00
H48    H     0.89200   0.34860   0.14030   0.00000  Uiso   1.00
C49    C     0.80667   0.42707   0.08722   0.00000  Uiso   1.00
H50    H     0.78880   0.37860   0.06790   0.00000  Uiso   1.00
C51    C     0.41228   0.68948   0.32911   0.00000  Uiso   1.00
H52    H     0.34280   0.72040   0.33480   0.00000  Uiso   1.00
C53    C     0.42072   0.70152   0.29130   0.00000  Uiso   1.00
H54    H     0.35950   0.74250   0.26820   0.00000  Uiso   1.00
C55    C     0.53442   0.64242   0.29492   0.00000  Uiso   1.00
H56    H     0.56770   0.63270   0.27410   0.00000  Uiso   1.00
C57    C     0.59344   0.59864   0.33499   0.00000  Uiso   1.00
C58    C     0.71098   0.53438   0.35195   0.00000  Uiso   1.00
C59    C     0.76969   0.49049   0.39174   0.00000  Uiso   1.00
C60    C     0.88781   0.43101   0.41108   0.00000  Uiso   1.00
H61    H     0.94390   0.40990   0.39860   0.00000  Uiso   1.00
C62    C     0.90582   0.41002   0.45072   0.00000  Uiso   1.00
H63    H     0.97640   0.37280   0.47150   0.00000  Uiso   1.00
C64    C     0.80058   0.45378   0.45482   0.00000  Uiso   1.00
H65    H     0.78960   0.44900   0.47940   0.00000  Uiso   1.00
C66    C     0.78321   0.50841   0.32501   0.00000  Uiso   1.00
C67    C     0.86072   0.39812   0.30307   0.00000  Uiso   1.00
H68    H     0.87090   0.33630   0.30540   0.00000  Uiso   1.00
C69    C     0.92280   0.37880   0.27797   0.00000  Uiso   1.00
H70    H     0.97660   0.30240   0.26350   0.00000  Uiso   1.00
C71    C     0.83785   0.56605   0.29289   0.00000  Uiso   1.00
H72    H     0.82950   0.62570   0.28950   0.00000  Uiso   1.00
C73    C     0.76911   0.59551   0.31982   0.00000  Uiso   1.00
H74    H     0.71540   0.67280   0.33370   0.00000  Uiso   1.00
N75    N     0.57416   0.43556   0.37191   0.00000  Uiso   1.00
N76    N     0.37745   0.66245   0.40390   0.00000  Uiso   1.00
N77    N     0.15145   0.43505   0.26070   0.00000  Uiso   1.00
N78    N     0.53343   0.58483   0.96922   0.00000  Uiso   1.00
N79    N     0.73123   0.51583   0.95114   0.00000  Uiso   1.00
N80    N     0.89253   0.47653   0.15933   0.00000  Uiso   1.00
N81    N     0.51471   0.62911   0.35542   0.00000  Uiso   1.00
N82    N     0.71744   0.50304   0.42055   0.00000  Uiso   1.00
N83    N     0.91121   0.46201   0.27285   0.00000  Uiso   1.00
P84    P     0.19673   0.12951   0.21417   0.00000  Uiso   1.00
F85    F     0.20015   0.03375   0.21176   0.00000  Uiso   1.00
F86    F     0.27901   0.05201   0.18031   0.00000  Uiso   1.00
F87    F     0.08420   0.22260   0.19716   0.00000  Uiso   1.00
F88    F     0.26195   0.14155   0.25654   0.00000  Uiso   1.00
Ag89   Ag    0.57786   0.98814   0.27355   0.00000  Uiso   1.00
Ga90   Ga    0.41782   0.45200   0.08761   0.00000  Uiso   1.00
C91    C     0.66328   0.32628   0.13947   0.00000  Uiso   1.00
H92    H     0.67930   0.25470   0.12680   0.00000  Uiso   1.00
C93    C     0.74177   0.34017   0.17285   0.00000  Uiso   1.00
H94    H     0.81770   0.28170   0.18590   0.00000  Uiso   1.00
C95    C     0.68598   0.45478   0.18232   0.00000  Uiso   1.00
H96    H     0.71570   0.49150   0.20390   0.00000  Uiso   1.00
C97    C     0.57569   0.50949   0.15427   0.00000  Uiso   1.00
C98    C     0.48998   0.62598   0.15204   0.00000  Uiso   1.00
C99    C     0.38067   0.67967   0.12444   0.00000  Uiso   1.00
C100   C     0.29715   0.79575   0.12012   0.00000  Uiso   1.00
H101   H     0.30400   0.85360   0.13540   0.00000  Uiso   1.00
C102   C     0.20256   0.80996   0.08933   0.00000  Uiso   1.00
H103   H     0.13240   0.87880   0.07940   0.00000  Uiso   1.00
C104   C     0.23166   0.70246   0.07604   0.00000  Uiso   1.00
H105   H     0.18190   0.68750   0.05510   0.00000  Uiso   1.00
C106   C     0.51657   0.70297   0.18250   0.00000  Uiso   1.00
C107   C     0.60378   0.69258   0.17865   0.00000  Uiso   1.00
H108   H     0.64860   0.63500   0.15600   0.00000  Uiso   1.00
C109   C     0.62495   0.76575   0.20756   0.00000  Uiso   1.00
H110   H     0.68580   0.75620   0.20460   0.00000  Uiso   1.00
C111   C     0.48233   0.85833   0.24371   0.00000  Uiso   1.00
H112   H     0.43990   0.91650   0.26690   0.00000  Uiso   1.00
C113   C     0.45439   0.78859   0.21637   0.00000  Uiso   1.00
H114   H     0.39430   0.79910   0.22070   0.00000  Uiso   1.00
C115   C     0.37057   0.56937   0.52777   0.00000  Uiso   1.00
H116   H     0.35260   0.63140   0.55260   0.00000  Uiso   1.00
C117   C     0.35334   0.57434   0.48298   0.00000  Uiso   1.00
H118   H     0.32250   0.63830   0.47270   0.00000  Uiso   1.00
C119   C     0.38941   0.46981   0.45781   0.00000  Uiso   1.00
H120   H     0.38860   0.44680   0.42630   0.00000  Uiso   1.00
C121   C     0.42874   0.40054   0.48700   0.00000  Uiso   1.00
C122   C     0.46871   0.28871   0.47584   0.00000  Uiso   1.00
C123   C     0.49453   0.22593   0.50362   0.00000  Uiso   1.00
C124   C     0.53636   0.11176   0.49246   0.00000  Uiso   1.00
H125   H     0.55140   0.06260   0.46380   0.00000  Uiso   1.00
C126   C     0.55118   0.08498   0.52998   0.00000  Uiso   1.00
H127   H     0.57810   0.01450   0.53270   0.00000  Uiso   1.00
C128   C     0.51818   0.18378   0.56392   0.00000  Uiso   1.00
H129   H     0.51980   0.18940   0.59390   0.00000  Uiso   1.00
C130   C     0.48597   0.22717   0.42763   0.00000  Uiso   1.00
C131   C     0.41608   0.20188   0.39842   0.00000  Uiso   1.00
H132   H     0.35480   0.22440   0.40770   0.00000  Uiso   1.00
C133   C     0.43763   0.14203   0.35468   0.00000  Uiso   1.00
H134   H     0.38880   0.12560   0.33420   0.00000  Uiso   1.00
C135   C     0.58956   0.13276   0.36946   0.00000  Uiso   1.00
H136   H     0.65140   0.10800   0.35970   0.00000  Uiso   1.00
C137   C     0.57293   0.19333   0.41278   0.00000  Uiso   1.00
H138   H     0.62140   0.21120   0.43210   0.00000  Uiso   1.00
C139   C     0.31052   0.58772   0.17089   0.00000  Uiso   1.00
H140   H     0.27960   0.65720   0.16520   0.00000  Uiso   1.00
C141   C     0.29848   0.57928   0.20870   0.00000  Uiso   1.00
H142   H     0.25750   0.64050   0.23180   0.00000  Uiso   1.00
C143   C     0.35758   0.46558   0.20508   0.00000  Uiso   1.00
H144   H     0.36730   0.43230   0.22590   0.00000  Uiso   1.00
C145   C     0.40136   0.40656   0.16501   0.00000  Uiso   1.00
C146   C     0.46562   0.28902   0.14805   0.00000  Uiso   1.00
C147   C     0.50951   0.23031   0.10826   0.00000  Uiso   1.00
C148   C     0.56899   0.11219   0.08892   0.00000  Uiso   1.00
H149   H     0.59010   0.05610   0.10140   0.00000  Uiso   1.00
C150   C     0.58998   0.09418   0.04928   0.00000  Uiso   1.00
H151   H     0.62720   0.02360   0.02850   0.00000  Uiso   1.00
C152   C     0.54622   0.19942   0.04518   0.00000  Uiso   1.00
H153   H     0.55100   0.21040   0.02060   0.00000  Uiso   1.00
C154   C     0.49159   0.21679   0.17499   0.00000  Uiso   1.00
C155   C     0.60188   0.13928   0.19693   0.00000  Uiso   1.00
H156   H     0.66370   0.12910   0.19460   0.00000  Uiso   1.00
C157   C     0.62120   0.07720   0.22203   0.00000  Uiso   1.00
H158   H     0.69760   0.02340   0.23650   0.00000  Uiso   1.00
C159   C     0.43395   0.16215   0.20711   0.00000  Uiso   1.00
H160   H     0.37430   0.17050   0.21050   0.00000  Uiso   1.00
C161   C     0.40449   0.23089   0.18018   0.00000  Uiso   1.00
H162   H     0.32720   0.28460   0.16630   0.00000  Uiso   1.00
N163   N     0.56444   0.42584   0.12809   0.00000  Uiso   1.00
N164   N     0.33755   0.62255   0.09610   0.00000  Uiso   1.00
N165   N     0.56495   0.84855   0.23930   0.00000  Uiso   1.00
N166   N     0.41517   0.46657   0.53078   0.00000  Uiso   1.00
N167   N     0.48417   0.26877   0.54886   0.00000  Uiso   1.00
N168   N     0.52347   0.10747   0.34067   0.00000  Uiso   1.00
N169   N     0.37089   0.48529   0.14458   0.00000  Uiso   1.00
N170   N     0.49696   0.28256   0.07945   0.00000  Uiso   1.00
N171   N     0.53799   0.08879   0.22715   0.00000  Uiso   1.00
P172   P     0.87049   0.80327   0.28583   0.00000  Uiso   1.00
F173   F     0.96625   0.79985   0.28824   0.00000  Uiso   1.00
F174   F     0.94799   0.72099   0.31969   0.00000  Uiso   1.00
F175   F     0.77740   0.91580   0.30284   0.00000  Uiso   1.00
F176   F     0.85845   0.73805   0.24346   0.00000  Uiso   1.00
Ag177  Ag    0.98814   0.57786   0.77355   0.00000  Uiso   1.00
Ga178  Ga    0.45200   0.41782   0.58761   0.00000  Uiso   1.00
C179   C     0.32628   0.66328   0.63947   0.00000  Uiso   1.00
H180   H     0.25470   0.67930   0.62680   0.00000  Uiso   1.00
C181   C     0.34017   0.74177   0.67285   0.00000  Uiso   1.00
H182   H     0.28170   0.81770   0.68590   0.00000  Uiso   1.00
C183   C     0.45478   0.68598   0.68232   0.00000  Uiso   1.00
H184   H     0.49150   0.71570   0.70390   0.00000  Uiso   1.00
C185   C     0.50949   0.57569   0.65427   0.00000  Uiso   1.00
C186   C     0.62598   0.48998   0.65204   0.00000  Uiso   1.00
C187   C     0.67967   0.38067   0.62444   0.00000  Uiso   1.00
C188   C     0.79575   0.29715   0.62012   0.00000  Uiso   1.00
H189   H     0.85360   0.30400   0.63540   0.00000  Uiso   1.00
C190   C     0.80996   0.20256   0.58933   0.00000  Uiso   1.00
H191   H     0.87880   0.13240   0.57940   0.00000  Uiso   1.00
C192   C     0.70246   0.23166   0.57604   0.00000  Uiso   1.00
H193   H     0.68750   0.18190   0.55510   0.00000  Uiso   1.00
C194   C     0.70297   0.51657   0.68250   0.00000  Uiso   1.00
C195   C     0.69258   0.60378   0.67865   0.00000  Uiso   1.00
H196   H     0.63500   0.64860   0.65600   0.00000  Uiso   1.00
C197   C     0.76575   0.62495   0.70756   0.00000  Uiso   1.00
H198   H     0.75620   0.68580   0.70460   0.00000  Uiso   1.00
C199   C     0.85833   0.48233   0.74371   0.00000  Uiso   1.00
H200   H     0.91650   0.43990   0.76690   0.00000  Uiso   1.00
C201   C     0.78859   0.45439   0.71637   0.00000  Uiso   1.00
H202   H     0.79910   0.39430   0.72070   0.00000  Uiso   1.00
C203   C     0.56937   0.37057   0.02777   0.00000  Uiso   1.00
H204   H     0.63140   0.35260   0.05260   0.00000  Uiso   1.00
C205   C     0.57434   0.35334   0.98298   0.00000  Uiso   1.00
H206   H     0.63830   0.32250   0.97270   0.00000  Uiso   1.00
C207   C     0.46981   0.38941   0.95781   0.00000  Uiso   1.00
H208   H     0.44680   0.38860   0.92630   0.00000  Uiso   1.00
C209   C     0.40054   0.42874   0.98700   0.00000  Uiso   1.00
C210   C     0.28871   0.46871   0.97584   0.00000  Uiso   1.00
C211   C     0.22593   0.49453   0.00362   0.00000  Uiso   1.00
C212   C     0.11176   0.53636   0.99246   0.00000  Uiso   1.00
H213   H     0.06260   0.55140   0.96380   0.00000  Uiso   1.00
C214   C     0.08498   0.55118   0.02998   0.00000  Uiso   1.00
H215   H     0.01450   0.57810   0.03270   0.00000  Uiso   1.00
C216   C     0.18378   0.51818   0.06392   0.00000  Uiso   1.00
H217   H     0.18940   0.51980   0.09390   0.00000  Uiso   1.00
C218   C     0.22717   0.48597   0.92763   0.00000  Uiso   1.00
C219   C     0.20188   0.41608   0.89842   0.00000  Uiso   1.00
H220   H     0.22440   0.35480   0.90770   0.00000  Uiso   1.00
C221   C     0.14203   0.43763   0.85468   0.00000  Uiso   1.00
H222   H     0.12560   0.38880   0.83420   0.00000  Uiso   1.00
C223   C     0.13276   0.58956   0.86946   0.00000  Uiso   1.00
H224   H     0.10800   0.65140   0.85970   0.00000  Uiso   1.00
C225   C     0.19333   0.57293   0.91278   0.00000  Uiso   1.00
H226   H     0.21120   0.62140   0.93210   0.00000  Uiso   1.00
C227   C     0.58772   0.31052   0.67089   0.00000  Uiso   1.00
H228   H     0.65720   0.27960   0.66520   0.00000  Uiso   1.00
C229   C     0.57928   0.29848   0.70870   0.00000  Uiso   1.00
H230   H     0.64050   0.25750   0.73180   0.00000  Uiso   1.00
C231   C     0.46558   0.35758   0.70508   0.00000  Uiso   1.00
H232   H     0.43230   0.36730   0.72590   0.00000  Uiso   1.00
C233   C     0.40656   0.40136   0.66501   0.00000  Uiso   1.00
C234   C     0.28902   0.46562   0.64805   0.00000  Uiso   1.00
C235   C     0.23031   0.50951   0.60826   0.00000  Uiso   1.00
C236   C     0.11219   0.56899   0.58892   0.00000  Uiso   1.00
H237   H     0.05610   0.59010   0.60140   0.00000  Uiso   1.00
C238   C     0.09418   0.58998   0.54928   0.00000  Uiso   1.00
H239   H     0.02360   0.62720   0.52850   0.00000  Uiso   1.00
C240   C     0.19942   0.54622   0.54518   0.00000  Uiso   1.00
H241   H     0.21040   0.55100   0.52060   0.00000  Uiso   1.00
C242   C     0.21679   0.49159   0.67499   0.00000  Uiso   1.00
C243   C     0.13928   0.60188   0.69693   0.00000  Uiso   1.00
H244   H     0.12910   0.66370   0.69460   0.00000  Uiso   1.00
C245   C     0.07720   0.62120   0.72203   0.00000  Uiso   1.00
H246   H     0.02340   0.69760   0.73650   0.00000  Uiso   1.00
C247   C     0.16215   0.43395   0.70711   0.00000  Uiso   1.00
H248   H     0.17050   0.37430   0.71050   0.00000  Uiso   1.00
C249   C     0.23089   0.40449   0.68018   0.00000  Uiso   1.00
H250   H     0.28460   0.32720   0.66630   0.00000  Uiso   1.00
N251   N     0.42584   0.56444   0.62809   0.00000  Uiso   1.00
N252   N     0.62255   0.33755   0.59610   0.00000  Uiso   1.00
N253   N     0.84855   0.56495   0.73930   0.00000  Uiso   1.00
N254   N     0.46657   0.41517   0.03078   0.00000  Uiso   1.00
N255   N     0.26877   0.48417   0.04886   0.00000  Uiso   1.00
N256   N     0.10747   0.52347   0.84067   0.00000  Uiso   1.00
N257   N     0.48529   0.37089   0.64458   0.00000  Uiso   1.00
N258   N     0.28256   0.49696   0.57945   0.00000  Uiso   1.00
N259   N     0.08879   0.53799   0.72715   0.00000  Uiso   1.00
P260   P     0.80327   0.87049   0.78583   0.00000  Uiso   1.00
F261   F     0.79985   0.96625   0.78824   0.00000  Uiso   1.00
F262   F     0.72099   0.94799   0.81969   0.00000  Uiso   1.00
F263   F     0.91580   0.77740   0.80284   0.00000  Uiso   1.00
F264   F     0.73805   0.85845   0.74346   0.00000  Uiso   1.00
Ag265  Ag    0.42214   0.01186   0.72645   0.00000  Uiso   1.00
Ga266  Ga    0.58218   0.54800   0.91239   0.00000  Uiso   1.00
C267   C     0.33672   0.67372   0.86053   0.00000  Uiso   1.00
H268   H     0.32070   0.74530   0.87320   0.00000  Uiso   1.00
C269   C     0.25823   0.65983   0.82715   0.00000  Uiso   1.00
H270   H     0.18230   0.71830   0.81410   0.00000  Uiso   1.00
C271   C     0.31402   0.54522   0.81768   0.00000  Uiso   1.00
H272   H     0.28430   0.50850   0.79610   0.00000  Uiso   1.00
C273   C     0.42431   0.49051   0.84573   0.00000  Uiso   1.00
C274   C     0.51002   0.37402   0.84796   0.00000  Uiso   1.00
C275   C     0.61933   0.32033   0.87556   0.00000  Uiso   1.00
C276   C     0.70285   0.20425   0.87988   0.00000  Uiso   1.00
H277   H     0.69600   0.14640   0.86460   0.00000  Uiso   1.00
C278   C     0.79744   0.19004   0.91067   0.00000  Uiso   1.00
H279   H     0.86760   0.12120   0.92060   0.00000  Uiso   1.00
C280   C     0.76834   0.29754   0.92396   0.00000  Uiso   1.00
H281   H     0.81810   0.31250   0.94490   0.00000  Uiso   1.00
C282   C     0.48343   0.29703   0.81750   0.00000  Uiso   1.00
C283   C     0.39622   0.30742   0.82135   0.00000  Uiso   1.00
H284   H     0.35140   0.36500   0.84400   0.00000  Uiso   1.00
C285   C     0.37505   0.23425   0.79244   0.00000  Uiso   1.00
H286   H     0.31420   0.24380   0.79540   0.00000  Uiso   1.00
C287   C     0.51767   0.14167   0.75629   0.00000  Uiso   1.00
H288   H     0.56010   0.08350   0.73310   0.00000  Uiso   1.00
C289   C     0.54561   0.21141   0.78363   0.00000  Uiso   1.00
H290   H     0.60570   0.20090   0.77930   0.00000  Uiso   1.00
C291   C     0.62943   0.43063   0.47223   0.00000  Uiso   1.00
H292   H     0.64740   0.36860   0.44740   0.00000  Uiso   1.00
C293   C     0.64666   0.42566   0.51702   0.00000  Uiso   1.00
H294   H     0.67750   0.36170   0.52730   0.00000  Uiso   1.00
C295   C     0.61059   0.53019   0.54219   0.00000  Uiso   1.00
H296   H     0.61140   0.55320   0.57370   0.00000  Uiso   1.00
C297   C     0.57126   0.59946   0.51300   0.00000  Uiso   1.00
C298   C     0.53129   0.71129   0.52416   0.00000  Uiso   1.00
C299   C     0.50547   0.77407   0.49638   0.00000  Uiso   1.00
C300   C     0.46364   0.88824   0.50754   0.00000  Uiso   1.00
H301   H     0.44860   0.93740   0.53620   0.00000  Uiso   1.00
C302   C     0.44882   0.91502   0.47002   0.00000  Uiso   1.00
H303   H     0.42190   0.98550   0.46730   0.00000  Uiso   1.00
C304   C     0.48182   0.81622   0.43608   0.00000  Uiso   1.00
H305   H     0.48020   0.81060   0.40610   0.00000  Uiso   1.00
C306   C     0.51403   0.77283   0.57237   0.00000  Uiso   1.00
C307   C     0.58392   0.79812   0.60158   0.00000  Uiso   1.00
H308   H     0.64520   0.77560   0.59230   0.00000  Uiso   1.00
C309   C     0.56237   0.85797   0.64532   0.00000  Uiso   1.00
H310   H     0.61120   0.87440   0.66580   0.00000  Uiso   1.00
C311   C     0.41044   0.86724   0.63054   0.00000  Uiso   1.00
H312   H     0.34860   0.89200   0.64030   0.00000  Uiso   1.00
C313   C     0.42707   0.80667   0.58722   0.00000  Uiso   1.00
H314   H     0.37860   0.78880   0.56790   0.00000  Uiso   1.00
C315   C     0.68948   0.41228   0.82911   0.00000  Uiso   1.00
H316   H     0.72040   0.34280   0.83480   0.00000  Uiso   1.00
C317   C     0.70152   0.42072   0.79130   0.00000  Uiso   1.00
H318   H     0.74250   0.35950   0.76820   0.00000  Uiso   1.00
C319   C     0.64242   0.53442   0.79492   0.00000  Uiso   1.00
H320   H     0.63270   0.56770   0.77410   0.00000  Uiso   1.00
C321   C     0.59864   0.59344   0.83499   0.00000  Uiso   1.00
C322   C     0.53438   0.71098   0.85195   0.00000  Uiso   1.00
C323   C     0.49049   0.76969   0.89174   0.00000  Uiso   1.00
C324   C     0.43101   0.88781   0.91108   0.00000  Uiso   1.00
H325   H     0.40990   0.94390   0.89860   0.00000  Uiso   1.00
C326   C     0.41002   0.90582   0.95072   0.00000  Uiso   1.00
H327   H     0.37280   0.97640   0.97150   0.00000  Uiso   1.00
C328   C     0.45378   0.80058   0.95482   0.00000  Uiso   1.00
H329   H     0.44900   0.78960   0.97940   0.00000  Uiso   1.00
C330   C     0.50841   0.78321   0.82501   0.00000  Uiso   1.00
C331   C     0.39812   0.86072   0.80307   0.00000  Uiso   1.00
H332   H     0.33630   0.87090   0.80540   0.00000  Uiso   1.00
C333   C     0.37880   0.92280   0.77797   0.00000  Uiso   1.00
H334   H     0.30240   0.97660   0.76350   0.00000  Uiso   1.00
C335   C     0.56605   0.83785   0.79289   0.00000  Uiso   1.00
H336   H     0.62570   0.82950   0.78950   0.00000  Uiso   1.00
C337   C     0.59551   0.76911   0.81982   0.00000  Uiso   1.00
H338   H     0.67280   0.71540   0.83370   0.00000  Uiso   1.00
N339   N     0.43556   0.57416   0.87191   0.00000  Uiso   1.00
N340   N     0.66245   0.37745   0.90390   0.00000  Uiso   1.00
N341   N     0.43505   0.15145   0.76070   0.00000  Uiso   1.00
N342   N     0.58483   0.53343   0.46922   0.00000  Uiso   1.00
N343   N     0.51583   0.73123   0.45114   0.00000  Uiso   1.00
N344   N     0.47653   0.89253   0.65933   0.00000  Uiso   1.00
N345   N     0.62911   0.51471   0.85542   0.00000  Uiso   1.00
N346   N     0.50304   0.71744   0.92055   0.00000  Uiso   1.00
N347   N     0.46201   0.91121   0.77285   0.00000  Uiso   1.00
P348   P     0.12951   0.19673   0.71417   0.00000  Uiso   1.00
F349   F     0.03375   0.20015   0.71176   0.00000  Uiso   1.00
F350   F     0.05201   0.27901   0.68031   0.00000  Uiso   1.00
F351   F     0.22260   0.08420   0.69716   0.00000  Uiso   1.00
F352   F     0.14155   0.26195   0.75654   0.00000  Uiso   1.00
loop_
_geom_bond_atom_site_label_1
_geom_bond_atom_site_label_2
_geom_bond_distance
_geom_bond_site_symmetry_2
_ccdc_geom_bond_type
Ag1    N77     2.251   .     S
Ag1    N80     2.283   1_455 S
Ag1    N83     2.309   1_455 S
Ga2    N75     2.060   .     S
Ga2    N76     2.062   .     S
Ga2    N81     2.056   .     S
Ga2    N82     2.053   .     S
Ga2    N342    2.047   .     S
Ga2    N343    2.043   .     S
C3     H4      0.950   .     S
C3     C5      1.418   .     S
C3     N75     1.331   .     D
C5     H6      0.950   .     S
C5     C7      1.364   .     D
C7     H8      0.951   .     S
C7     C9      1.418   .     S
C9     C10     1.396   .     D
C9     N75     1.402   .     S
C10    C11     1.403   .     S
C10    C18     1.491   .     S
C11    C12     1.407   .     A
C11    N76     1.404   .     A
C12    H13     0.950   .     S
C12    C14     1.390   .     A
C14    H15     0.949   .     S
C14    C16     1.393   .     A
C16    H17     0.951   .     S
C16    N76     1.338   .     A
C18    C19     1.391   .     A
C18    C25     1.390   .     A
C19    H20     0.951   .     S
C19    C21     1.375   .     A
C21    H22     0.951   .     S
C21    N77     1.321   .     A
C23    H24     0.950   .     S
C23    C25     1.390   .     A
C23    N77     1.331   .     A
C25    H26     0.950   .     S
C27    H28     0.950   .     S
C27    N78     1.336   .     D
C27    C29     1.418   1_556 S
C29    H30     0.949   .     S
C29    C31     1.355   .     D
C29    C27     1.418   1_554 S
C31    H32     0.951   .     S
C31    C33     1.425   .     S
C33    C34     1.394   .     D
C33    N78     1.405   1_554 S
C34    C42     1.518   .     S
C34    C35     1.400   1_554 S
C35    N79     1.396   .     A
C35    C34     1.400   1_556 S
C35    C36     1.418   1_556 S
C36    H37     0.951   .     S
C36    C35     1.418   1_554 S
C36    C38     1.362   1_554 D
C38    H39     0.949   .     S
C38    C40     1.411   .     A
C38    C36     1.362   1_556 D
C40    H41     0.950   .     S
C40    N79     1.340   .     A
C42    C43     1.376   .     A
C42    C49     1.367   .     A
C43    H44     0.950   .     S
C43    C45     1.401   .     A
C45    H46     0.950   .     S
C45    N80     1.327   .     A
C47    H48     0.950   .     S
C47    C49     1.378   .     A
C47    N80     1.325   .     A
C49    H50     0.951   .     S
C51    H52     0.950   .     S
C51    C53     1.422   .     S
C51    N81     1.331   .     D
C53    H54     0.950   .     S
C53    C55     1.364   .     D
C55    H56     0.952   .     S
C55    C57     1.407   .     S
C57    C58     1.393   .     D
C57    N81     1.395   .     S
C58    C59     1.400   .     S
C58    C66     1.505   .     S
C59    C60     1.418   .     A
C59    N82     1.406   .     A
C60    H61     0.951   .     S
C60    C62     1.358   .     A
C62    H63     0.950   .     S
C62    C64     1.393   .     A
C64    H65     0.948   .     S
C64    N82     1.326   .     A
C66    C67     1.383   .     A
C66    C73     1.371   .     A
C67    H68     0.950   .     S
C67    C69     1.372   .     A
C69    H70     0.950   .     S
C69    N83     1.332   .     A
C71    H72     0.950   .     S
C71    C73     1.428   .     A
C71    N83     1.298   .     A
C73    H74     0.951   .     S
N78    Ga266   2.047   .     S
N78    C33     1.405   1_556 S
N79    Ga266   2.043   .     S
N80    Ag1     2.283   1_655 S
N83    Ag1     2.309   1_655 S
P84    F85     1.524   .     S
P84    F86     1.547   .     S
P84    F87     1.416   .     S
P84    F88     1.418   .     S
Ag89   N165    2.251   .     S
Ag89   N168    2.283   1_565 D
Ag89   N171    2.309   1_565 S
Ga90   N163    2.060   .     S
Ga90   N164    2.062   .     S
Ga90   N169    2.056   .     S
Ga90   N170    2.053   .     S
Ga90   N254    2.047   .     S
Ga90   N255    2.043   .     S
C91    H92     0.950   .     S
C91    C93     1.418   .     S
C91    N163    1.331   .     D
C93    H94     0.950   .     S
C93    C95     1.364   .     D
C95    H96     0.951   .     S
C95    C97     1.418   .     S
C97    C98     1.396   .     D
C97    N163    1.402   .     S
C98    C99     1.403   .     S
C98    C106    1.491   .     S
C99    C100    1.407   .     A
C99    N164    1.404   .     A
C100   H101    0.950   .     S
C100   C102    1.390   .     A
C102   H103    0.949   .     S
C102   C104    1.393   .     A
C104   H105    0.951   .     S
C104   N164    1.338   .     A
C106   C107    1.391   .     A
C106   C113    1.390   .     A
C107   H108    0.951   .     S
C107   C109    1.375   .     A
C109   H110    0.951   .     S
C109   N165    1.321   .     A
C111   H112    0.950   .     S
C111   C113    1.390   .     A
C111   N165    1.331   .     A
C113   H114    0.950   .     S
C115   H116    0.950   .     S
C115   C117    1.418   .     S
C115   N166    1.336   .     D
C117   H118    0.949   .     S
C117   C119    1.355   .     D
C119   H120    0.951   .     S
C119   C121    1.425   .     S
C121   C122    1.394   .     D
C121   N166    1.405   .     S
C122   C123    1.400   .     S
C122   C130    1.518   .     S
C123   C124    1.418   .     A
C123   N167    1.396   .     A
C124   H125    0.951   .     S
C124   C126    1.362   .     A
C126   H127    0.949   .     S
C126   C128    1.411   .     A
C128   H129    0.950   .     S
C128   N167    1.340   .     A
C130   C131    1.376   .     A
C130   C137    1.367   .     A
C131   H132    0.950   .     S
C131   C133    1.401   .     A
C133   H134    0.950   .     S
C133   N168    1.327   .     A
C135   H136    0.950   .     S
C135   C137    1.378   .     A
C135   N168    1.325   .     A
C137   H138    0.951   .     S
C139   H140    0.950   .     S
C139   C141    1.422   .     S
C139   N169    1.331   .     D
C141   H142    0.950   .     S
C141   C143    1.364   .     D
C143   H144    0.952   .     S
C143   C145    1.407   .     S
C145   C146    1.393   .     D
C145   N169    1.395   .     S
C146   C147    1.400   .     S
C146   C154    1.505   .     S
C147   C148    1.418   .     A
C147   N170    1.406   .     A
C148   H149    0.951   .     S
C148   C150    1.358   .     A
C150   H151    0.950   .     S
C150   C152    1.393   .     A
C152   H153    0.948   .     S
C152   N170    1.326   .     A
C154   C155    1.383   .     A
C154   C161    1.371   .     A
C155   H156    0.950   .     S
C155   C157    1.372   .     A
C157   H158    0.950   .     S
C157   N171    1.332   .     A
C159   H160    0.950   .     S
C159   C161    1.428   .     A
C159   N171    1.298   .     A
C161   H162    0.951   .     S
N166   Ga178   2.047   .     S
N167   Ga178   2.043   .     S
N168   Ag89    2.283   1_545 D
N171   Ag89    2.309   1_545 S
P172   F173    1.524   .     S
P172   F174    1.547   .     S
P172   F175    1.416   .     S
P172   F176    1.418   .     S
Ag177  N253    2.251   .     S
Ag177  N256    2.283   1_655 A
Ag177  N259    2.309   1_655 A
Ga178  N251    2.060   .     S
Ga178  N252    2.062   .     S
Ga178  N257    2.056   .     S
Ga178  N258    2.053   .     S
C179   H180    0.950   .     S
C179   C181    1.418   .     S
C179   N251    1.331   .     D
C181   H182    0.950   .     S
C181   C183    1.364   .     D
C183   H184    0.951   .     S
C183   C185    1.418   .     S
C185   C186    1.396   .     D
C185   N251    1.402   .     S
C186   C187    1.403   .     S
C186   C194    1.491   .     S
C187   C188    1.407   .     A
C187   N252    1.404   .     A
C188   H189    0.950   .     S
C188   C190    1.390   .     A
C190   H191    0.949   .     S
C190   C192    1.393   .     A
C192   H193    0.951   .     S
C192   N252    1.338   .     A
C194   C195    1.391   .     A
C194   C201    1.390   .     A
C195   H196    0.951   .     S
C195   C197    1.375   .     A
C197   H198    0.951   .     S
C197   N253    1.321   .     A
C199   H200    0.950   .     S
C199   C201    1.390   .     A
C199   N253    1.331   .     A
C201   H202    0.950   .     S
C203   H204    0.950   .     S
C203   N254    1.336   .     D
C203   C205    1.418   1_554 S
C205   H206    0.949   .     S
C205   C207    1.355   .     D
C205   C203    1.418   1_556 S
C207   H208    0.951   .     S
C207   C209    1.425   .     S
C209   C210    1.394   .     D
C209   N254    1.405   1_556 S
C210   C218    1.518   .     S
C210   C211    1.400   1_556 A
C211   N255    1.396   .     A
C211   C210    1.400   1_554 A
C211   C212    1.418   1_554 A
C212   H213    0.951   .     S
C212   C211    1.418   1_556 A
C212   C214    1.362   1_556 A
C214   H215    0.949   .     S
C214   C216    1.411   .     A
C214   C212    1.362   1_554 A
C216   H217    0.950   .     S
C216   N255    1.340   .     A
C218   C219    1.376   .     A
C218   C225    1.367   .     A
C219   H220    0.950   .     S
C219   C221    1.401   .     A
C221   H222    0.950   .     S
C221   N256    1.327   .     A
C223   H224    0.950   .     S
C223   C225    1.378   .     A
C223   N256    1.325   .     A
C225   H226    0.951   .     S
C227   H228    0.950   .     S
C227   C229    1.422   .     S
C227   N257    1.331   .     D
C229   H230    0.950   .     S
C229   C231    1.364   .     D
C231   H232    0.952   .     S
C231   C233    1.407   .     S
C233   C234    1.393   .     D
C233   N257    1.395   .     S
C234   C235    1.400   .     S
C234   C242    1.505   .     S
C235   C236    1.418   .     A
C235   N258    1.406   .     A
C236   H237    0.951   .     S
C236   C238    1.358   .     A
C238   H239    0.950   .     S
C238   C240    1.393   .     A
C240   H241    0.948   .     S
C240   N258    1.326   .     A
C242   C243    1.383   .     A
C242   C249    1.371   .     A
C243   H244    0.950   .     S
C243   C245    1.372   .     A
C245   H246    0.950   .     S
C245   N259    1.332   .     A
C247   H248    0.950   .     S
C247   C249    1.428   .     A
C247   N259    1.298   .     A
C249   H250    0.951   .     S
N254   C209    1.405   1_554 S
N256   Ag177   2.283   1_455 A
N259   Ag177   2.309   1_455 A
P260   F261    1.524   .     S
P260   F262    1.547   .     S
P260   F263    1.416   .     S
P260   F264    1.418   .     S
Ag265  N341    2.251   .     S
Ag265  N344    2.283   1_545 S
Ag265  N347    2.309   1_545 A
Ga266  N339    2.060   .     S
Ga266  N340    2.062   .     S
Ga266  N345    2.056   .     S
Ga266  N346    2.053   .     S
C267   H268    0.950   .     S
C267   C269    1.418   .     S
C267   N339    1.331   .     D
C269   H270    0.950   .     S
C269   C271    1.364   .     D
C271   H272    0.951   .     S
C271   C273    1.418   .     S
C273   C274    1.396   .     D
C273   N339    1.402   .     S
C274   C275    1.403   .     S
C274   C282    1.491   .     S
C275   C276    1.407   .     A
C275   N340    1.404   .     A
C276   H277    0.950   .     S
C276   C278    1.390   .     A
C278   H279    0.949   .     S
C278   C280    1.393   .     A
C280   H281    0.951   .     S
C280   N340    1.338   .     A
C282   C283    1.391   .     A
C282   C289    1.390   .     A
C283   H284    0.951   .     S
C283   C285    1.375   .     A
C285   H286    0.951   .     S
C285   N341    1.321   .     A
C287   H288    0.950   .     S
C287   C289    1.390   .     A
C287   N341    1.331   .     A
C289   H290    0.950   .     S
C291   H292    0.950   .     S
C291   C293    1.418   .     S
C291   N342    1.336   .     D
C293   H294    0.949   .     S
C293   C295    1.355   .     D
C295   H296    0.951   .     S
C295   C297    1.425   .     S
C297   C298    1.394   .     D
C297   N342    1.405   .     S
C298   C299    1.400   .     S
C298   C306    1.518   .     S
C299   C300    1.418   .     A
C299   N343    1.396   .     A
C300   H301    0.951   .     S
C300   C302    1.362   .     A
C302   H303    0.949   .     S
C302   C304    1.411   .     A
C304   H305    0.950   .     S
C304   N343    1.340   .     A
C306   C307    1.376   .     A
C306   C313    1.367   .     A
C307   H308    0.950   .     S
C307   C309    1.401   .     A
C309   H310    0.950   .     S
C309   N344    1.327   .     A
C311   H312    0.950   .     S
C311   C313    1.378   .     A
C311   N344    1.325   .     A
C313   H314    0.951   .     S
C315   H316    0.950   .     S
C315   C317    1.422   .     S
C315   N345    1.331   .     D
C317   H318    0.950   .     S
C317   C319    1.364   .     D
C319   H320    0.952   .     S
C319   C321    1.407   .     S
C321   C322    1.393   .     D
C321   N345    1.395   .     S
C322   C323    1.400   .     S
C322   C330    1.505   .     S
C323   C324    1.418   .     A
C323   N346    1.406   .     A
C324   H325    0.951   .     S
C324   C326    1.358   .     A
C326   H327    0.950   .     S
C326   C328    1.393   .     A
C328   H329    0.948   .     S
C328   N346    1.326   .     A
C330   C331    1.383   .     A
C330   C337    1.371   .     A
C331   H332    0.950   .     S
C331   C333    1.372   .     A
C333   H334    0.950   .     S
C333   N347    1.332   .     A
C335   H336    0.950   .     S
C335   C337    1.428   .     A
C335   N347    1.298   .     A
C337   H338    0.951   .     S
N344   Ag265   2.283   1_565 S
N347   Ag265   2.309   1_565 A
P348   F349    1.524   .     S
P348   F350    1.547   .     S
P348   F351    1.416   .     S
P348   F352    1.418   .     S
