data_GIXGOK_clean
_audit_creation_date              2014-07-02
_audit_creation_method            'Materials Studio'
_symmetry_space_group_name_H-M    'P1'
_symmetry_Int_Tables_number       1
_symmetry_cell_setting            triclinic
loop_
_symmetry_equiv_pos_as_xyz
  x,y,z
_cell_length_a                    26.1315
_cell_length_b                    26.1315
_cell_length_c                    26.1315
_cell_angle_alpha                 109.4710
_cell_angle_beta                  109.4710
_cell_angle_gamma                 109.4710
loop_
_atom_site_label
_atom_site_type_symbol
_atom_site_fract_x
_atom_site_fract_y
_atom_site_fract_z
_atom_site_U_iso_or_equiv
_atom_site_adp_type
_atom_site_occupancy
Cd1    Cd    0.35487   0.70974   0.85487   0.01267  Uiso   1.00
Cd2    Cd    0.85487   0.50000   0.14513   0.01267  Uiso   1.00
Cd3    Cd    0.14513   0.29026   0.64513   0.01267  Uiso   1.00
Cd4    Cd    0.64513   0.50000   0.35487   0.01267  Uiso   1.00
Cd5    Cd    0.64513   0.14513   0.29026   0.01267  Uiso   1.00
Cd6    Cd    0.35487   0.64513   0.50000   0.01267  Uiso   1.00
Cd7    Cd    0.85487   0.35487   0.70974   0.01267  Uiso   1.00
Cd8    Cd    0.14513   0.85487   0.50000   0.01267  Uiso   1.00
Cd9    Cd    0.50000   0.14513   0.85487   0.01267  Uiso   1.00
Cd10   Cd    0.70974   0.85487   0.35487   0.01267  Uiso   1.00
Cd11   Cd    0.50000   0.35487   0.64513   0.01267  Uiso   1.00
Cd12   Cd    0.29026   0.64513   0.14513   0.01267  Uiso   1.00
Cd13   Cd    0.64513   0.29026   0.14513   0.01267  Uiso   1.00
Cd14   Cd    0.14513   0.50000   0.85487   0.01267  Uiso   1.00
Cd15   Cd    0.85487   0.70974   0.35487   0.01267  Uiso   1.00
Cd16   Cd    0.35487   0.50000   0.64513   0.01267  Uiso   1.00
Cd17   Cd    0.35487   0.85487   0.70974   0.01267  Uiso   1.00
Cd18   Cd    0.64513   0.35487   0.50000   0.01267  Uiso   1.00
Cd19   Cd    0.14513   0.64513   0.29026   0.01267  Uiso   1.00
Cd20   Cd    0.85487   0.14513   0.50000   0.01267  Uiso   1.00
Cd21   Cd    0.50000   0.85487   0.14513   0.01267  Uiso   1.00
Cd22   Cd    0.29026   0.14513   0.64513   0.01267  Uiso   1.00
Cd23   Cd    0.50000   0.64513   0.35487   0.01267  Uiso   1.00
Cd24   Cd    0.70974   0.35487   0.85487   0.01267  Uiso   1.00
H1     H     0.21690   0.63130   0.71820   0.01267  Uiso   1.00
H2     H     0.28310   0.78300   0.90570   0.01267  Uiso   1.00
H3     H     0.91310   0.49870   0.28180   0.01267  Uiso   1.00
H4     H     0.87730   0.37740   0.09430   0.01267  Uiso   1.00
H5     H     0.08690   0.36870   0.58560   0.01267  Uiso   1.00
H6     H     0.12270   0.21700   0.50010   0.01267  Uiso   1.00
H7     H     0.78310   0.50130   0.41440   0.01267  Uiso   1.00
H8     H     0.71690   0.62260   0.49990   0.01267  Uiso   1.00
H9     H     0.58560   0.08690   0.36870   0.01267  Uiso   1.00
H10    H     0.50010   0.12270   0.21700   0.01267  Uiso   1.00
H11    H     0.41440   0.78310   0.50130   0.01267  Uiso   1.00
H12    H     0.49990   0.71690   0.62260   0.01267  Uiso   1.00
H13    H     0.71820   0.21690   0.63130   0.01267  Uiso   1.00
H14    H     0.90570   0.28310   0.78300   0.01267  Uiso   1.00
H15    H     0.28180   0.91310   0.49870   0.01267  Uiso   1.00
H16    H     0.09430   0.87730   0.37740   0.01267  Uiso   1.00
H17    H     0.49870   0.28180   0.91310   0.01267  Uiso   1.00
H18    H     0.37740   0.09430   0.87730   0.01267  Uiso   1.00
H19    H     0.63130   0.71820   0.21690   0.01267  Uiso   1.00
H20    H     0.78300   0.90570   0.28310   0.01267  Uiso   1.00
H21    H     0.50130   0.41440   0.78310   0.01267  Uiso   1.00
H22    H     0.62260   0.49990   0.71690   0.01267  Uiso   1.00
H23    H     0.36870   0.58560   0.08690   0.01267  Uiso   1.00
H24    H     0.21700   0.50010   0.12270   0.01267  Uiso   1.00
H25    H     0.36870   0.78310   0.28180   0.01267  Uiso   1.00
H26    H     0.21700   0.71690   0.09430   0.01267  Uiso   1.00
H27    H     0.50130   0.08690   0.71820   0.01267  Uiso   1.00
H28    H     0.62260   0.12270   0.90570   0.01267  Uiso   1.00
H29    H     0.63130   0.91310   0.41440   0.01267  Uiso   1.00
H30    H     0.78300   0.87730   0.49990   0.01267  Uiso   1.00
H31    H     0.49870   0.21690   0.58560   0.01267  Uiso   1.00
H32    H     0.37740   0.28310   0.50010   0.01267  Uiso   1.00
H33    H     0.91310   0.41440   0.63130   0.01267  Uiso   1.00
H34    H     0.87730   0.49990   0.78300   0.01267  Uiso   1.00
H35    H     0.21690   0.58560   0.49870   0.01267  Uiso   1.00
H36    H     0.28310   0.50010   0.37740   0.01267  Uiso   1.00
H37    H     0.78310   0.28180   0.36870   0.01267  Uiso   1.00
H38    H     0.71690   0.09430   0.21700   0.01267  Uiso   1.00
H39    H     0.08690   0.71820   0.50130   0.01267  Uiso   1.00
H40    H     0.12270   0.90570   0.62260   0.01267  Uiso   1.00
H41    H     0.71820   0.50130   0.08690   0.01267  Uiso   1.00
H42    H     0.90570   0.62260   0.12270   0.01267  Uiso   1.00
H43    H     0.28180   0.36870   0.78310   0.01267  Uiso   1.00
H44    H     0.09430   0.21700   0.71690   0.01267  Uiso   1.00
H45    H     0.58560   0.49870   0.21690   0.01267  Uiso   1.00
H46    H     0.50010   0.37740   0.28310   0.01267  Uiso   1.00
H47    H     0.41440   0.63130   0.91310   0.01267  Uiso   1.00
H48    H     0.49990   0.78300   0.87730   0.01267  Uiso   1.00
H49    H     0.78310   0.36870   0.28180   0.01267  Uiso   1.00
H50    H     0.71690   0.21700   0.09430   0.01267  Uiso   1.00
H51    H     0.08690   0.50130   0.71820   0.01267  Uiso   1.00
H52    H     0.12270   0.62260   0.90570   0.01267  Uiso   1.00
H53    H     0.91310   0.63130   0.41440   0.01267  Uiso   1.00
H54    H     0.87730   0.78300   0.49990   0.01267  Uiso   1.00
H55    H     0.21690   0.49870   0.58560   0.01267  Uiso   1.00
H56    H     0.28310   0.37740   0.50010   0.01267  Uiso   1.00
H57    H     0.41440   0.91310   0.63130   0.01267  Uiso   1.00
H58    H     0.49990   0.87730   0.78300   0.01267  Uiso   1.00
H59    H     0.58560   0.21690   0.49870   0.01267  Uiso   1.00
H60    H     0.50010   0.28310   0.37740   0.01267  Uiso   1.00
H61    H     0.28180   0.78310   0.36870   0.01267  Uiso   1.00
H62    H     0.09430   0.71690   0.21700   0.01267  Uiso   1.00
H63    H     0.71820   0.08690   0.50130   0.01267  Uiso   1.00
H64    H     0.90570   0.12270   0.62260   0.01267  Uiso   1.00
H65    H     0.50130   0.71820   0.08690   0.01267  Uiso   1.00
H66    H     0.62260   0.90570   0.12270   0.01267  Uiso   1.00
H67    H     0.36870   0.28180   0.78310   0.01267  Uiso   1.00
H68    H     0.21700   0.09430   0.71690   0.01267  Uiso   1.00
H69    H     0.49870   0.58560   0.21690   0.01267  Uiso   1.00
H70    H     0.37740   0.50010   0.28310   0.01267  Uiso   1.00
H71    H     0.63130   0.41440   0.91310   0.01267  Uiso   1.00
H72    H     0.78300   0.49990   0.87730   0.01267  Uiso   1.00
H73    H     0.63130   0.21690   0.71820   0.01267  Uiso   1.00
H74    H     0.78300   0.28310   0.90570   0.01267  Uiso   1.00
H75    H     0.49870   0.91310   0.28180   0.01267  Uiso   1.00
H76    H     0.37740   0.87730   0.09430   0.01267  Uiso   1.00
H77    H     0.36870   0.08690   0.58560   0.01267  Uiso   1.00
H78    H     0.21700   0.12270   0.50010   0.01267  Uiso   1.00
H79    H     0.50130   0.78310   0.41440   0.01267  Uiso   1.00
H80    H     0.62260   0.71690   0.49990   0.01267  Uiso   1.00
H81    H     0.08690   0.58560   0.36870   0.01267  Uiso   1.00
H82    H     0.12270   0.50010   0.21700   0.01267  Uiso   1.00
H83    H     0.78310   0.41440   0.50130   0.01267  Uiso   1.00
H84    H     0.71690   0.49990   0.62260   0.01267  Uiso   1.00
H85    H     0.21690   0.71820   0.63130   0.01267  Uiso   1.00
H86    H     0.28310   0.90570   0.78300   0.01267  Uiso   1.00
H87    H     0.91310   0.28180   0.49870   0.01267  Uiso   1.00
H88    H     0.87730   0.09430   0.37740   0.01267  Uiso   1.00
H89    H     0.28180   0.49870   0.91310   0.01267  Uiso   1.00
H90    H     0.09430   0.37740   0.87730   0.01267  Uiso   1.00
H91    H     0.71820   0.63130   0.21690   0.01267  Uiso   1.00
H92    H     0.90570   0.78300   0.28310   0.01267  Uiso   1.00
H93    H     0.41440   0.50130   0.78310   0.01267  Uiso   1.00
H94    H     0.49990   0.62260   0.71690   0.01267  Uiso   1.00
H95    H     0.58560   0.36870   0.08690   0.01267  Uiso   1.00
H96    H     0.50010   0.21700   0.12270   0.01267  Uiso   1.00
H97    H     0.16480   0.54920   0.61560   0.01267  Uiso   1.00
H98    H     0.93360   0.54920   0.38440   0.01267  Uiso   1.00
H99    H     0.06640   0.45080   0.61560   0.01267  Uiso   1.00
H100   H     0.83520   0.45080   0.38440   0.01267  Uiso   1.00
H101   H     0.61560   0.06640   0.45080   0.01267  Uiso   1.00
H102   H     0.38440   0.83520   0.45080   0.01267  Uiso   1.00
H103   H     0.61560   0.16480   0.54920   0.01267  Uiso   1.00
H104   H     0.38440   0.93360   0.54920   0.01267  Uiso   1.00
H105   H     0.54920   0.38440   0.93360   0.01267  Uiso   1.00
H106   H     0.54920   0.61560   0.16480   0.01267  Uiso   1.00
H107   H     0.45080   0.38440   0.83520   0.01267  Uiso   1.00
H108   H     0.45080   0.61560   0.06640   0.01267  Uiso   1.00
H109   H     0.45080   0.83520   0.38440   0.01267  Uiso   1.00
H110   H     0.45080   0.06640   0.61560   0.01267  Uiso   1.00
H111   H     0.54920   0.93360   0.38440   0.01267  Uiso   1.00
H112   H     0.54920   0.16480   0.61560   0.01267  Uiso   1.00
H113   H     0.93360   0.38440   0.54920   0.01267  Uiso   1.00
H114   H     0.16480   0.61560   0.54920   0.01267  Uiso   1.00
H115   H     0.83520   0.38440   0.45080   0.01267  Uiso   1.00
H116   H     0.06640   0.61560   0.45080   0.01267  Uiso   1.00
H117   H     0.61560   0.45080   0.06640   0.01267  Uiso   1.00
H118   H     0.38440   0.45080   0.83520   0.01267  Uiso   1.00
H119   H     0.61560   0.54920   0.16480   0.01267  Uiso   1.00
H120   H     0.38440   0.54920   0.93360   0.01267  Uiso   1.00
H121   H     0.29230   0.84450   0.00000   0.01267  Uiso   1.00
H122   H     0.84450   0.29230   0.00000   0.01267  Uiso   1.00
H123   H     0.15550   0.15550   0.44780   0.01267  Uiso   1.00
H124   H     0.70770   0.70770   0.55220   0.01267  Uiso   1.00
H125   H     0.44780   0.15550   0.15550   0.01267  Uiso   1.00
H126   H     0.55220   0.70770   0.70770   0.01267  Uiso   1.00
H127   H     0.00000   0.29230   0.84450   0.01267  Uiso   1.00
H128   H     0.00000   0.84450   0.29230   0.01267  Uiso   1.00
H129   H     0.29230   0.00000   0.84450   0.01267  Uiso   1.00
H130   H     0.84450  -0.00000   0.29230   0.01267  Uiso   1.00
H131   H     0.70770   0.55220   0.70770   0.01267  Uiso   1.00
H132   H     0.15550   0.44780   0.15550   0.01267  Uiso   1.00
H133   H     0.15550   0.70770   0.00000   0.01267  Uiso   1.00
H134   H     0.70770   0.15550   0.00000   0.01267  Uiso   1.00
H135   H     0.84450   0.84450   0.55220   0.01267  Uiso   1.00
H136   H     0.29230   0.29230   0.44780   0.01267  Uiso   1.00
H137   H     0.84450   0.55220   0.84450   0.01267  Uiso   1.00
H138   H     0.29230   0.44780   0.29230   0.01267  Uiso   1.00
H139   H     0.70770   0.00000   0.15550   0.01267  Uiso   1.00
H140   H     0.15550  -0.00000   0.70770   0.01267  Uiso   1.00
H141   H     0.00000   0.70770   0.15550   0.01267  Uiso   1.00
H142   H     0.00000   0.15550   0.70770   0.01267  Uiso   1.00
H143   H     0.44780   0.29230   0.29230   0.01267  Uiso   1.00
H144   H     0.55220   0.84450   0.84450   0.01267  Uiso   1.00
C1     C     0.23690   0.61060   0.70510   0.01267  Uiso   1.00
C2     C     0.31720   0.79700   0.94380   0.01267  Uiso   1.00
C3     C     0.90550   0.53180   0.29490   0.01267  Uiso   1.00
C4     C     0.85320   0.37340   0.05620   0.01267  Uiso   1.00
C5     C     0.09450   0.38940   0.62630   0.01267  Uiso   1.00
C6     C     0.14680   0.20300   0.52020   0.01267  Uiso   1.00
C7     C     0.76310   0.46820   0.37370   0.01267  Uiso   1.00
C8     C     0.68280   0.62660   0.47980   0.01267  Uiso   1.00
C9     C     0.62630   0.09450   0.38940   0.01267  Uiso   1.00
C10    C     0.52020   0.14680   0.20300   0.01267  Uiso   1.00
C11    C     0.37370   0.76310   0.46820   0.01267  Uiso   1.00
C12    C     0.47980   0.68280   0.62660   0.01267  Uiso   1.00
C13    C     0.70510   0.23690   0.61060   0.01267  Uiso   1.00
C14    C     0.94380   0.31720   0.79700   0.01267  Uiso   1.00
C15    C     0.29490   0.90550   0.53180   0.01267  Uiso   1.00
C16    C     0.05620   0.85320   0.37340   0.01267  Uiso   1.00
C17    C     0.53180   0.29490   0.90550   0.01267  Uiso   1.00
C18    C     0.37340   0.05620   0.85320   0.01267  Uiso   1.00
C19    C     0.61060   0.70510   0.23690   0.01267  Uiso   1.00
C20    C     0.79700   0.94380   0.31720   0.01267  Uiso   1.00
C21    C     0.46820   0.37370   0.76310   0.01267  Uiso   1.00
C22    C     0.62660   0.47980   0.68280   0.01267  Uiso   1.00
C23    C     0.38940   0.62630   0.09450   0.01267  Uiso   1.00
C24    C     0.20300   0.52020   0.14680   0.01267  Uiso   1.00
C25    C     0.38940   0.76310   0.29490   0.01267  Uiso   1.00
C26    C     0.20300   0.68280   0.05620   0.01267  Uiso   1.00
C27    C     0.46820   0.09450   0.70510   0.01267  Uiso   1.00
C28    C     0.62660   0.14680   0.94380   0.01267  Uiso   1.00
C29    C     0.61060   0.90550   0.37370   0.01267  Uiso   1.00
C30    C     0.79700   0.85320   0.47980   0.01267  Uiso   1.00
C31    C     0.53180   0.23690   0.62630   0.01267  Uiso   1.00
C32    C     0.37340   0.31720   0.52020   0.01267  Uiso   1.00
C33    C     0.90550   0.37370   0.61060   0.01267  Uiso   1.00
C34    C     0.85320   0.47980   0.79700   0.01267  Uiso   1.00
C35    C     0.23690   0.62630   0.53180   0.01267  Uiso   1.00
C36    C     0.31720   0.52020   0.37340   0.01267  Uiso   1.00
C37    C     0.76310   0.29490   0.38940   0.01267  Uiso   1.00
C38    C     0.68280   0.05620   0.20300   0.01267  Uiso   1.00
C39    C     0.09450   0.70510   0.46820   0.01267  Uiso   1.00
C40    C     0.14680   0.94380   0.62660   0.01267  Uiso   1.00
C41    C     0.70510   0.46820   0.09450   0.01267  Uiso   1.00
C42    C     0.94380   0.62660   0.14680   0.01267  Uiso   1.00
C43    C     0.29490   0.38940   0.76310   0.01267  Uiso   1.00
C44    C     0.05620   0.20300   0.68280   0.01267  Uiso   1.00
C45    C     0.62630   0.53180   0.23690   0.01267  Uiso   1.00
C46    C     0.52020   0.37340   0.31720   0.01267  Uiso   1.00
C47    C     0.37370   0.61060   0.90550   0.01267  Uiso   1.00
C48    C     0.47980   0.79700   0.85320   0.01267  Uiso   1.00
C49    C     0.76310   0.38940   0.29490   0.01267  Uiso   1.00
C50    C     0.68280   0.20300   0.05620   0.01267  Uiso   1.00
C51    C     0.09450   0.46820   0.70510   0.01267  Uiso   1.00
C52    C     0.14680   0.62660   0.94380   0.01267  Uiso   1.00
C53    C     0.90550   0.61060   0.37370   0.01267  Uiso   1.00
C54    C     0.85320   0.79700   0.47980   0.01267  Uiso   1.00
C55    C     0.23690   0.53180   0.62630   0.01267  Uiso   1.00
C56    C     0.31720   0.37340   0.52020   0.01267  Uiso   1.00
C57    C     0.37370   0.90550   0.61060   0.01267  Uiso   1.00
C58    C     0.47980   0.85320   0.79700   0.01267  Uiso   1.00
C59    C     0.62630   0.23690   0.53180   0.01267  Uiso   1.00
C60    C     0.52020   0.31720   0.37340   0.01267  Uiso   1.00
C61    C     0.29490   0.76310   0.38940   0.01267  Uiso   1.00
C62    C     0.05620   0.68280   0.20300   0.01267  Uiso   1.00
C63    C     0.70510   0.09450   0.46820   0.01267  Uiso   1.00
C64    C     0.94380   0.14680   0.62660   0.01267  Uiso   1.00
C65    C     0.46820   0.70510   0.09450   0.01267  Uiso   1.00
C66    C     0.62660   0.94380   0.14680   0.01267  Uiso   1.00
C67    C     0.38940   0.29490   0.76310   0.01267  Uiso   1.00
C68    C     0.20300   0.05620   0.68280   0.01267  Uiso   1.00
C69    C     0.53180   0.62630   0.23690   0.01267  Uiso   1.00
C70    C     0.37340   0.52020   0.31720   0.01267  Uiso   1.00
C71    C     0.61060   0.37370   0.90550   0.01267  Uiso   1.00
C72    C     0.79700   0.47980   0.85320   0.01267  Uiso   1.00
C73    C     0.61060   0.23690   0.70510   0.01267  Uiso   1.00
C74    C     0.79700   0.31720   0.94380   0.01267  Uiso   1.00
C75    C     0.53180   0.90550   0.29490   0.01267  Uiso   1.00
C76    C     0.37340   0.85320   0.05620   0.01267  Uiso   1.00
C77    C     0.38940   0.09450   0.62630   0.01267  Uiso   1.00
C78    C     0.20300   0.14680   0.52020   0.01267  Uiso   1.00
C79    C     0.46820   0.76310   0.37370   0.01267  Uiso   1.00
C80    C     0.62660   0.68280   0.47980   0.01267  Uiso   1.00
C81    C     0.09450   0.62630   0.38940   0.01267  Uiso   1.00
C82    C     0.14680   0.52020   0.20300   0.01267  Uiso   1.00
C83    C     0.76310   0.37370   0.46820   0.01267  Uiso   1.00
C84    C     0.68280   0.47980   0.62660   0.01267  Uiso   1.00
C85    C     0.23690   0.70510   0.61060   0.01267  Uiso   1.00
C86    C     0.31720   0.94380   0.79700   0.01267  Uiso   1.00
C87    C     0.90550   0.29490   0.53180   0.01267  Uiso   1.00
C88    C     0.85320   0.05620   0.37340   0.01267  Uiso   1.00
C89    C     0.29490   0.53180   0.90550   0.01267  Uiso   1.00
C90    C     0.05620   0.37340   0.85320   0.01267  Uiso   1.00
C91    C     0.70510   0.61060   0.23690   0.01267  Uiso   1.00
C92    C     0.94380   0.79700   0.31720   0.01267  Uiso   1.00
C93    C     0.37370   0.46820   0.76310   0.01267  Uiso   1.00
C94    C     0.47980   0.62660   0.68280   0.01267  Uiso   1.00
C95    C     0.62630   0.38940   0.09450   0.01267  Uiso   1.00
C96    C     0.52020   0.20300   0.14680   0.01267  Uiso   1.00
C97    C     0.38850   0.61750   0.77100   0.01267  Uiso   1.00
C98    C     0.32140   0.59690   0.72450   0.01267  Uiso   1.00
C99    C     0.20550   0.56160   0.64390   0.01267  Uiso   1.00
C100   C     0.84650   0.61750   0.22900   0.01267  Uiso   1.00
C101   C     0.87240   0.59690   0.27550   0.01267  Uiso   1.00
C102   C     0.91770   0.56160   0.35610   0.01267  Uiso   1.00
C103   C     0.15350   0.38250   0.77100   0.01267  Uiso   1.00
C104   C     0.12760   0.40310   0.72450   0.01267  Uiso   1.00
C105   C     0.08230   0.43840   0.64390   0.01267  Uiso   1.00
C106   C     0.61150   0.38250   0.22900   0.01267  Uiso   1.00
C107   C     0.67860   0.40310   0.27550   0.01267  Uiso   1.00
C108   C     0.79450   0.43840   0.35610   0.01267  Uiso   1.00
C109   C     0.77100   0.15350   0.38250   0.01267  Uiso   1.00
C110   C     0.72450   0.12760   0.40310   0.01267  Uiso   1.00
C111   C     0.64390   0.08230   0.43840   0.01267  Uiso   1.00
C112   C     0.22900   0.61150   0.38250   0.01267  Uiso   1.00
C113   C     0.27550   0.67860   0.40310   0.01267  Uiso   1.00
C114   C     0.35610   0.79450   0.43840   0.01267  Uiso   1.00
C115   C     0.77100   0.38850   0.61750   0.01267  Uiso   1.00
C116   C     0.72450   0.32140   0.59690   0.01267  Uiso   1.00
C117   C     0.64390   0.20550   0.56160   0.01267  Uiso   1.00
C118   C     0.22900   0.84650   0.61750   0.01267  Uiso   1.00
C119   C     0.27550   0.87240   0.59690   0.01267  Uiso   1.00
C120   C     0.35610   0.91770   0.56160   0.01267  Uiso   1.00
C121   C     0.61750   0.22900   0.84650   0.01267  Uiso   1.00
C122   C     0.59690   0.27550   0.87240   0.01267  Uiso   1.00
C123   C     0.56160   0.35610   0.91770   0.01267  Uiso   1.00
C124   C     0.61750   0.77100   0.38850   0.01267  Uiso   1.00
C125   C     0.59690   0.72450   0.32140   0.01267  Uiso   1.00
C126   C     0.56160   0.64390   0.20550   0.01267  Uiso   1.00
C127   C     0.38250   0.22900   0.61150   0.01267  Uiso   1.00
C128   C     0.40310   0.27550   0.67860   0.01267  Uiso   1.00
C129   C     0.43840   0.35610   0.79450   0.01267  Uiso   1.00
C130   C     0.38250   0.77100   0.15350   0.01267  Uiso   1.00
C131   C     0.40310   0.72450   0.12760   0.01267  Uiso   1.00
C132   C     0.43840   0.64390   0.08230   0.01267  Uiso   1.00
C133   C     0.38250   0.61150   0.22900   0.01267  Uiso   1.00
C134   C     0.40310   0.67860   0.27550   0.01267  Uiso   1.00
C135   C     0.43840   0.79450   0.35610   0.01267  Uiso   1.00
C136   C     0.38250   0.15350   0.77100   0.01267  Uiso   1.00
C137   C     0.40310   0.12760   0.72450   0.01267  Uiso   1.00
C138   C     0.43840   0.08230   0.64390   0.01267  Uiso   1.00
C139   C     0.61750   0.84650   0.22900   0.01267  Uiso   1.00
C140   C     0.59690   0.87240   0.27550   0.01267  Uiso   1.00
C141   C     0.56160   0.91770   0.35610   0.01267  Uiso   1.00
C142   C     0.61750   0.38850   0.77100   0.01267  Uiso   1.00
C143   C     0.59690   0.32140   0.72450   0.01267  Uiso   1.00
C144   C     0.56160   0.20550   0.64390   0.01267  Uiso   1.00
C145   C     0.84650   0.22900   0.61750   0.01267  Uiso   1.00
C146   C     0.87240   0.27550   0.59690   0.01267  Uiso   1.00
C147   C     0.91770   0.35610   0.56160   0.01267  Uiso   1.00
C148   C     0.38850   0.77100   0.61750   0.01267  Uiso   1.00
C149   C     0.32140   0.72450   0.59690   0.01267  Uiso   1.00
C150   C     0.20550   0.64390   0.56160   0.01267  Uiso   1.00
C151   C     0.61150   0.22900   0.38250   0.01267  Uiso   1.00
C152   C     0.67860   0.27550   0.40310   0.01267  Uiso   1.00
C153   C     0.79450   0.35610   0.43840   0.01267  Uiso   1.00
C154   C     0.15350   0.77100   0.38250   0.01267  Uiso   1.00
C155   C     0.12760   0.72450   0.40310   0.01267  Uiso   1.00
C156   C     0.08230   0.64390   0.43840   0.01267  Uiso   1.00
C157   C     0.77100   0.38250   0.15350   0.01267  Uiso   1.00
C158   C     0.72450   0.40310   0.12760   0.01267  Uiso   1.00
C159   C     0.64390   0.43840   0.08230   0.01267  Uiso   1.00
C160   C     0.22900   0.38250   0.61150   0.01267  Uiso   1.00
C161   C     0.27550   0.40310   0.67860   0.01267  Uiso   1.00
C162   C     0.35610   0.43840   0.79450   0.01267  Uiso   1.00
C163   C     0.77100   0.61750   0.38850   0.01267  Uiso   1.00
C164   C     0.72450   0.59690   0.32140   0.01267  Uiso   1.00
C165   C     0.64390   0.56160   0.20550   0.01267  Uiso   1.00
C166   C     0.22900   0.61750   0.84650   0.01267  Uiso   1.00
C167   C     0.27550   0.59690   0.87240   0.01267  Uiso   1.00
C168   C     0.35610   0.56160   0.91770   0.01267  Uiso   1.00
C169   C     0.46040   0.78760   0.00000   0.01267  Uiso   1.00
C170   C     0.40860   0.80360   0.00000   0.01267  Uiso   1.00
C171   C     0.32270   0.83330   0.00000   0.01267  Uiso   1.00
C172   C     0.78760   0.46040   1.00000   0.01267  Uiso   1.00
C173   C     0.80360   0.40860   0.00000   0.01267  Uiso   1.00
C174   C     0.83330   0.32270   1.00000   0.01267  Uiso   1.00
C175   C     0.21240   0.21240   0.67280   0.01267  Uiso   1.00
C176   C     0.19640   0.19640   0.60500   0.01267  Uiso   1.00
C177   C     0.16670   0.16670   0.48940   0.01267  Uiso   1.00
C178   C     0.53960   0.53960   0.32720   0.01267  Uiso   1.00
C179   C     0.59140   0.59140   0.39500   0.01267  Uiso   1.00
C180   C     0.67730   0.67730   0.51060   0.01267  Uiso   1.00
C181   C     0.67280   0.21240   0.21240   0.01267  Uiso   1.00
C182   C     0.60500   0.19640   0.19640   0.01267  Uiso   1.00
C183   C     0.48940   0.16670   0.16670   0.01267  Uiso   1.00
C184   C     0.32720   0.53960   0.53960   0.01267  Uiso   1.00
C185   C     0.39500   0.59140   0.59140   0.01267  Uiso   1.00
C186   C     0.51060   0.67730   0.67730   0.01267  Uiso   1.00
C187   C     0.00000   0.46040   0.78760   0.01267  Uiso   1.00
C188   C     0.00000   0.40860   0.80360   0.01267  Uiso   1.00
C189   C     0.00000   0.32270   0.83330   0.01267  Uiso   1.00
C190   C     0.00000   0.78760   0.46040   0.01267  Uiso   1.00
C191   C     0.00000   0.80360   0.40860   0.01267  Uiso   1.00
C192   C     0.00000   0.83330   0.32270   0.01267  Uiso   1.00
C193   C     0.46040  -0.00000   0.78760   0.01267  Uiso   1.00
C194   C     0.40860  -0.00000   0.80360   0.01267  Uiso   1.00
C195   C     0.32270   0.00000   0.83330   0.01267  Uiso   1.00
C196   C     0.78760  -0.00000   0.46040   0.01267  Uiso   1.00
C197   C     0.80360  -0.00000   0.40860   0.01267  Uiso   1.00
C198   C     0.83330   0.00000   0.32270   0.01267  Uiso   1.00
C199   C     0.53960   0.32720   0.53960   0.01267  Uiso   1.00
C200   C     0.59140   0.39500   0.59140   0.01267  Uiso   1.00
C201   C     0.67730   0.51060   0.67730   0.01267  Uiso   1.00
C202   C     0.21240   0.67280   0.21240   0.01267  Uiso   1.00
C203   C     0.19640   0.60500   0.19640   0.01267  Uiso   1.00
C204   C     0.16670   0.48940   0.16670   0.01267  Uiso   1.00
C205   C     0.21240   0.53960  -0.00000   0.01267  Uiso   1.00
C206   C     0.19640   0.59140   0.00000   0.01267  Uiso   1.00
C207   C     0.16670   0.67730   0.00000   0.01267  Uiso   1.00
C208   C     0.53960   0.21240   0.00000   0.01267  Uiso   1.00
C209   C     0.59140   0.19640  -0.00000   0.01267  Uiso   1.00
C210   C     0.67730   0.16670   0.00000   0.01267  Uiso   1.00
C211   C     0.78760   0.78760   0.32720   0.01267  Uiso   1.00
C212   C     0.80360   0.80360   0.39500   0.01267  Uiso   1.00
C213   C     0.83330   0.83330   0.51060   0.01267  Uiso   1.00
C214   C     0.46040   0.46040   0.67280   0.01267  Uiso   1.00
C215   C     0.40860   0.40860   0.60500   0.01267  Uiso   1.00
C216   C     0.32270   0.32270   0.48940   0.01267  Uiso   1.00
C217   C     0.78760   0.32720   0.78760   0.01267  Uiso   1.00
C218   C     0.80360   0.39500   0.80360   0.01267  Uiso   1.00
C219   C     0.83330   0.51060   0.83330   0.01267  Uiso   1.00
C220   C     0.46040   0.67280   0.46040   0.01267  Uiso   1.00
C221   C     0.40860   0.60500   0.40860   0.01267  Uiso   1.00
C222   C     0.32270   0.48940   0.32270   0.01267  Uiso   1.00
C223   C     0.53960   0.00000   0.21240   0.01267  Uiso   1.00
C224   C     0.59140  -0.00000   0.19640   0.01267  Uiso   1.00
C225   C     0.67730  -0.00000   0.16670   0.01267  Uiso   1.00
C226   C     0.21240   0.00000   0.53960   0.01267  Uiso   1.00
C227   C     0.19640   0.00000   0.59140   0.01267  Uiso   1.00
C228   C     0.16670   0.00000   0.67730   0.01267  Uiso   1.00
C229   C     0.00000   0.53960   0.21240   0.01267  Uiso   1.00
C230   C     0.00000   0.59140   0.19640   0.01267  Uiso   1.00
C231   C     0.00000   0.67730   0.16670   0.01267  Uiso   1.00
C232   C     0.00000   0.21240   0.53960   0.01267  Uiso   1.00
C233   C     0.00000   0.19640   0.59140   0.01267  Uiso   1.00
C234   C     0.00000   0.16670   0.67730   0.01267  Uiso   1.00
C235   C     0.67280   0.46040   0.46040   0.01267  Uiso   1.00
C236   C     0.60500   0.40860   0.40860   0.01267  Uiso   1.00
C237   C     0.48940   0.32270   0.32270   0.01267  Uiso   1.00
C238   C     0.32720   0.78760   0.78760   0.01267  Uiso   1.00
C239   C     0.39500   0.80360   0.80360   0.01267  Uiso   1.00
C240   C     0.51060   0.83330   0.83330   0.01267  Uiso   1.00
N1     N     0.29600   0.62870   0.74590   0.01267  Uiso   1.00
N2     N     0.36100   0.78230   0.94510   0.01267  Uiso   1.00
N3     N     0.88280   0.55010   0.25410   0.01267  Uiso   1.00
N4     N     0.83720   0.41590   0.05490   0.01267  Uiso   1.00
N5     N     0.11720   0.37130   0.66730   0.01267  Uiso   1.00
N6     N     0.16280   0.21770   0.57870   0.01267  Uiso   1.00
N7     N     0.70400   0.44990   0.33270   0.01267  Uiso   1.00
N8     N     0.63900   0.58410   0.42130   0.01267  Uiso   1.00
N9     N     0.66730   0.11720   0.37130   0.01267  Uiso   1.00
N10    N     0.57870   0.16280   0.21770   0.01267  Uiso   1.00
N11    N     0.33270   0.70400   0.44990   0.01267  Uiso   1.00
N12    N     0.42130   0.63900   0.58410   0.01267  Uiso   1.00
N13    N     0.74590   0.29600   0.62870   0.01267  Uiso   1.00
N14    N     0.94510   0.36100   0.78230   0.01267  Uiso   1.00
N15    N     0.25410   0.88280   0.55010   0.01267  Uiso   1.00
N16    N     0.05490   0.83720   0.41590   0.01267  Uiso   1.00
N17    N     0.55010   0.25410   0.88280   0.01267  Uiso   1.00
N18    N     0.41590   0.05490   0.83720   0.01267  Uiso   1.00
N19    N     0.62870   0.74590   0.29600   0.01267  Uiso   1.00
N20    N     0.78230   0.94510   0.36100   0.01267  Uiso   1.00
N21    N     0.44990   0.33270   0.70400   0.01267  Uiso   1.00
N22    N     0.58410   0.42130   0.63900   0.01267  Uiso   1.00
N23    N     0.37130   0.66730   0.11720   0.01267  Uiso   1.00
N24    N     0.21770   0.57870   0.16280   0.01267  Uiso   1.00
N25    N     0.37130   0.70400   0.25410   0.01267  Uiso   1.00
N26    N     0.21770   0.63900   0.05490   0.01267  Uiso   1.00
N27    N     0.44990   0.11720   0.74590   0.01267  Uiso   1.00
N28    N     0.58410   0.16280   0.94510   0.01267  Uiso   1.00
N29    N     0.62870   0.88280   0.33270   0.01267  Uiso   1.00
N30    N     0.78230   0.83720   0.42130   0.01267  Uiso   1.00
N31    N     0.55010   0.29600   0.66730   0.01267  Uiso   1.00
N32    N     0.41590   0.36100   0.57870   0.01267  Uiso   1.00
N33    N     0.88280   0.33270   0.62870   0.01267  Uiso   1.00
N34    N     0.83720   0.42130   0.78230   0.01267  Uiso   1.00
N35    N     0.29600   0.66730   0.55010   0.01267  Uiso   1.00
N36    N     0.36100   0.57870   0.41590   0.01267  Uiso   1.00
N37    N     0.70400   0.25410   0.37130   0.01267  Uiso   1.00
N38    N     0.63900   0.05490   0.21770   0.01267  Uiso   1.00
N39    N     0.11720   0.74590   0.44990   0.01267  Uiso   1.00
N40    N     0.16280   0.94510   0.58410   0.01267  Uiso   1.00
N41    N     0.74590   0.44990   0.11720   0.01267  Uiso   1.00
N42    N     0.94510   0.58410   0.16280   0.01267  Uiso   1.00
N43    N     0.25410   0.37130   0.70400   0.01267  Uiso   1.00
N44    N     0.05490   0.21770   0.63900   0.01267  Uiso   1.00
N45    N     0.66730   0.55010   0.29600   0.01267  Uiso   1.00
N46    N     0.57870   0.41590   0.36100   0.01267  Uiso   1.00
N47    N     0.33270   0.62870   0.88280   0.01267  Uiso   1.00
N48    N     0.42130   0.78230   0.83720   0.01267  Uiso   1.00
N49    N     0.70400   0.37130   0.25410   0.01267  Uiso   1.00
N50    N     0.63900   0.21770   0.05490   0.01267  Uiso   1.00
N51    N     0.11720   0.44990   0.74590   0.01267  Uiso   1.00
N52    N     0.16280   0.58410   0.94510   0.01267  Uiso   1.00
N53    N     0.88280   0.62870   0.33270   0.01267  Uiso   1.00
N54    N     0.83720   0.78230   0.42130   0.01267  Uiso   1.00
N55    N     0.29600   0.55010   0.66730   0.01267  Uiso   1.00
N56    N     0.36100   0.41590   0.57870   0.01267  Uiso   1.00
N57    N     0.33270   0.88280   0.62870   0.01267  Uiso   1.00
N58    N     0.42130   0.83720   0.78230   0.01267  Uiso   1.00
N59    N     0.66730   0.29600   0.55010   0.01267  Uiso   1.00
N60    N     0.57870   0.36100   0.41590   0.01267  Uiso   1.00
N61    N     0.25410   0.70400   0.37130   0.01267  Uiso   1.00
N62    N     0.05490   0.63900   0.21770   0.01267  Uiso   1.00
N63    N     0.74590   0.11720   0.44990   0.01267  Uiso   1.00
N64    N     0.94510   0.16280   0.58410   0.01267  Uiso   1.00
N65    N     0.44990   0.74590   0.11720   0.01267  Uiso   1.00
N66    N     0.58410   0.94510   0.16280   0.01267  Uiso   1.00
N67    N     0.37130   0.25410   0.70400   0.01267  Uiso   1.00
N68    N     0.21770   0.05490   0.63900   0.01267  Uiso   1.00
N69    N     0.55010   0.66730   0.29600   0.01267  Uiso   1.00
N70    N     0.41590   0.57870   0.36100   0.01267  Uiso   1.00
N71    N     0.62870   0.33270   0.88280   0.01267  Uiso   1.00
N72    N     0.78230   0.42130   0.83720   0.01267  Uiso   1.00
N73    N     0.62870   0.29600   0.74590   0.01267  Uiso   1.00
N74    N     0.78230   0.36100   0.94510   0.01267  Uiso   1.00
N75    N     0.55010   0.88280   0.25410   0.01267  Uiso   1.00
N76    N     0.41590   0.83720   0.05490   0.01267  Uiso   1.00
N77    N     0.37130   0.11720   0.66730   0.01267  Uiso   1.00
N78    N     0.21770   0.16280   0.57870   0.01267  Uiso   1.00
N79    N     0.44990   0.70400   0.33270   0.01267  Uiso   1.00
N80    N     0.58410   0.63900   0.42130   0.01267  Uiso   1.00
N81    N     0.11720   0.66730   0.37130   0.01267  Uiso   1.00
N82    N     0.16280   0.57870   0.21770   0.01267  Uiso   1.00
N83    N     0.70400   0.33270   0.44990   0.01267  Uiso   1.00
N84    N     0.63900   0.42130   0.58410   0.01267  Uiso   1.00
N85    N     0.29600   0.74590   0.62870   0.01267  Uiso   1.00
N86    N     0.36100   0.94510   0.78230   0.01267  Uiso   1.00
N87    N     0.88280   0.25410   0.55010   0.01267  Uiso   1.00
N88    N     0.83720   0.05490   0.41590   0.01267  Uiso   1.00
N89    N     0.25410   0.55010   0.88280   0.01267  Uiso   1.00
N90    N     0.05490   0.41590   0.83720   0.01267  Uiso   1.00
N91    N     0.74590   0.62870   0.29600   0.01267  Uiso   1.00
N92    N     0.94510   0.78230   0.36100   0.01267  Uiso   1.00
N93    N     0.33270   0.44990   0.70400   0.01267  Uiso   1.00
N94    N     0.42130   0.58410   0.63900   0.01267  Uiso   1.00
N95    N     0.66730   0.37130   0.11720   0.01267  Uiso   1.00
N96    N     0.57870   0.21770   0.16280   0.01267  Uiso   1.00
O1     O     0.41344   0.66188   0.82552   0.01267  Uiso   1.00
O2     O     0.45273   0.75542   0.94801   0.01267  Uiso   1.00
O3     O     0.83636   0.58792   0.17448   0.01267  Uiso   1.00
O4     O     0.80741   0.50472   0.05199   0.01267  Uiso   1.00
O5     O     0.16364   0.33812   0.75156   0.01267  Uiso   1.00
O6     O     0.19259   0.24458   0.69731   0.01267  Uiso   1.00
O7     O     0.58656   0.41208   0.24844   0.01267  Uiso   1.00
O8     O     0.54727   0.49528   0.30269   0.01267  Uiso   1.00
O9     O     0.75156   0.16364   0.33812   0.01267  Uiso   1.00
O10    O     0.69731   0.19259   0.24458   0.01267  Uiso   1.00
O11    O     0.24844   0.58656   0.41208   0.01267  Uiso   1.00
O12    O     0.30269   0.54727   0.49528   0.01267  Uiso   1.00
O13    O     0.82552   0.41344   0.66188   0.01267  Uiso   1.00
O14    O     0.94801   0.45273   0.75542   0.01267  Uiso   1.00
O15    O     0.17448   0.83636   0.58792   0.01267  Uiso   1.00
O16    O     0.05199   0.80741   0.50472   0.01267  Uiso   1.00
O17    O     0.58792   0.17448   0.83636   0.01267  Uiso   1.00
O18    O     0.50472   0.05199   0.80741   0.01267  Uiso   1.00
O19    O     0.66188   0.82552   0.41344   0.01267  Uiso   1.00
O20    O     0.75542   0.94801   0.45273   0.01267  Uiso   1.00
O21    O     0.41208   0.24844   0.58656   0.01267  Uiso   1.00
O22    O     0.49528   0.30269   0.54727   0.01267  Uiso   1.00
O23    O     0.33812   0.75156   0.16364   0.01267  Uiso   1.00
O24    O     0.24458   0.69731   0.19259   0.01267  Uiso   1.00
O25    O     0.33812   0.58656   0.17448   0.01267  Uiso   1.00
O26    O     0.24458   0.54727   0.05199   0.01267  Uiso   1.00
O27    O     0.41208   0.16364   0.82552   0.01267  Uiso   1.00
O28    O     0.49528   0.19259   0.94801   0.01267  Uiso   1.00
O29    O     0.66188   0.83636   0.24844   0.01267  Uiso   1.00
O30    O     0.75542   0.80741   0.30269   0.01267  Uiso   1.00
O31    O     0.58792   0.41344   0.75156   0.01267  Uiso   1.00
O32    O     0.50472   0.45273   0.69731   0.01267  Uiso   1.00
O33    O     0.83636   0.24844   0.66188   0.01267  Uiso   1.00
O34    O     0.80741   0.30269   0.75542   0.01267  Uiso   1.00
O35    O     0.41344   0.75156   0.58792   0.01267  Uiso   1.00
O36    O     0.45273   0.69731   0.50472   0.01267  Uiso   1.00
O37    O     0.58656   0.17448   0.33812   0.01267  Uiso   1.00
O38    O     0.54727   0.05199   0.24458   0.01267  Uiso   1.00
O39    O     0.16364   0.82552   0.41208   0.01267  Uiso   1.00
O40    O     0.19259   0.94801   0.49528   0.01267  Uiso   1.00
O41    O     0.82552   0.41208   0.16364   0.01267  Uiso   1.00
O42    O     0.94801   0.49528   0.19259   0.01267  Uiso   1.00
O43    O     0.17448   0.33812   0.58656   0.01267  Uiso   1.00
O44    O     0.05199   0.24458   0.54727   0.01267  Uiso   1.00
O45    O     0.75156   0.58792   0.41344   0.01267  Uiso   1.00
O46    O     0.69731   0.50472   0.45273   0.01267  Uiso   1.00
O47    O     0.24844   0.66188   0.83636   0.01267  Uiso   1.00
O48    O     0.30269   0.75542   0.80741   0.01267  Uiso   1.00
O49    O     0.58656   0.33812   0.17448   0.01267  Uiso   1.00
O50    O     0.54727   0.24458   0.05199   0.01267  Uiso   1.00
O51    O     0.16364   0.41208   0.82552   0.01267  Uiso   1.00
O52    O     0.19259   0.49528   0.94801   0.01267  Uiso   1.00
O53    O     0.83636   0.66188   0.24844   0.01267  Uiso   1.00
O54    O     0.80741   0.75542   0.30269   0.01267  Uiso   1.00
O55    O     0.41344   0.58792   0.75156   0.01267  Uiso   1.00
O56    O     0.45273   0.50472   0.69731   0.01267  Uiso   1.00
O57    O     0.24844   0.83636   0.66188   0.01267  Uiso   1.00
O58    O     0.30269   0.80741   0.75542   0.01267  Uiso   1.00
O59    O     0.75156   0.41344   0.58792   0.01267  Uiso   1.00
O60    O     0.69731   0.45273   0.50472   0.01267  Uiso   1.00
O61    O     0.17448   0.58656   0.33812   0.01267  Uiso   1.00
O62    O     0.05199   0.54727   0.24458   0.01267  Uiso   1.00
O63    O     0.82552   0.16364   0.41208   0.01267  Uiso   1.00
O64    O     0.94801   0.19259   0.49528   0.01267  Uiso   1.00
O65    O     0.41208   0.82552   0.16364   0.01267  Uiso   1.00
O66    O     0.49528   0.94801   0.19259   0.01267  Uiso   1.00
O67    O     0.33812   0.17448   0.58656   0.01267  Uiso   1.00
O68    O     0.24458   0.05199   0.54727   0.01267  Uiso   1.00
O69    O     0.58792   0.75156   0.41344   0.01267  Uiso   1.00
O70    O     0.50472   0.69731   0.45273   0.01267  Uiso   1.00
O71    O     0.66188   0.24844   0.83636   0.01267  Uiso   1.00
O72    O     0.75542   0.30269   0.80741   0.01267  Uiso   1.00
O73    O     0.66188   0.41344   0.82552   0.01267  Uiso   1.00
O74    O     0.75542   0.45273   0.94801   0.01267  Uiso   1.00
O75    O     0.58792   0.83636   0.17448   0.01267  Uiso   1.00
O76    O     0.50472   0.80741   0.05199   0.01267  Uiso   1.00
O77    O     0.33812   0.16364   0.75156   0.01267  Uiso   1.00
O78    O     0.24458   0.19259   0.69731   0.01267  Uiso   1.00
O79    O     0.41208   0.58656   0.24844   0.01267  Uiso   1.00
O80    O     0.49528   0.54727   0.30269   0.01267  Uiso   1.00
O81    O     0.16364   0.75156   0.33812   0.01267  Uiso   1.00
O82    O     0.19259   0.69731   0.24458   0.01267  Uiso   1.00
O83    O     0.58656   0.24844   0.41208   0.01267  Uiso   1.00
O84    O     0.54727   0.30269   0.49528   0.01267  Uiso   1.00
O85    O     0.41344   0.82552   0.66188   0.01267  Uiso   1.00
O86    O     0.45273   0.94801   0.75542   0.01267  Uiso   1.00
O87    O     0.83636   0.17448   0.58792   0.01267  Uiso   1.00
O88    O     0.80741   0.05199   0.50472   0.01267  Uiso   1.00
O89    O     0.17448   0.58792   0.83636   0.01267  Uiso   1.00
O90    O     0.05199   0.50472   0.80741   0.01267  Uiso   1.00
O91    O     0.82552   0.66188   0.41344   0.01267  Uiso   1.00
O92    O     0.94801   0.75542   0.45273   0.01267  Uiso   1.00
O93    O     0.24844   0.41208   0.58656   0.01267  Uiso   1.00
O94    O     0.30269   0.49528   0.54727   0.01267  Uiso   1.00
O95    O     0.75156   0.33812   0.16364   0.01267  Uiso   1.00
O96    O     0.69731   0.24458   0.19259   0.01267  Uiso   1.00
