data_image0
_cell_length_a       8.5911
_cell_length_b       8.5872
_cell_length_c       52.7295
_cell_angle_alpha    90
_cell_angle_beta     90
_cell_angle_gamma    90

_symmetry_space_group_name_H-M    "P 1"
_symmetry_int_tables_number       1

loop_
  _symmetry_equiv_pos_as_xyz
  'x, y, z'

loop_
  _atom_site_label
  _atom_site_occupancy
  _atom_site_fract_x
  _atom_site_fract_y
  _atom_site_fract_z
  _atom_site_thermal_displace_type
  _atom_site_B_iso_or_equiv
  _atom_site_type_symbol
  Cu1      1.0000 0.40519  0.89784  0.73482  Biso   1.000  Cu
  O1       1.0000 0.17560  0.88210  0.73205  Biso   1.000  O
  O2       1.0000 0.20140  0.64990  0.71399  Biso   1.000  O
  C1       1.0000 0.12010  0.75700  0.72241  Biso   1.000  C
  C2       1.0000 0.94100  0.74810  0.72180  Biso   1.000  C
  H1       1.0000 0.90020  0.82530  0.70960  Biso   1.000  H
  H2       1.0000 0.90840  0.64320  0.71610  Biso   1.000  H
  C3       1.0000 0.87330  0.78070  0.74818  Biso   1.000  C
  H3       1.0000 0.89930  0.89060  0.75280  Biso   1.000  H
  O3       1.0000 0.93920  0.68210  0.76670  Biso   1.000  O
  H4       1.0000 0.90020  0.70240  0.78090  Biso   1.000  H
  C4       1.0000 0.69530  0.76680  0.74677  Biso   1.000  C
  O4       1.0000 0.63190  0.88170  0.73521  Biso   1.000  O
  O5       1.0000 0.62920  0.65450  0.75608  Biso   1.000  O
  Cu2      1.0000 0.18384  0.15471  0.48759  Biso   1.000  Cu
  O6       1.0000 0.20100  0.92620  0.48469  Biso   1.000  O
  O7       1.0000 0.43180  0.95260  0.46595  Biso   1.000  O
  C5       1.0000 0.32450  0.87180  0.47429  Biso   1.000  C
  C6       1.0000 0.33520  0.69400  0.47373  Biso   1.000  C
  H5       1.0000 0.26040  0.65290  0.46110  Biso   1.000  H
  H6       1.0000 0.44120  0.66300  0.46830  Biso   1.000  H
  C7       1.0000 0.30080  0.62340  0.49929  Biso   1.000  C
  H7       1.0000 0.19170  0.65150  0.50400  Biso   1.000  H
  O8       1.0000 0.40230  0.68490  0.51832  Biso   1.000  O
  H8       1.0000 0.45030  0.61160  0.52540  Biso   1.000  H
  C8       1.0000 0.31070  0.44790  0.49762  Biso   1.000  C
  O9       1.0000 0.18610  0.38130  0.48886  Biso   1.000  O
  O10      1.0000 0.43040  0.37700  0.50361  Biso   1.000  O
  N1       1.0000 0.41710  0.93670  0.69721  Biso   1.000  N
  C9       1.0000 0.50300  0.84920  0.68151  Biso   1.000  C
  H9       1.0000 0.57190  0.77430  0.68850  Biso   1.000  H
  C10      1.0000 0.49480  0.86390  0.65554  Biso   1.000  C
  H10      1.0000 0.55430  0.79600  0.64510  Biso   1.000  H
  C11      1.0000 0.40200  0.97530  0.64432  Biso   1.000  C
  C12      1.0000 0.31900  0.07220  0.66085  Biso   1.000  C
  H11      1.0000 0.25580  0.15390  0.65440  Biso   1.000  H
  C13      1.0000 0.33010  0.04730  0.68696  Biso   1.000  C
  H12      1.0000 0.27220  0.11310  0.69790  Biso   1.000  H
  C14      1.0000 0.38960  0.98570  0.61673  Biso   1.000  C
  H13      1.0000 0.44970  0.91610  0.60670  Biso   1.000  H
  C15      1.0000 0.29630  0.09020  0.60465  Biso   1.000  C
  H14      1.0000 0.23770  0.16010  0.61480  Biso   1.000  H
  C16      1.0000 0.27970  0.10260  0.57686  Biso   1.000  C
  C17      1.0000 0.37080  0.02520  0.55939  Biso   1.000  C
  H15      1.0000 0.45250  0.95890  0.56500  Biso   1.000  H
  C18      1.0000 0.34360  0.04400  0.53410  Biso   1.000  C
  H16      1.0000 0.40750  0.98920  0.52240  Biso   1.000  H
  C19      1.0000 0.14600  0.21550  0.54151  Biso   1.000  C
  H17      1.0000 0.06750  0.28310  0.53520  Biso   1.000  H
  C20      1.0000 0.16640  0.20460  0.56747  Biso   1.000  C
  H18      1.0000 0.10460  0.26510  0.57870  Biso   1.000  H
  N2       1.0000 0.23120  0.13590  0.52499  Biso   1.000  N
  N3       1.0000 0.39170  0.86260  0.77227  Biso   1.000  N
  C21      1.0000 0.48320  0.94300  0.78807  Biso   1.000  C
  H19      1.0000 0.55760  0.01290  0.78110  Biso   1.000  H
  C22      1.0000 0.47330  0.92790  0.81419  Biso   1.000  C
  H20      1.0000 0.53970  0.98720  0.82490  Biso   1.000  H
  C23      1.0000 0.36410  0.82400  0.82484  Biso   1.000  C
  C24      1.0000 0.27860  0.73760  0.80841  Biso   1.000  C
  H21      1.0000 0.20770  0.66280  0.81490  Biso   1.000  H
  C25      1.0000 0.29160  0.75540  0.78229  Biso   1.000  C
  H22      1.0000 0.23040  0.69260  0.77130  Biso   1.000  H
  C26      1.0000 0.34420  0.79620  0.85186  Biso   1.000  C
  H23      1.0000 0.26750  0.72260  0.85680  Biso   1.000  H
  C27      1.0000 0.42310  0.86410  0.86969  Biso   1.000  C
  H24      1.0000 0.50500  0.93190  0.86470  Biso   1.000  H
  C28      1.0000 0.39470  0.84350  0.89730  Biso   1.000  C
  C29      1.0000 0.28190  0.74800  0.90817  Biso   1.000  C
  H25      1.0000 0.21610  0.68670  0.89770  Biso   1.000  H
  C30      1.0000 0.26570  0.74230  0.93461  Biso   1.000  C
  H26      1.0000 0.19100  0.67440  0.94200  Biso   1.000  H
  C31      1.0000 0.46440  0.92180  0.93913  Biso   1.000  C
  H27      1.0000 0.52870  0.98340  0.94980  Biso   1.000  H
  C32      1.0000 0.48830  0.92870  0.91304  Biso   1.000  C
  H28      1.0000 0.56880  0.99200  0.90620  Biso   1.000  H
  N4       1.0000 0.35560  0.83290  0.94986  Biso   1.000  N
  Cu3      1.0000 0.09481  0.10216  0.23482  Biso   1.000  Cu
  O11      1.0000 0.32440  0.11790  0.23205  Biso   1.000  O
  O12      1.0000 0.29860  0.35010  0.21399  Biso   1.000  O
  C33      1.0000 0.37990  0.24300  0.22241  Biso   1.000  C
  C34      1.0000 0.55900  0.25190  0.22180  Biso   1.000  C
  H29      1.0000 0.59980  0.17470  0.20960  Biso   1.000  H
  H30      1.0000 0.59160  0.35680  0.21610  Biso   1.000  H
  C35      1.0000 0.62670  0.21930  0.24818  Biso   1.000  C
  H31      1.0000 0.60070  0.10940  0.25280  Biso   1.000  H
  O13      1.0000 0.56080  0.31790  0.26670  Biso   1.000  O
  H32      1.0000 0.59980  0.29760  0.28090  Biso   1.000  H
  C36      1.0000 0.80470  0.23320  0.24677  Biso   1.000  C
  O14      1.0000 0.86810  0.11830  0.23521  Biso   1.000  O
  O15      1.0000 0.87080  0.34550  0.25608  Biso   1.000  O
  Cu4      1.0000 0.31616  0.84529  0.98759  Biso   1.000  Cu
  O16      1.0000 0.29900  0.07380  0.98469  Biso   1.000  O
  O17      1.0000 0.06820  0.04740  0.96595  Biso   1.000  O
  C37      1.0000 0.17550  0.12820  0.97429  Biso   1.000  C
  C38      1.0000 0.16480  0.30600  0.97373  Biso   1.000  C
  H33      1.0000 0.23960  0.34710  0.96110  Biso   1.000  H
  H34      1.0000 0.05880  0.33700  0.96830  Biso   1.000  H
  C39      1.0000 0.19920  0.37660  0.99929  Biso   1.000  C
  H35      1.0000 0.30830  0.34850  0.00400  Biso   1.000  H
  O18      1.0000 0.09770  0.31510  0.01832  Biso   1.000  O
  H36      1.0000 0.04970  0.38840  0.02540  Biso   1.000  H
  C40      1.0000 0.18930  0.55210  0.99762  Biso   1.000  C
  O19      1.0000 0.31390  0.61870  0.98886  Biso   1.000  O
  O20      1.0000 0.06960  0.62300  0.00361  Biso   1.000  O
  N5       1.0000 0.08290  0.06330  0.19721  Biso   1.000  N
  C41      1.0000 0.99700  0.15080  0.18151  Biso   1.000  C
  H37      1.0000 0.92810  0.22570  0.18850  Biso   1.000  H
  C42      1.0000 0.00520  0.13610  0.15554  Biso   1.000  C
  H38      1.0000 0.94570  0.20400  0.14510  Biso   1.000  H
  C43      1.0000 0.09800  0.02470  0.14432  Biso   1.000  C
  C44      1.0000 0.18100  0.92780  0.16085  Biso   1.000  C
  H39      1.0000 0.24420  0.84610  0.15440  Biso   1.000  H
  C45      1.0000 0.16990  0.95270  0.18696  Biso   1.000  C
  H40      1.0000 0.22780  0.88690  0.19790  Biso   1.000  H
  C46      1.0000 0.11040  0.01430  0.11673  Biso   1.000  C
  H41      1.0000 0.05030  0.08390  0.10670  Biso   1.000  H
  C47      1.0000 0.20370  0.90980  0.10465  Biso   1.000  C
  H42      1.0000 0.26230  0.83990  0.11480  Biso   1.000  H
  C48      1.0000 0.22030  0.89740  0.07686  Biso   1.000  C
  C49      1.0000 0.12920  0.97480  0.05939  Biso   1.000  C
  H43      1.0000 0.04750  0.04110  0.06500  Biso   1.000  H
  C50      1.0000 0.15640  0.95600  0.03410  Biso   1.000  C
  H44      1.0000 0.09250  0.01080  0.02240  Biso   1.000  H
  C51      1.0000 0.35400  0.78450  0.04151  Biso   1.000  C
  H45      1.0000 0.43250  0.71690  0.03520  Biso   1.000  H
  C52      1.0000 0.33360  0.79540  0.06747  Biso   1.000  C
  H46      1.0000 0.39540  0.73490  0.07870  Biso   1.000  H
  N6       1.0000 0.26880  0.86410  0.02499  Biso   1.000  N
  N7       1.0000 0.10830  0.13740  0.27227  Biso   1.000  N
  C53      1.0000 0.01680  0.05700  0.28807  Biso   1.000  C
  H47      1.0000 0.94240  0.98710  0.28110  Biso   1.000  H
  C54      1.0000 0.02670  0.07210  0.31419  Biso   1.000  C
  H48      1.0000 0.96030  0.01280  0.32490  Biso   1.000  H
  C55      1.0000 0.13590  0.17600  0.32484  Biso   1.000  C
  C56      1.0000 0.22140  0.26240  0.30841  Biso   1.000  C
  H49      1.0000 0.29230  0.33720  0.31490  Biso   1.000  H
  C57      1.0000 0.20840  0.24460  0.28229  Biso   1.000  C
  H50      1.0000 0.26960  0.30740  0.27130  Biso   1.000  H
  C58      1.0000 0.15580  0.20380  0.35186  Biso   1.000  C
  H51      1.0000 0.23250  0.27740  0.35680  Biso   1.000  H
  C59      1.0000 0.07690  0.13590  0.36969  Biso   1.000  C
  H52      1.0000 0.99500  0.06810  0.36470  Biso   1.000  H
  C60      1.0000 0.10530  0.15650  0.39730  Biso   1.000  C
  C61      1.0000 0.21810  0.25200  0.40817  Biso   1.000  C
  H53      1.0000 0.28390  0.31330  0.39770  Biso   1.000  H
  C62      1.0000 0.23430  0.25770  0.43461  Biso   1.000  C
  H54      1.0000 0.30900  0.32560  0.44200  Biso   1.000  H
  C63      1.0000 0.03560  0.07820  0.43913  Biso   1.000  C
  H55      1.0000 0.97130  0.01660  0.44980  Biso   1.000  H
  C64      1.0000 0.01170  0.07130  0.41304  Biso   1.000  C
  H56      1.0000 0.93120  0.00800  0.40620  Biso   1.000  H
  N8       1.0000 0.14440  0.16710  0.44986  Biso   1.000  N
  Cu5      1.0000 0.59481  0.39784  0.76518  Biso   1.000  Cu
  O21      1.0000 0.82440  0.38210  0.76795  Biso   1.000  O
  O22      1.0000 0.79860  0.14990  0.78601  Biso   1.000  O
  C65      1.0000 0.87990  0.25700  0.77759  Biso   1.000  C
  C66      1.0000 0.05900  0.24810  0.77820  Biso   1.000  C
  H57      1.0000 0.09980  0.32530  0.79040  Biso   1.000  H
  H58      1.0000 0.09160  0.14320  0.78390  Biso   1.000  H
  C67      1.0000 0.12670  0.28070  0.75182  Biso   1.000  C
  H59      1.0000 0.10070  0.39060  0.74720  Biso   1.000  H
  O23      1.0000 0.06080  0.18210  0.73330  Biso   1.000  O
  H60      1.0000 0.09980  0.20240  0.71910  Biso   1.000  H
  C68      1.0000 0.30470  0.26680  0.75323  Biso   1.000  C
  O24      1.0000 0.36810  0.38170  0.76479  Biso   1.000  O
  O25      1.0000 0.37080  0.15450  0.74392  Biso   1.000  O
  Cu6      1.0000 0.81616  0.65471  0.01241  Biso   1.000  Cu
  O26      1.0000 0.79900  0.42620  0.01531  Biso   1.000  O
  O27      1.0000 0.56820  0.45260  0.03405  Biso   1.000  O
  C69      1.0000 0.67550  0.37180  0.02571  Biso   1.000  C
  C70      1.0000 0.66480  0.19400  0.02627  Biso   1.000  C
  H61      1.0000 0.73960  0.15290  0.03890  Biso   1.000  H
  H62      1.0000 0.55880  0.16300  0.03170  Biso   1.000  H
  C71      1.0000 0.69920  0.12340  0.00071  Biso   1.000  C
  H63      1.0000 0.80830  0.15150  0.99600  Biso   1.000  H
  O28      1.0000 0.59770  0.18490  0.98168  Biso   1.000  O
  H64      1.0000 0.54970  0.11160  0.97460  Biso   1.000  H
  C72      1.0000 0.68930  0.94790  0.00238  Biso   1.000  C
  O29      1.0000 0.81390  0.88130  0.01114  Biso   1.000  O
  O30      1.0000 0.56960  0.87700  0.99639  Biso   1.000  O
  N9       1.0000 0.58290  0.43670  0.80279  Biso   1.000  N
  C73      1.0000 0.49700  0.34920  0.81849  Biso   1.000  C
  H65      1.0000 0.42810  0.27430  0.81150  Biso   1.000  H
  C74      1.0000 0.50520  0.36390  0.84446  Biso   1.000  C
  H66      1.0000 0.44570  0.29600  0.85490  Biso   1.000  H
  C75      1.0000 0.59800  0.47530  0.85568  Biso   1.000  C
  C76      1.0000 0.68100  0.57220  0.83915  Biso   1.000  C
  H67      1.0000 0.74420  0.65390  0.84560  Biso   1.000  H
  C77      1.0000 0.66990  0.54730  0.81304  Biso   1.000  C
  H68      1.0000 0.72780  0.61310  0.80210  Biso   1.000  H
  C78      1.0000 0.61040  0.48570  0.88327  Biso   1.000  C
  H69      1.0000 0.55030  0.41610  0.89330  Biso   1.000  H
  C79      1.0000 0.70370  0.59020  0.89535  Biso   1.000  C
  H70      1.0000 0.76230  0.66010  0.88520  Biso   1.000  H
  C80      1.0000 0.72030  0.60260  0.92314  Biso   1.000  C
  C81      1.0000 0.62920  0.52520  0.94061  Biso   1.000  C
  H71      1.0000 0.54750  0.45890  0.93500  Biso   1.000  H
  C82      1.0000 0.65640  0.54400  0.96590  Biso   1.000  C
  H72      1.0000 0.59250  0.48920  0.97760  Biso   1.000  H
  C83      1.0000 0.85400  0.71550  0.95849  Biso   1.000  C
  H73      1.0000 0.93250  0.78310  0.96480  Biso   1.000  H
  C84      1.0000 0.83360  0.70460  0.93253  Biso   1.000  C
  H74      1.0000 0.89540  0.76510  0.92130  Biso   1.000  H
  N10      1.0000 0.76880  0.63590  0.97501  Biso   1.000  N
  N11      1.0000 0.60830  0.36260  0.72773  Biso   1.000  N
  C85      1.0000 0.51680  0.44300  0.71193  Biso   1.000  C
  H75      1.0000 0.44240  0.51290  0.71890  Biso   1.000  H
  C86      1.0000 0.52670  0.42790  0.68581  Biso   1.000  C
  H76      1.0000 0.46030  0.48720  0.67510  Biso   1.000  H
  C87      1.0000 0.63590  0.32400  0.67516  Biso   1.000  C
  C88      1.0000 0.72140  0.23760  0.69159  Biso   1.000  C
  H77      1.0000 0.79230  0.16280  0.68510  Biso   1.000  H
  C89      1.0000 0.70840  0.25540  0.71771  Biso   1.000  C
  H78      1.0000 0.76960  0.19260  0.72870  Biso   1.000  H
  C90      1.0000 0.65580  0.29620  0.64814  Biso   1.000  C
  H79      1.0000 0.73250  0.22260  0.64320  Biso   1.000  H
  C91      1.0000 0.57690  0.36410  0.63031  Biso   1.000  C
  H80      1.0000 0.49500  0.43190  0.63530  Biso   1.000  H
  C92      1.0000 0.60530  0.34350  0.60270  Biso   1.000  C
  C93      1.0000 0.71810  0.24800  0.59183  Biso   1.000  C
  H81      1.0000 0.78390  0.18670  0.60230  Biso   1.000  H
  C94      1.0000 0.73430  0.24230  0.56539  Biso   1.000  C
  H82      1.0000 0.80900  0.17440  0.55800  Biso   1.000  H
  C95      1.0000 0.53560  0.42180  0.56087  Biso   1.000  C
  H83      1.0000 0.47130  0.48340  0.55020  Biso   1.000  H
  C96      1.0000 0.51170  0.42870  0.58696  Biso   1.000  C
  H84      1.0000 0.43120  0.49200  0.59380  Biso   1.000  H
  N12      1.0000 0.64440  0.33290  0.55014  Biso   1.000  N
  Cu7      1.0000 0.90519  0.60216  0.26518  Biso   1.000  Cu
  O31      1.0000 0.67560  0.61790  0.26795  Biso   1.000  O
  O32      1.0000 0.70140  0.85010  0.28601  Biso   1.000  O
  C97      1.0000 0.62010  0.74300  0.27759  Biso   1.000  C
  C98      1.0000 0.44100  0.75190  0.27820  Biso   1.000  C
  H85      1.0000 0.40020  0.67470  0.29040  Biso   1.000  H
  H86      1.0000 0.40840  0.85680  0.28390  Biso   1.000  H
  C99      1.0000 0.37330  0.71930  0.25182  Biso   1.000  C
  H87      1.0000 0.39930  0.60940  0.24720  Biso   1.000  H
  O33      1.0000 0.43920  0.81790  0.23330  Biso   1.000  O
  H88      1.0000 0.40020  0.79760  0.21910  Biso   1.000  H
  C100     1.0000 0.19530  0.73320  0.25323  Biso   1.000  C
  O34      1.0000 0.13190  0.61830  0.26479  Biso   1.000  O
  O35      1.0000 0.12920  0.84550  0.24392  Biso   1.000  O
  Cu8      1.0000 0.68384  0.34529  0.51241  Biso   1.000  Cu
  O36      1.0000 0.70100  0.57380  0.51531  Biso   1.000  O
  O37      1.0000 0.93180  0.54740  0.53405  Biso   1.000  O
  C101     1.0000 0.82450  0.62820  0.52571  Biso   1.000  C
  C102     1.0000 0.83520  0.80600  0.52627  Biso   1.000  C
  H89      1.0000 0.76040  0.84710  0.53890  Biso   1.000  H
  H90      1.0000 0.94120  0.83700  0.53170  Biso   1.000  H
  C103     1.0000 0.80080  0.87660  0.50071  Biso   1.000  C
  H91      1.0000 0.69170  0.84850  0.49600  Biso   1.000  H
  O38      1.0000 0.90230  0.81510  0.48168  Biso   1.000  O
  H92      1.0000 0.95030  0.88840  0.47460  Biso   1.000  H
  C104     1.0000 0.81070  0.05210  0.50238  Biso   1.000  C
  O39      1.0000 0.68610  0.11870  0.51114  Biso   1.000  O
  O40      1.0000 0.93040  0.12300  0.49639  Biso   1.000  O
  N13      1.0000 0.91710  0.56330  0.30279  Biso   1.000  N
  C105     1.0000 0.00300  0.65080  0.31849  Biso   1.000  C
  H93      1.0000 0.07190  0.72570  0.31150  Biso   1.000  H
  C106     1.0000 0.99480  0.63610  0.34446  Biso   1.000  C
  H94      1.0000 0.05430  0.70400  0.35490  Biso   1.000  H
  C107     1.0000 0.90200  0.52470  0.35568  Biso   1.000  C
  C108     1.0000 0.81900  0.42780  0.33915  Biso   1.000  C
  H95      1.0000 0.75580  0.34610  0.34560  Biso   1.000  H
  C109     1.0000 0.83010  0.45270  0.31304  Biso   1.000  C
  H96      1.0000 0.77220  0.38690  0.30210  Biso   1.000  H
  C110     1.0000 0.88960  0.51430  0.38327  Biso   1.000  C
  H97      1.0000 0.94970  0.58390  0.39330  Biso   1.000  H
  C111     1.0000 0.79630  0.40980  0.39535  Biso   1.000  C
  H98      1.0000 0.73770  0.33990  0.38520  Biso   1.000  H
  C112     1.0000 0.77970  0.39740  0.42314  Biso   1.000  C
  C113     1.0000 0.87080  0.47480  0.44061  Biso   1.000  C
  H99      1.0000 0.95250  0.54110  0.43500  Biso   1.000  H
  C114     1.0000 0.84360  0.45600  0.46590  Biso   1.000  C
  H100     1.0000 0.90750  0.51080  0.47760  Biso   1.000  H
  C115     1.0000 0.64600  0.28450  0.45849  Biso   1.000  C
  H101     1.0000 0.56750  0.21690  0.46480  Biso   1.000  H
  C116     1.0000 0.66640  0.29540  0.43253  Biso   1.000  C
  H102     1.0000 0.60460  0.23490  0.42130  Biso   1.000  H
  N14      1.0000 0.73120  0.36410  0.47501  Biso   1.000  N
  N15      1.0000 0.89170  0.63740  0.22773  Biso   1.000  N
  C117     1.0000 0.98320  0.55700  0.21193  Biso   1.000  C
  H103     1.0000 0.05760  0.48710  0.21890  Biso   1.000  H
  C118     1.0000 0.97330  0.57210  0.18581  Biso   1.000  C
  H104     1.0000 0.03970  0.51280  0.17510  Biso   1.000  H
  C119     1.0000 0.86410  0.67600  0.17516  Biso   1.000  C
  C120     1.0000 0.77860  0.76240  0.19159  Biso   1.000  C
  H105     1.0000 0.70770  0.83720  0.18510  Biso   1.000  H
  C121     1.0000 0.79160  0.74460  0.21771  Biso   1.000  C
  H106     1.0000 0.73040  0.80740  0.22870  Biso   1.000  H
  C122     1.0000 0.84420  0.70380  0.14814  Biso   1.000  C
  H107     1.0000 0.76750  0.77740  0.14320  Biso   1.000  H
  C123     1.0000 0.92310  0.63590  0.13031  Biso   1.000  C
  H108     1.0000 0.00500  0.56810  0.13530  Biso   1.000  H
  C124     1.0000 0.89470  0.65650  0.10270  Biso   1.000  C
  C125     1.0000 0.78190  0.75200  0.09183  Biso   1.000  C
  H109     1.0000 0.71610  0.81330  0.10230  Biso   1.000  H
  C126     1.0000 0.76570  0.75770  0.06539  Biso   1.000  C
  H110     1.0000 0.69100  0.82560  0.05800  Biso   1.000  H
  C127     1.0000 0.96440  0.57820  0.06087  Biso   1.000  C
  H111     1.0000 0.02870  0.51660  0.05020  Biso   1.000  H
  C128     1.0000 0.98830  0.57130  0.08696  Biso   1.000  C
  H112     1.0000 0.06880  0.50800  0.09380  Biso   1.000  H
  N16      1.0000 0.85560  0.66710  0.05014  Biso   1.000  N
