data_GIYSIR_clean
_audit_creation_date              2014-07-02
_audit_creation_method            'Materials Studio'
_symmetry_space_group_name_H-M    'P1'
_symmetry_Int_Tables_number       1
_symmetry_cell_setting            triclinic
loop_
_symmetry_equiv_pos_as_xyz
  x,y,z
_cell_length_a                    9.6250
_cell_length_b                    11.7800
_cell_length_c                    18.7140
_cell_angle_alpha                 90.0000
_cell_angle_beta                  98.1800
_cell_angle_gamma                 90.0000
loop_
_atom_site_label
_atom_site_type_symbol
_atom_site_fract_x
_atom_site_fract_y
_atom_site_fract_z
_atom_site_U_iso_or_equiv
_atom_site_adp_type
_atom_site_occupancy
Cu1    Cu    0.71963   0.36987   0.21110   0.01267  Uiso   1.00
Cu2    Cu    0.03612   0.37256   0.10948   0.01267  Uiso   1.00
Cu3    Cu    0.28037   0.36987   0.28890   0.01267  Uiso   1.00
Cu4    Cu    0.96388   0.37256   0.39052   0.01267  Uiso   1.00
Cu5    Cu    0.28037   0.63013   0.78890   0.01267  Uiso   1.00
Cu6    Cu    0.96388   0.62744   0.89052   0.01267  Uiso   1.00
Cu7    Cu    0.71963   0.63013   0.71110   0.01267  Uiso   1.00
Cu8    Cu    0.03612   0.62744   0.60948   0.01267  Uiso   1.00
Mo1    Mo    0.00000   0.37149   0.25000   0.01267  Uiso   1.00
Mo2    Mo    0.00000   0.62851   0.75000   0.01267  Uiso   1.00
H1     H     0.42720   0.44710   0.14970   0.01267  Uiso   1.00
H2     H     0.31010   0.57830   0.07240   0.01267  Uiso   1.00
H3     H     0.68340   0.68570   0.02780   0.01267  Uiso   1.00
H4     H     0.79090   0.55440   0.10960   0.01267  Uiso   1.00
H5     H     0.47100   0.75850   0.95510   0.01267  Uiso   1.00
H6     H     0.32330   0.70200   0.96430   0.01267  Uiso   1.00
H7     H     0.45550   0.87660   0.05660   0.01267  Uiso   1.00
H8     H     0.30770   0.82030   0.06570   0.01267  Uiso   1.00
H9     H     0.36140   0.95340   0.94620   0.01267  Uiso   1.00
H10    H     0.21570   0.89070   0.94970   0.01267  Uiso   1.00
H11    H     0.36370   0.03320   0.10890   0.01267  Uiso   1.00
H12    H     0.27130   0.19360   0.15370   0.01267  Uiso   1.00
H13    H     0.02250   0.24090   0.97310   0.01267  Uiso   1.00
H14    H     0.08900   0.06690   0.92710   0.01267  Uiso   1.00
H15    H     0.57280   0.44710   0.35030   0.01267  Uiso   1.00
H16    H     0.68990   0.57830   0.42760   0.01267  Uiso   1.00
H17    H     0.31660   0.68570   0.47220   0.01267  Uiso   1.00
H18    H     0.20910   0.55440   0.39040   0.01267  Uiso   1.00
H19    H     0.52900   0.75850   0.54490   0.01267  Uiso   1.00
H20    H     0.67670   0.70200   0.53570   0.01267  Uiso   1.00
H21    H     0.54450   0.87660   0.44340   0.01267  Uiso   1.00
H22    H     0.69230   0.82030   0.43430   0.01267  Uiso   1.00
H23    H     0.63860   0.95340   0.55380   0.01267  Uiso   1.00
H24    H     0.78430   0.89070   0.55030   0.01267  Uiso   1.00
H25    H     0.63630   0.03320   0.39110   0.01267  Uiso   1.00
H26    H     0.72870   0.19360   0.34630   0.01267  Uiso   1.00
H27    H     0.97750   0.24090   0.52690   0.01267  Uiso   1.00
H28    H     0.91100   0.06690   0.57290   0.01267  Uiso   1.00
H29    H     0.57280   0.55290   0.85030   0.01267  Uiso   1.00
H30    H     0.68990   0.42170   0.92760   0.01267  Uiso   1.00
H31    H     0.31660   0.31430   0.97220   0.01267  Uiso   1.00
H32    H     0.20910   0.44560   0.89040   0.01267  Uiso   1.00
H33    H     0.52900   0.24150   0.04490   0.01267  Uiso   1.00
H34    H     0.67670   0.29800   0.03570   0.01267  Uiso   1.00
H35    H     0.54450   0.12340   0.94340   0.01267  Uiso   1.00
H36    H     0.69230   0.17970   0.93430   0.01267  Uiso   1.00
H37    H     0.63860   0.04660   0.05380   0.01267  Uiso   1.00
H38    H     0.78430   0.10930   0.05030   0.01267  Uiso   1.00
H39    H     0.63630   0.96680   0.89110   0.01267  Uiso   1.00
H40    H     0.72870   0.80640   0.84630   0.01267  Uiso   1.00
H41    H     0.97750   0.75910   0.02690   0.01267  Uiso   1.00
H42    H     0.91100   0.93310   0.07290   0.01267  Uiso   1.00
H43    H     0.42720   0.55290   0.64970   0.01267  Uiso   1.00
H44    H     0.31010   0.42170   0.57240   0.01267  Uiso   1.00
H45    H     0.68340   0.31430   0.52780   0.01267  Uiso   1.00
H46    H     0.79090   0.44560   0.60960   0.01267  Uiso   1.00
H47    H     0.47100   0.24150   0.45510   0.01267  Uiso   1.00
H48    H     0.32330   0.29800   0.46430   0.01267  Uiso   1.00
H49    H     0.45550   0.12340   0.55660   0.01267  Uiso   1.00
H50    H     0.30770   0.17970   0.56570   0.01267  Uiso   1.00
H51    H     0.36140   0.04660   0.44620   0.01267  Uiso   1.00
H52    H     0.21570   0.10930   0.44970   0.01267  Uiso   1.00
H53    H     0.36370   0.96680   0.60890   0.01267  Uiso   1.00
H54    H     0.27130   0.80640   0.65370   0.01267  Uiso   1.00
H55    H     0.02250   0.75910   0.47310   0.01267  Uiso   1.00
H56    H     0.08900   0.93310   0.42710   0.01267  Uiso   1.00
C1     C     0.00170   0.46860   0.02430   0.01267  Uiso   1.00
C2     C     0.48090   0.49770   0.12500   0.01267  Uiso   1.00
C3     C     0.40970   0.57570   0.07890   0.01267  Uiso   1.00
C4     C     0.48430   0.64970   0.04240   0.01267  Uiso   1.00
C5     C     0.62750   0.63850   0.05350   0.01267  Uiso   1.00
C6     C     0.69130   0.55870   0.10180   0.01267  Uiso   1.00
C7     C     0.40930   0.73660   0.99080   0.01267  Uiso   1.00
C8     C     0.36950   0.84230   0.03000   0.01267  Uiso   1.00
C9     C     0.29570   0.92870   0.97940   0.01267  Uiso   1.00
C10    C     0.24050   0.03360   0.01220   0.01267  Uiso   1.00
C11    C     0.29060   0.07310   0.07980   0.01267  Uiso   1.00
C12    C     0.23590   0.17020   0.10600   0.01267  Uiso   1.00
C13    C     0.08980   0.19560   0.00240   0.01267  Uiso   1.00
C14    C     0.13280   0.09350   0.97270   0.01267  Uiso   1.00
C15    C     0.99830   0.46860   0.47570   0.01267  Uiso   1.00
C16    C     0.51910   0.49770   0.37500   0.01267  Uiso   1.00
C17    C     0.59030   0.57570   0.42110   0.01267  Uiso   1.00
C18    C     0.51570   0.64970   0.45760   0.01267  Uiso   1.00
C19    C     0.37250   0.63850   0.44650   0.01267  Uiso   1.00
C20    C     0.30870   0.55870   0.39820   0.01267  Uiso   1.00
C21    C     0.59070   0.73660   0.50920   0.01267  Uiso   1.00
C22    C     0.63050   0.84230   0.47000   0.01267  Uiso   1.00
C23    C     0.70430   0.92870   0.52060   0.01267  Uiso   1.00
C24    C     0.75950   0.03360   0.48780   0.01267  Uiso   1.00
C25    C     0.70940   0.07310   0.42020   0.01267  Uiso   1.00
C26    C     0.76410   0.17020   0.39400   0.01267  Uiso   1.00
C27    C     0.91020   0.19560   0.49760   0.01267  Uiso   1.00
C28    C     0.86720   0.09350   0.52730   0.01267  Uiso   1.00
C29    C     0.99830   0.53140   0.97570   0.01267  Uiso   1.00
C30    C     0.51910   0.50230   0.87500   0.01267  Uiso   1.00
C31    C     0.59030   0.42430   0.92110   0.01267  Uiso   1.00
C32    C     0.51570   0.35030   0.95760   0.01267  Uiso   1.00
C33    C     0.37250   0.36150   0.94650   0.01267  Uiso   1.00
C34    C     0.30870   0.44130   0.89820   0.01267  Uiso   1.00
C35    C     0.59070   0.26340   0.00920   0.01267  Uiso   1.00
C36    C     0.63050   0.15770   0.97000   0.01267  Uiso   1.00
C37    C     0.70430   0.07130   0.02060   0.01267  Uiso   1.00
C38    C     0.75950   0.96640   0.98780   0.01267  Uiso   1.00
C39    C     0.70940   0.92690   0.92020   0.01267  Uiso   1.00
C40    C     0.76410   0.82980   0.89400   0.01267  Uiso   1.00
C41    C     0.91020   0.80440   0.99760   0.01267  Uiso   1.00
C42    C     0.86720   0.90650   0.02730   0.01267  Uiso   1.00
C43    C     0.00170   0.53140   0.52430   0.01267  Uiso   1.00
C44    C     0.48090   0.50230   0.62500   0.01267  Uiso   1.00
C45    C     0.40970   0.42430   0.57890   0.01267  Uiso   1.00
C46    C     0.48430   0.35030   0.54240   0.01267  Uiso   1.00
C47    C     0.62750   0.36150   0.55350   0.01267  Uiso   1.00
C48    C     0.69130   0.44130   0.60180   0.01267  Uiso   1.00
C49    C     0.40930   0.26340   0.49080   0.01267  Uiso   1.00
C50    C     0.36950   0.15770   0.53000   0.01267  Uiso   1.00
C51    C     0.29570   0.07130   0.47940   0.01267  Uiso   1.00
C52    C     0.24050   0.96640   0.51220   0.01267  Uiso   1.00
C53    C     0.29060   0.92690   0.57980   0.01267  Uiso   1.00
C54    C     0.23590   0.82980   0.60600   0.01267  Uiso   1.00
C55    C     0.08980   0.80440   0.50240   0.01267  Uiso   1.00
C56    C     0.13280   0.90650   0.47270   0.01267  Uiso   1.00
S1     S     0.88040   0.26523   0.16362   0.01267  Uiso   1.00
S2     S     0.84740   0.47840   0.29901   0.01267  Uiso   1.00
S3     S     0.11960   0.26523   0.33638   0.01267  Uiso   1.00
S4     S     0.15260   0.47840   0.20099   0.01267  Uiso   1.00
S5     S     0.11960   0.73477   0.83638   0.01267  Uiso   1.00
S6     S     0.15260   0.52160   0.70099   0.01267  Uiso   1.00
S7     S     0.88040   0.73477   0.66362   0.01267  Uiso   1.00
S8     S     0.84740   0.52160   0.79901   0.01267  Uiso   1.00
N1     N     0.61980   0.48870   0.13740   0.01267  Uiso   1.00
N2     N     0.13680   0.23280   0.06840   0.01267  Uiso   1.00
N3     N     0.55420   0.29420   0.24090   0.01267  Uiso   1.00
N4     N     0.38020   0.48870   0.36260   0.01267  Uiso   1.00
N5     N     0.86320   0.23280   0.43160   0.01267  Uiso   1.00
N6     N     0.44580   0.29420   0.25910   0.01267  Uiso   1.00
N7     N     0.38020   0.51130   0.86260   0.01267  Uiso   1.00
N8     N     0.86320   0.76720   0.93160   0.01267  Uiso   1.00
N9     N     0.44580   0.70580   0.75910   0.01267  Uiso   1.00
N10    N     0.61980   0.51130   0.63740   0.01267  Uiso   1.00
N11    N     0.13680   0.76720   0.56840   0.01267  Uiso   1.00
N12    N     0.55420   0.70580   0.74090   0.01267  Uiso   1.00
