data_GIYTAK_clean
_audit_creation_date              2014-07-02
_audit_creation_method            'Materials Studio'
_symmetry_space_group_name_H-M    'P1'
_symmetry_Int_Tables_number       1
_symmetry_cell_setting            triclinic
loop_
_symmetry_equiv_pos_as_xyz
  x,y,z
_cell_length_a                    8.9436
_cell_length_b                    9.4538
_cell_length_c                    19.0050
_cell_angle_alpha                 95.1660
_cell_angle_beta                  93.0500
_cell_angle_gamma                 117.5340
loop_
_atom_site_label
_atom_site_type_symbol
_atom_site_fract_x
_atom_site_fract_y
_atom_site_fract_z
_atom_site_U_iso_or_equiv
_atom_site_adp_type
_atom_site_occupancy
Cd1    Cd    0.98362   0.89819   0.82078   0.01267  Uiso   1.00
Cd2    Cd    0.01638   0.10181   0.17922   0.01267  Uiso   1.00
Cd3    Cd    0.00000   0.00000   0.00000   0.01267  Uiso   1.00
H1     H     0.78700   0.19060   0.96220   0.01267  Uiso   1.00
H2     H     0.96130   0.43170   0.91880   0.01267  Uiso   1.00
H3     H     0.83090   0.38520   0.85130   0.01267  Uiso   1.00
H4     H     0.76420   0.45040   0.99230   0.01267  Uiso   1.00
H5     H     0.54570   0.37770   0.86500   0.01267  Uiso   1.00
H6     H     0.50320   0.41960   0.94060   0.01267  Uiso   1.00
H7     H     0.49100   0.18450   0.97660   0.01267  Uiso   1.00
H8     H     0.55790   0.10940   0.83700   0.01267  Uiso   1.00
H9     H     0.52910   0.00080   0.89780   0.01267  Uiso   1.00
H10    H     0.79760   0.57770   0.72150   0.01267  Uiso   1.00
H11    H     0.62990   0.45100   0.61760   0.01267  Uiso   1.00
H12    H     0.50610   0.64280   0.48740   0.01267  Uiso   1.00
H13    H     0.66490   0.87050   0.57790   0.01267  Uiso   1.00
H14    H     0.83010   0.98590   0.68250   0.01267  Uiso   1.00
H15    H     0.21300   0.80940   0.03780   0.01267  Uiso   1.00
H16    H     0.03870   0.56830   0.08120   0.01267  Uiso   1.00
H17    H     0.16910   0.61480   0.14870   0.01267  Uiso   1.00
H18    H     0.23580   0.54960   0.00770   0.01267  Uiso   1.00
H19    H     0.45430   0.62230   0.13500   0.01267  Uiso   1.00
H20    H     0.49680   0.58040   0.05940   0.01267  Uiso   1.00
H21    H     0.50900   0.81550   0.02340   0.01267  Uiso   1.00
H22    H     0.44210   0.89060   0.16300   0.01267  Uiso   1.00
H23    H     0.47090   0.99920   0.10220   0.01267  Uiso   1.00
H24    H     0.20240   0.42230   0.27850   0.01267  Uiso   1.00
H25    H     0.37010   0.54900   0.38240   0.01267  Uiso   1.00
H26    H     0.49390   0.35720   0.51260   0.01267  Uiso   1.00
H27    H     0.33510   0.12950   0.42210   0.01267  Uiso   1.00
H28    H     0.16990   0.01410   0.31750   0.01267  Uiso   1.00
C1     C     0.84600   0.11420   0.86760   0.01267  Uiso   1.00
C2     C     0.76780   0.19920   0.91190   0.01267  Uiso   1.00
C3     C     0.84160   0.37640   0.90160   0.01267  Uiso   1.00
C4     C     0.75050   0.45790   0.94150   0.01267  Uiso   1.00
C5     C     0.56080   0.36910   0.91510   0.01267  Uiso   1.00
C6     C     0.48160   0.19230   0.92560   0.01267  Uiso   1.00
C7     C     0.57600   0.11130   0.88790   0.01267  Uiso   1.00
C8     C     0.82520   0.63430   0.93120   0.01267  Uiso   1.00
C9     C     0.29760   0.09850   0.89610   0.01267  Uiso   1.00
C10    C     0.76980   0.63770   0.69220   0.01267  Uiso   1.00
C11    C     0.67140   0.56130   0.62930   0.01267  Uiso   1.00
C12    C     0.63380   0.64760   0.58320   0.01267  Uiso   1.00
C13    C     0.53030   0.57610   0.51370   0.01267  Uiso   1.00
C14    C     0.69190   0.80810   0.60590   0.01267  Uiso   1.00
C15    C     0.78900   0.87610   0.66950   0.01267  Uiso   1.00
C16    C     0.15400   0.88580   0.13240   0.01267  Uiso   1.00
C17    C     0.23220   0.80080   0.08810   0.01267  Uiso   1.00
C18    C     0.15840   0.62360   0.09840   0.01267  Uiso   1.00
C19    C     0.24950   0.54210   0.05850   0.01267  Uiso   1.00
C20    C     0.43920   0.63090   0.08490   0.01267  Uiso   1.00
C21    C     0.51840   0.80770   0.07440   0.01267  Uiso   1.00
C22    C     0.42400   0.88870   0.11210   0.01267  Uiso   1.00
C23    C     0.17480   0.36570   0.06880   0.01267  Uiso   1.00
C24    C     0.70240   0.90150   0.10390   0.01267  Uiso   1.00
C25    C     0.23020   0.36230   0.30780   0.01267  Uiso   1.00
C26    C     0.32860   0.43870   0.37070   0.01267  Uiso   1.00
C27    C     0.36620   0.35240   0.41680   0.01267  Uiso   1.00
C28    C     0.46970   0.42390   0.48630   0.01267  Uiso   1.00
C29    C     0.30810   0.19190   0.39410   0.01267  Uiso   1.00
C30    C     0.21100   0.12390   0.33050   0.01267  Uiso   1.00
N1     N     0.82820   0.79510   0.71380   0.01267  Uiso   1.00
N2     N     0.17180   0.20490   0.28620   0.01267  Uiso   1.00
O1     O     0.86170   0.00240   0.89591   0.01267  Uiso   1.00
O2     O     0.88420   0.14360   0.80790   0.01267  Uiso   1.00
O3     O     0.24990   0.12290   0.83707   0.01267  Uiso   1.00
O4     O     0.19790   0.98650   0.92861   0.01267  Uiso   1.00
O5     O     0.84360   0.66710   0.86935   0.01267  Uiso   1.00
O6     O     0.86220   0.73260   0.98627   0.01267  Uiso   1.00
O7     O     0.13830   0.99760   0.10409   0.01267  Uiso   1.00
O8     O     0.11580   0.85640   0.19210   0.01267  Uiso   1.00
O9     O     0.75010   0.87710   0.16293   0.01267  Uiso   1.00
O10    O     0.80210   0.01350   0.07139   0.01267  Uiso   1.00
O11    O     0.15640   0.33290   0.13065   0.01267  Uiso   1.00
O12    O     0.13780   0.26740   0.01373   0.01267  Uiso   1.00
