data_GIZVER_clean
_audit_creation_date              2014-07-02
_audit_creation_method            'Materials Studio'
_symmetry_space_group_name_H-M    'P1'
_symmetry_Int_Tables_number       1
_symmetry_cell_setting            triclinic
loop_
_symmetry_equiv_pos_as_xyz
  x,y,z
_cell_length_a                    8.4653
_cell_length_b                    9.9387
_cell_length_c                    25.1150
_cell_angle_alpha                 90.5600
_cell_angle_beta                  90.0000
_cell_angle_gamma                 90.0000
loop_
_atom_site_label
_atom_site_type_symbol
_atom_site_fract_x
_atom_site_fract_y
_atom_site_fract_z
_atom_site_U_iso_or_equiv
_atom_site_adp_type
_atom_site_occupancy
Co1    Co    0.67333   0.25494   0.91237   0.01267  Uiso   1.00
Co2    Co    0.29590   0.31571   0.90214   0.01267  Uiso   1.00
Co3    Co    0.17333   0.24506   0.58763   0.01267  Uiso   1.00
Co4    Co    0.79590   0.18429   0.59786   0.01267  Uiso   1.00
Co5    Co    0.32667   0.74506   0.08763   0.01267  Uiso   1.00
Co6    Co    0.70410   0.68429   0.09786   0.01267  Uiso   1.00
Co7    Co    0.82667   0.75494   0.41237   0.01267  Uiso   1.00
Co8    Co    0.20410   0.81571   0.40214   0.01267  Uiso   1.00
Co9    Co    0.50000   0.50000   1.00000   0.01267  Uiso   1.00
Co10   Co    0.00000   0.00000   0.50000   0.01267  Uiso   1.00
H1     H     0.01000   0.94880   0.81370   0.01267  Uiso   1.00
H2     H     0.96800   0.54710   0.83110   0.01267  Uiso   1.00
H3     H     0.72590   0.79980   0.92700   0.01267  Uiso   1.00
H4     H     0.19970   0.79690   0.76860   0.01267  Uiso   1.00
H5     H     0.19580   0.64130   0.77910   0.01267  Uiso   1.00
H6     H     0.01930   0.89080   0.70160   0.01267  Uiso   1.00
H7     H     0.84280   0.64650   0.58890   0.01267  Uiso   1.00
H8     H     0.05060   0.49130   0.71840   0.01267  Uiso   1.00
H9     H     0.46490   0.24870   0.98310   0.01267  Uiso   1.00
H10    H     0.51000   0.55120   0.68630   0.01267  Uiso   1.00
H11    H     0.46800   0.95290   0.66890   0.01267  Uiso   1.00
H12    H     0.22590   0.70020   0.57300   0.01267  Uiso   1.00
H13    H     0.69970   0.70310   0.73140   0.01267  Uiso   1.00
H14    H     0.69580   0.85870   0.72090   0.01267  Uiso   1.00
H15    H     0.51930   0.60920   0.79840   0.01267  Uiso   1.00
H16    H     0.34280   0.85350   0.91110   0.01267  Uiso   1.00
H17    H     0.55060   0.00870   0.78160   0.01267  Uiso   1.00
H18    H     0.96490   0.25130   0.51690   0.01267  Uiso   1.00
H19    H     0.99000   0.05120   0.18630   0.01267  Uiso   1.00
H20    H     0.03200   0.45290   0.16890   0.01267  Uiso   1.00
H21    H     0.27410   0.20020   0.07300   0.01267  Uiso   1.00
H22    H     0.80030   0.20310   0.23140   0.01267  Uiso   1.00
H23    H     0.80420   0.35870   0.22090   0.01267  Uiso   1.00
H24    H     0.98070   0.10920   0.29840   0.01267  Uiso   1.00
H25    H     0.15720   0.35350   0.41110   0.01267  Uiso   1.00
H26    H     0.94940   0.50870   0.28160   0.01267  Uiso   1.00
H27    H     0.53510   0.75130   0.01690   0.01267  Uiso   1.00
H28    H     0.49000   0.44880   0.31370   0.01267  Uiso   1.00
H29    H     0.53200   0.04710   0.33110   0.01267  Uiso   1.00
H30    H     0.77410   0.29980   0.42700   0.01267  Uiso   1.00
H31    H     0.30030   0.29690   0.26860   0.01267  Uiso   1.00
H32    H     0.30420   0.14130   0.27910   0.01267  Uiso   1.00
H33    H     0.48070   0.39080   0.20160   0.01267  Uiso   1.00
H34    H     0.65720   0.14650   0.08890   0.01267  Uiso   1.00
H35    H     0.44940   0.99130   0.21840   0.01267  Uiso   1.00
H36    H     0.03510   0.74870   0.48310   0.01267  Uiso   1.00
C1     C     0.86150   0.89370   0.87250   0.01267  Uiso   1.00
C2     C     0.96740   0.87520   0.83120   0.01267  Uiso   1.00
C3     C     0.01050   0.74160   0.81594   0.01267  Uiso   1.00
C4     C     0.94330   0.63450   0.84179   0.01267  Uiso   1.00
C5     C     0.83700   0.65650   0.88451   0.01267  Uiso   1.00
C6     C     0.79660   0.78520   0.89921   0.01267  Uiso   1.00
C7     C     0.80510   0.03510   0.88590   0.01267  Uiso   1.00
C8     C     0.75610   0.53900   0.91050   0.01267  Uiso   1.00
C9     C     0.13100   0.71910   0.77120   0.01267  Uiso   1.00
C10    C     0.04610   0.69700   0.71947   0.01267  Uiso   1.00
C11    C     0.00070   0.80390   0.68900   0.01267  Uiso   1.00
C12    C     0.92660   0.78600   0.63930   0.01267  Uiso   1.00
C13    C     0.89410   0.65900   0.62131   0.01267  Uiso   1.00
C14    C     0.93770   0.54810   0.65147   0.01267  Uiso   1.00
C15    C     0.01680   0.56580   0.69940   0.01267  Uiso   1.00
C16    C     0.88330   0.90730   0.60740   0.01267  Uiso   1.00
C17    C     0.89980   0.40910   0.63202   0.01267  Uiso   1.00
C18    C     0.36150   0.60630   0.62750   0.01267  Uiso   1.00
C19    C     0.46740   0.62480   0.66880   0.01267  Uiso   1.00
C20    C     0.51050   0.75840   0.68406   0.01267  Uiso   1.00
C21    C     0.44330   0.86550   0.65821   0.01267  Uiso   1.00
C22    C     0.33700   0.84350   0.61549   0.01267  Uiso   1.00
C23    C     0.29660   0.71480   0.60079   0.01267  Uiso   1.00
C24    C     0.30510   0.46490   0.61410   0.01267  Uiso   1.00
C25    C     0.25610   0.96100   0.58950   0.01267  Uiso   1.00
C26    C     0.63100   0.78090   0.72880   0.01267  Uiso   1.00
C27    C     0.54610   0.80300   0.78053   0.01267  Uiso   1.00
C28    C     0.50070   0.69610   0.81100   0.01267  Uiso   1.00
C29    C     0.42660   0.71400   0.86070   0.01267  Uiso   1.00
C30    C     0.39410   0.84100   0.87869   0.01267  Uiso   1.00
C31    C     0.43770   0.95190   0.84853   0.01267  Uiso   1.00
C32    C     0.51680   0.93420   0.80060   0.01267  Uiso   1.00
C33    C     0.38330   0.59270   0.89260   0.01267  Uiso   1.00
C34    C     0.39980   0.09090   0.86798   0.01267  Uiso   1.00
C35    C     0.13850   0.10630   0.12750   0.01267  Uiso   1.00
C36    C     0.03260   0.12480   0.16880   0.01267  Uiso   1.00
C37    C     0.98950   0.25840   0.18406   0.01267  Uiso   1.00
C38    C     0.05670   0.36550   0.15821   0.01267  Uiso   1.00
C39    C     0.16300   0.34350   0.11549   0.01267  Uiso   1.00
C40    C     0.20340   0.21480   0.10079   0.01267  Uiso   1.00
C41    C     0.19490   0.96490   0.11410   0.01267  Uiso   1.00
C42    C     0.24390   0.46100   0.08950   0.01267  Uiso   1.00
C43    C     0.86900   0.28090   0.22880   0.01267  Uiso   1.00
C44    C     0.95390   0.30300   0.28053   0.01267  Uiso   1.00
C45    C     0.99930   0.19610   0.31100   0.01267  Uiso   1.00
C46    C     0.07340   0.21400   0.36070   0.01267  Uiso   1.00
C47    C     0.10590   0.34100   0.37869   0.01267  Uiso   1.00
C48    C     0.06230   0.45190   0.34853   0.01267  Uiso   1.00
C49    C     0.98320   0.43420   0.30060   0.01267  Uiso   1.00
C50    C     0.11670   0.09270   0.39260   0.01267  Uiso   1.00
C51    C     0.10020   0.59090   0.36798   0.01267  Uiso   1.00
C52    C     0.63850   0.39370   0.37250   0.01267  Uiso   1.00
C53    C     0.53260   0.37520   0.33120   0.01267  Uiso   1.00
C54    C     0.48950   0.24160   0.31594   0.01267  Uiso   1.00
C55    C     0.55670   0.13450   0.34179   0.01267  Uiso   1.00
C56    C     0.66300   0.15650   0.38451   0.01267  Uiso   1.00
C57    C     0.70340   0.28520   0.39921   0.01267  Uiso   1.00
C58    C     0.69490   0.53510   0.38590   0.01267  Uiso   1.00
C59    C     0.74390   0.03900   0.41050   0.01267  Uiso   1.00
C60    C     0.36900   0.21910   0.27120   0.01267  Uiso   1.00
C61    C     0.45390   0.19700   0.21947   0.01267  Uiso   1.00
C62    C     0.49930   0.30390   0.18900   0.01267  Uiso   1.00
C63    C     0.57340   0.28600   0.13930   0.01267  Uiso   1.00
C64    C     0.60590   0.15900   0.12131   0.01267  Uiso   1.00
C65    C     0.56230   0.04810   0.15147   0.01267  Uiso   1.00
C66    C     0.48320   0.06580   0.19940   0.01267  Uiso   1.00
C67    C     0.61670   0.40730   0.10740   0.01267  Uiso   1.00
C68    C     0.60020   0.90910   0.13202   0.01267  Uiso   1.00
O1     O     0.48620   0.31940   0.95716   0.01267  Uiso   1.00
O2     O     0.84910   0.13750   0.86076   0.01267  Uiso   1.00
O3     O     0.70430   0.05080   0.92394   0.01267  Uiso   1.00
O4     O     0.70750   0.55710   0.95684   0.01267  Uiso   1.00
O5     O     0.74300   0.43330   0.88297   0.01267  Uiso   1.00
O6     O     0.86460   0.01600   0.63211   0.01267  Uiso   1.00
O7     O     0.86740   0.89420   0.55718   0.01267  Uiso   1.00
O8     O     0.78430   0.39250   0.60200   0.01267  Uiso   1.00
O9     O     0.98170   0.30940   0.64536   0.01267  Uiso   1.00
O10    O     0.98620   0.18060   0.54284   0.01267  Uiso   1.00
O11    O     0.34910   0.36250   0.63924   0.01267  Uiso   1.00
O12    O     0.20430   0.44920   0.57606   0.01267  Uiso   1.00
O13    O     0.20750   0.94290   0.54316   0.01267  Uiso   1.00
O14    O     0.24300   0.06670   0.61703   0.01267  Uiso   1.00
O15    O     0.36460   0.48400   0.86789   0.01267  Uiso   1.00
O16    O     0.36740   0.60580   0.94282   0.01267  Uiso   1.00
O17    O     0.28430   0.10750   0.89800   0.01267  Uiso   1.00
O18    O     0.48170   0.19060   0.85464   0.01267  Uiso   1.00
O19    O     0.51380   0.68060   0.04284   0.01267  Uiso   1.00
O20    O     0.15090   0.86250   0.13924   0.01267  Uiso   1.00
O21    O     0.29570   0.94920   0.07606   0.01267  Uiso   1.00
O22    O     0.29250   0.44290   0.04316   0.01267  Uiso   1.00
O23    O     0.25700   0.56670   0.11703   0.01267  Uiso   1.00
O24    O     0.13540   0.98400   0.36789   0.01267  Uiso   1.00
O25    O     0.13260   0.10580   0.44282   0.01267  Uiso   1.00
O26    O     0.21570   0.60750   0.39800   0.01267  Uiso   1.00
O27    O     0.01830   0.69060   0.35464   0.01267  Uiso   1.00
O28    O     0.01380   0.81940   0.45716   0.01267  Uiso   1.00
O29    O     0.65090   0.63750   0.36076   0.01267  Uiso   1.00
O30    O     0.79570   0.55080   0.42394   0.01267  Uiso   1.00
O31    O     0.79250   0.05710   0.45684   0.01267  Uiso   1.00
O32    O     0.75700   0.93330   0.38297   0.01267  Uiso   1.00
O33    O     0.63540   0.51600   0.13211   0.01267  Uiso   1.00
O34    O     0.63260   0.39420   0.05718   0.01267  Uiso   1.00
O35    O     0.71570   0.89250   0.10200   0.01267  Uiso   1.00
O36    O     0.51830   0.80940   0.14536   0.01267  Uiso   1.00
