data_image0
_cell_length_a       31.717
_cell_length_b       9.4333
_cell_length_c       18.1739
_cell_angle_alpha    90
_cell_angle_beta     119.894
_cell_angle_gamma    90

_symmetry_space_group_name_H-M    "P 1"
_symmetry_int_tables_number       1

loop_
  _symmetry_equiv_pos_as_xyz
  'x, y, z'

loop_
  _atom_site_label
  _atom_site_occupancy
  _atom_site_fract_x
  _atom_site_fract_y
  _atom_site_fract_z
  _atom_site_thermal_displace_type
  _atom_site_B_iso_or_equiv
  _atom_site_type_symbol
  Co1      1.0000 0.12372  0.81464  0.39208  Biso   1.000  Co
  O1       1.0000 0.13920  0.71120  0.31065  Biso   1.000  O
  O2       1.0000 0.22078  0.70760  0.37307  Biso   1.000  O
  O3       1.0000 0.20767  0.39891  0.01773  Biso   1.000  O
  O4       1.0000 0.12833  0.35220  0.96592  Biso   1.000  O
  O5       1.0000 0.14330  0.02580  0.36644  Biso   1.000  O
  O6       1.0000 0.19480  0.89902  0.47516  Biso   1.000  O
  N1       1.0000 0.04677  0.80500  0.30252  Biso   1.000  N
  C1       1.0000 0.17882  0.68360  0.31340  Biso   1.000  C
  C2       1.0000 0.17520  0.61350  0.23579  Biso   1.000  C
  C3       1.0000 0.13241  0.54900  0.17530  Biso   1.000  C
  H1       1.0000 0.10460  0.54980  0.18210  Biso   1.000  H
  C4       1.0000 0.21559  0.60930  0.22518  Biso   1.000  C
  H2       1.0000 0.24520  0.65170  0.26650  Biso   1.000  H
  C5       1.0000 0.16911  0.40550  0.01985  Biso   1.000  C
  C6       1.0000 0.17036  0.48160  0.09382  Biso   1.000  C
  C7       1.0000 0.21317  0.54390  0.15484  Biso   1.000  C
  H3       1.0000 0.24110  0.54170  0.14850  Biso   1.000  H
  C8       1.0000 0.13024  0.48340  0.10500  Biso   1.000  C
  H4       1.0000 0.10090  0.43930  0.06420  Biso   1.000  H
  C9       1.0000 0.18347  0.01470  0.43338  Biso   1.000  C
  C10      1.0000 0.21786  0.13690  0.46752  Biso   1.000  C
  C11      1.0000 0.21258  0.25230  0.41596  Biso   1.000  C
  H5       1.0000 0.18690  0.25390  0.35870  Biso   1.000  H
  C12      1.0000 0.25508  0.13460  0.55160  Biso   1.000  C
  H6       1.0000 0.25840  0.05610  0.58680  Biso   1.000  H
  C13      1.0000 0.01999  0.73820  0.34131  Biso   1.000  C
  H7       1.0000 0.02410  0.79640  0.38980  Biso   1.000  H
  H8       1.0000 0.03370  0.64310  0.36310  Biso   1.000  H
  C14      1.0000 0.03426  0.72470  0.22382  Biso   1.000  C
  H9       1.0000 0.04260  0.62350  0.23800  Biso   1.000  H
  H10      1.0000 0.05370  0.76130  0.19900  Biso   1.000  H
  C15      1.0000 0.02803  0.95160  0.27694  Biso   1.000  C
  H11      1.0000 0.04190  0.99360  0.24370  Biso   1.000  H
  H12      1.0000 0.03840  0.01040  0.32820  Biso   1.000  H
  Co2      1.0000 0.62372  0.31464  0.39208  Biso   1.000  Co
  O7       1.0000 0.63920  0.21120  0.31065  Biso   1.000  O
  O8       1.0000 0.72078  0.20760  0.37307  Biso   1.000  O
  O9       1.0000 0.70767  0.89891  0.01773  Biso   1.000  O
  O10      1.0000 0.62833  0.85220  0.96592  Biso   1.000  O
  O11      1.0000 0.64330  0.52580  0.36644  Biso   1.000  O
  O12      1.0000 0.69480  0.39902  0.47516  Biso   1.000  O
  N2       1.0000 0.54677  0.30500  0.30252  Biso   1.000  N
  C16      1.0000 0.67882  0.18360  0.31340  Biso   1.000  C
  C17      1.0000 0.67520  0.11350  0.23579  Biso   1.000  C
  C18      1.0000 0.63241  0.04900  0.17530  Biso   1.000  C
  H13      1.0000 0.60460  0.04980  0.18210  Biso   1.000  H
  C19      1.0000 0.71559  0.10930  0.22518  Biso   1.000  C
  H14      1.0000 0.74520  0.15170  0.26650  Biso   1.000  H
  C20      1.0000 0.66911  0.90550  0.01985  Biso   1.000  C
  C21      1.0000 0.67036  0.98160  0.09382  Biso   1.000  C
  C22      1.0000 0.71317  0.04390  0.15484  Biso   1.000  C
  H15      1.0000 0.74110  0.04170  0.14850  Biso   1.000  H
  C23      1.0000 0.63024  0.98340  0.10500  Biso   1.000  C
  H16      1.0000 0.60090  0.93930  0.06420  Biso   1.000  H
  C24      1.0000 0.68347  0.51470  0.43338  Biso   1.000  C
  C25      1.0000 0.71786  0.63690  0.46752  Biso   1.000  C
  C26      1.0000 0.71258  0.75230  0.41596  Biso   1.000  C
  H17      1.0000 0.68690  0.75390  0.35870  Biso   1.000  H
  C27      1.0000 0.75508  0.63460  0.55160  Biso   1.000  C
  H18      1.0000 0.75840  0.55610  0.58680  Biso   1.000  H
  C28      1.0000 0.51999  0.23820  0.34131  Biso   1.000  C
  H19      1.0000 0.52410  0.29640  0.38980  Biso   1.000  H
  H20      1.0000 0.53370  0.14310  0.36310  Biso   1.000  H
  C29      1.0000 0.53426  0.22470  0.22382  Biso   1.000  C
  H21      1.0000 0.54260  0.12350  0.23800  Biso   1.000  H
  H22      1.0000 0.55370  0.26130  0.19900  Biso   1.000  H
  C30      1.0000 0.52803  0.45160  0.27694  Biso   1.000  C
  H23      1.0000 0.54190  0.49360  0.24370  Biso   1.000  H
  H24      1.0000 0.53840  0.51040  0.32820  Biso   1.000  H
  Co3      1.0000 0.87628  0.81464  0.10792  Biso   1.000  Co
  O13      1.0000 0.86080  0.71120  0.18935  Biso   1.000  O
  O14      1.0000 0.77922  0.70760  0.12693  Biso   1.000  O
  O15      1.0000 0.79233  0.39891  0.48227  Biso   1.000  O
  O16      1.0000 0.87167  0.35220  0.53408  Biso   1.000  O
  O17      1.0000 0.85670  0.02580  0.13356  Biso   1.000  O
  O18      1.0000 0.80520  0.89902  0.02484  Biso   1.000  O
  N3       1.0000 0.95323  0.80500  0.19748  Biso   1.000  N
  C31      1.0000 0.82118  0.68360  0.18660  Biso   1.000  C
  C32      1.0000 0.82480  0.61350  0.26421  Biso   1.000  C
  C33      1.0000 0.86759  0.54900  0.32470  Biso   1.000  C
  H25      1.0000 0.89540  0.54980  0.31790  Biso   1.000  H
  C34      1.0000 0.78441  0.60930  0.27482  Biso   1.000  C
  H26      1.0000 0.75480  0.65170  0.23350  Biso   1.000  H
  C35      1.0000 0.83089  0.40550  0.48015  Biso   1.000  C
  C36      1.0000 0.82964  0.48160  0.40618  Biso   1.000  C
  C37      1.0000 0.78683  0.54390  0.34516  Biso   1.000  C
  H27      1.0000 0.75890  0.54170  0.35150  Biso   1.000  H
  C38      1.0000 0.86976  0.48340  0.39500  Biso   1.000  C
  H28      1.0000 0.89910  0.43930  0.43580  Biso   1.000  H
  C39      1.0000 0.81653  0.01470  0.06662  Biso   1.000  C
  C40      1.0000 0.78214  0.13690  0.03248  Biso   1.000  C
  C41      1.0000 0.78742  0.25230  0.08404  Biso   1.000  C
  H29      1.0000 0.81310  0.25390  0.14130  Biso   1.000  H
  C42      1.0000 0.74492  0.13460  0.94840  Biso   1.000  C
  H30      1.0000 0.74160  0.05610  0.91320  Biso   1.000  H
  C43      1.0000 0.98001  0.73820  0.15869  Biso   1.000  C
  H31      1.0000 0.97590  0.79640  0.11020  Biso   1.000  H
  H32      1.0000 0.96630  0.64310  0.13690  Biso   1.000  H
  C44      1.0000 0.96574  0.72470  0.27618  Biso   1.000  C
  H33      1.0000 0.95740  0.62350  0.26200  Biso   1.000  H
  H34      1.0000 0.94630  0.76130  0.30100  Biso   1.000  H
  C45      1.0000 0.97197  0.95160  0.22306  Biso   1.000  C
  H35      1.0000 0.95810  0.99360  0.25630  Biso   1.000  H
  H36      1.0000 0.96160  0.01040  0.17180  Biso   1.000  H
  Co4      1.0000 0.37628  0.31464  0.10792  Biso   1.000  Co
  O19      1.0000 0.36080  0.21120  0.18935  Biso   1.000  O
  O20      1.0000 0.27922  0.20760  0.12693  Biso   1.000  O
  O21      1.0000 0.29233  0.89891  0.48227  Biso   1.000  O
  O22      1.0000 0.37167  0.85220  0.53408  Biso   1.000  O
  O23      1.0000 0.35670  0.52580  0.13356  Biso   1.000  O
  O24      1.0000 0.30520  0.39902  0.02484  Biso   1.000  O
  N4       1.0000 0.45323  0.30500  0.19748  Biso   1.000  N
  C46      1.0000 0.32118  0.18360  0.18660  Biso   1.000  C
  C47      1.0000 0.32480  0.11350  0.26421  Biso   1.000  C
  C48      1.0000 0.36759  0.04900  0.32470  Biso   1.000  C
  H37      1.0000 0.39540  0.04980  0.31790  Biso   1.000  H
  C49      1.0000 0.28441  0.10930  0.27482  Biso   1.000  C
  H38      1.0000 0.25480  0.15170  0.23350  Biso   1.000  H
  C50      1.0000 0.33089  0.90550  0.48015  Biso   1.000  C
  C51      1.0000 0.32964  0.98160  0.40618  Biso   1.000  C
  C52      1.0000 0.28683  0.04390  0.34516  Biso   1.000  C
  H39      1.0000 0.25890  0.04170  0.35150  Biso   1.000  H
  C53      1.0000 0.36976  0.98340  0.39500  Biso   1.000  C
  H40      1.0000 0.39910  0.93930  0.43580  Biso   1.000  H
  C54      1.0000 0.31653  0.51470  0.06662  Biso   1.000  C
  C55      1.0000 0.28214  0.63690  0.03248  Biso   1.000  C
  C56      1.0000 0.28742  0.75230  0.08404  Biso   1.000  C
  H41      1.0000 0.31310  0.75390  0.14130  Biso   1.000  H
  C57      1.0000 0.24492  0.63460  0.94840  Biso   1.000  C
  H42      1.0000 0.24160  0.55610  0.91320  Biso   1.000  H
  C58      1.0000 0.48001  0.23820  0.15869  Biso   1.000  C
  H43      1.0000 0.47590  0.29640  0.11020  Biso   1.000  H
  H44      1.0000 0.46630  0.14310  0.13690  Biso   1.000  H
  C59      1.0000 0.46574  0.22470  0.27618  Biso   1.000  C
  H45      1.0000 0.45740  0.12350  0.26200  Biso   1.000  H
  H46      1.0000 0.44630  0.26130  0.30100  Biso   1.000  H
  C60      1.0000 0.47197  0.45160  0.22306  Biso   1.000  C
  H47      1.0000 0.45810  0.49360  0.25630  Biso   1.000  H
  H48      1.0000 0.46160  0.51040  0.17180  Biso   1.000  H
  Co5      1.0000 0.87628  0.18536  0.60792  Biso   1.000  Co
  O25      1.0000 0.86080  0.28880  0.68935  Biso   1.000  O
  O26      1.0000 0.77922  0.29240  0.62693  Biso   1.000  O
  O27      1.0000 0.79233  0.60109  0.98227  Biso   1.000  O
  O28      1.0000 0.87167  0.64780  0.03408  Biso   1.000  O
  O29      1.0000 0.85670  0.97420  0.63356  Biso   1.000  O
  O30      1.0000 0.80520  0.10098  0.52484  Biso   1.000  O
  N5       1.0000 0.95323  0.19500  0.69748  Biso   1.000  N
  C61      1.0000 0.82118  0.31640  0.68660  Biso   1.000  C
  C62      1.0000 0.82480  0.38650  0.76421  Biso   1.000  C
  C63      1.0000 0.86759  0.45100  0.82470  Biso   1.000  C
  H49      1.0000 0.89540  0.45020  0.81790  Biso   1.000  H
  C64      1.0000 0.78441  0.39070  0.77482  Biso   1.000  C
  H50      1.0000 0.75480  0.34830  0.73350  Biso   1.000  H
  C65      1.0000 0.83089  0.59450  0.98015  Biso   1.000  C
  C66      1.0000 0.82964  0.51840  0.90618  Biso   1.000  C
  C67      1.0000 0.78683  0.45610  0.84516  Biso   1.000  C
  H51      1.0000 0.75890  0.45830  0.85150  Biso   1.000  H
  C68      1.0000 0.86976  0.51660  0.89500  Biso   1.000  C
  H52      1.0000 0.89910  0.56070  0.93580  Biso   1.000  H
  C69      1.0000 0.81653  0.98530  0.56662  Biso   1.000  C
  C70      1.0000 0.78214  0.86310  0.53248  Biso   1.000  C
  C71      1.0000 0.78742  0.74770  0.58404  Biso   1.000  C
  H53      1.0000 0.81310  0.74610  0.64130  Biso   1.000  H
  C72      1.0000 0.74492  0.86540  0.44840  Biso   1.000  C
  H54      1.0000 0.74160  0.94390  0.41320  Biso   1.000  H
  C73      1.0000 0.98001  0.26180  0.65869  Biso   1.000  C
  H55      1.0000 0.97590  0.20360  0.61020  Biso   1.000  H
  H56      1.0000 0.96630  0.35690  0.63690  Biso   1.000  H
  C74      1.0000 0.96574  0.27530  0.77618  Biso   1.000  C
  H57      1.0000 0.95740  0.37650  0.76200  Biso   1.000  H
  H58      1.0000 0.94630  0.23870  0.80100  Biso   1.000  H
  C75      1.0000 0.97197  0.04840  0.72306  Biso   1.000  C
  H59      1.0000 0.95810  0.00640  0.75630  Biso   1.000  H
  H60      1.0000 0.96160  0.98960  0.67180  Biso   1.000  H
  Co6      1.0000 0.37628  0.68536  0.60792  Biso   1.000  Co
  O31      1.0000 0.36080  0.78880  0.68935  Biso   1.000  O
  O32      1.0000 0.27922  0.79240  0.62693  Biso   1.000  O
  O33      1.0000 0.29233  0.10109  0.98227  Biso   1.000  O
  O34      1.0000 0.37167  0.14780  0.03408  Biso   1.000  O
  O35      1.0000 0.35670  0.47420  0.63356  Biso   1.000  O
  O36      1.0000 0.30520  0.60098  0.52484  Biso   1.000  O
  N6       1.0000 0.45323  0.69500  0.69748  Biso   1.000  N
  C76      1.0000 0.32118  0.81640  0.68660  Biso   1.000  C
  C77      1.0000 0.32480  0.88650  0.76421  Biso   1.000  C
  C78      1.0000 0.36759  0.95100  0.82470  Biso   1.000  C
  H61      1.0000 0.39540  0.95020  0.81790  Biso   1.000  H
  C79      1.0000 0.28441  0.89070  0.77482  Biso   1.000  C
  H62      1.0000 0.25480  0.84830  0.73350  Biso   1.000  H
  C80      1.0000 0.33089  0.09450  0.98015  Biso   1.000  C
  C81      1.0000 0.32964  0.01840  0.90618  Biso   1.000  C
  C82      1.0000 0.28683  0.95610  0.84516  Biso   1.000  C
  H63      1.0000 0.25890  0.95830  0.85150  Biso   1.000  H
  C83      1.0000 0.36976  0.01660  0.89500  Biso   1.000  C
  H64      1.0000 0.39910  0.06070  0.93580  Biso   1.000  H
  C84      1.0000 0.31653  0.48530  0.56662  Biso   1.000  C
  C85      1.0000 0.28214  0.36310  0.53248  Biso   1.000  C
  C86      1.0000 0.28742  0.24770  0.58404  Biso   1.000  C
  H65      1.0000 0.31310  0.24610  0.64130  Biso   1.000  H
  C87      1.0000 0.24492  0.36540  0.44840  Biso   1.000  C
  H66      1.0000 0.24160  0.44390  0.41320  Biso   1.000  H
  C88      1.0000 0.48001  0.76180  0.65869  Biso   1.000  C
  H67      1.0000 0.47590  0.70360  0.61020  Biso   1.000  H
  H68      1.0000 0.46630  0.85690  0.63690  Biso   1.000  H
  C89      1.0000 0.46574  0.77530  0.77618  Biso   1.000  C
  H69      1.0000 0.45740  0.87650  0.76200  Biso   1.000  H
  H70      1.0000 0.44630  0.73870  0.80100  Biso   1.000  H
  C90      1.0000 0.47197  0.54840  0.72306  Biso   1.000  C
  H71      1.0000 0.45810  0.50640  0.75630  Biso   1.000  H
  H72      1.0000 0.46160  0.48960  0.67180  Biso   1.000  H
  Co7      1.0000 0.12372  0.18536  0.89208  Biso   1.000  Co
  O37      1.0000 0.13920  0.28880  0.81065  Biso   1.000  O
  O38      1.0000 0.22078  0.29240  0.87307  Biso   1.000  O
  O39      1.0000 0.20767  0.60109  0.51773  Biso   1.000  O
  O40      1.0000 0.12833  0.64780  0.46592  Biso   1.000  O
  O41      1.0000 0.14330  0.97420  0.86644  Biso   1.000  O
  O42      1.0000 0.19480  0.10098  0.97516  Biso   1.000  O
  N7       1.0000 0.04677  0.19500  0.80252  Biso   1.000  N
  C91      1.0000 0.17882  0.31640  0.81340  Biso   1.000  C
  C92      1.0000 0.17520  0.38650  0.73579  Biso   1.000  C
  C93      1.0000 0.13241  0.45100  0.67530  Biso   1.000  C
  H73      1.0000 0.10460  0.45020  0.68210  Biso   1.000  H
  C94      1.0000 0.21559  0.39070  0.72518  Biso   1.000  C
  H74      1.0000 0.24520  0.34830  0.76650  Biso   1.000  H
  C95      1.0000 0.16911  0.59450  0.51985  Biso   1.000  C
  C96      1.0000 0.17036  0.51840  0.59382  Biso   1.000  C
  C97      1.0000 0.21317  0.45610  0.65484  Biso   1.000  C
  H75      1.0000 0.24110  0.45830  0.64850  Biso   1.000  H
  C98      1.0000 0.13024  0.51660  0.60500  Biso   1.000  C
  H76      1.0000 0.10090  0.56070  0.56420  Biso   1.000  H
  C99      1.0000 0.18347  0.98530  0.93338  Biso   1.000  C
  C100     1.0000 0.21786  0.86310  0.96752  Biso   1.000  C
  C101     1.0000 0.21258  0.74770  0.91596  Biso   1.000  C
  H77      1.0000 0.18690  0.74610  0.85870  Biso   1.000  H
  C102     1.0000 0.25508  0.86540  0.05160  Biso   1.000  C
  H78      1.0000 0.25840  0.94390  0.08680  Biso   1.000  H
  C103     1.0000 0.01999  0.26180  0.84131  Biso   1.000  C
  H79      1.0000 0.02410  0.20360  0.88980  Biso   1.000  H
  H80      1.0000 0.03370  0.35690  0.86310  Biso   1.000  H
  C104     1.0000 0.03426  0.27530  0.72382  Biso   1.000  C
  H81      1.0000 0.04260  0.37650  0.73800  Biso   1.000  H
  H82      1.0000 0.05370  0.23870  0.69900  Biso   1.000  H
  C105     1.0000 0.02803  0.04840  0.77694  Biso   1.000  C
  H83      1.0000 0.04190  0.00640  0.74370  Biso   1.000  H
  H84      1.0000 0.03840  0.98960  0.82820  Biso   1.000  H
  Co8      1.0000 0.62372  0.68536  0.89208  Biso   1.000  Co
  O43      1.0000 0.63920  0.78880  0.81065  Biso   1.000  O
  O44      1.0000 0.72078  0.79240  0.87307  Biso   1.000  O
  O45      1.0000 0.70767  0.10109  0.51773  Biso   1.000  O
  O46      1.0000 0.62833  0.14780  0.46592  Biso   1.000  O
  O47      1.0000 0.64330  0.47420  0.86644  Biso   1.000  O
  O48      1.0000 0.69480  0.60098  0.97516  Biso   1.000  O
  N8       1.0000 0.54677  0.69500  0.80252  Biso   1.000  N
  C106     1.0000 0.67882  0.81640  0.81340  Biso   1.000  C
  C107     1.0000 0.67520  0.88650  0.73579  Biso   1.000  C
  C108     1.0000 0.63241  0.95100  0.67530  Biso   1.000  C
  H85      1.0000 0.60460  0.95020  0.68210  Biso   1.000  H
  C109     1.0000 0.71559  0.89070  0.72518  Biso   1.000  C
  H86      1.0000 0.74520  0.84830  0.76650  Biso   1.000  H
  C110     1.0000 0.66911  0.09450  0.51985  Biso   1.000  C
  C111     1.0000 0.67036  0.01840  0.59382  Biso   1.000  C
  C112     1.0000 0.71317  0.95610  0.65484  Biso   1.000  C
  H87      1.0000 0.74110  0.95830  0.64850  Biso   1.000  H
  C113     1.0000 0.63024  0.01660  0.60500  Biso   1.000  C
  H88      1.0000 0.60090  0.06070  0.56420  Biso   1.000  H
  C114     1.0000 0.68347  0.48530  0.93338  Biso   1.000  C
  C115     1.0000 0.71786  0.36310  0.96752  Biso   1.000  C
  C116     1.0000 0.71258  0.24770  0.91596  Biso   1.000  C
  H89      1.0000 0.68690  0.24610  0.85870  Biso   1.000  H
  C117     1.0000 0.75508  0.36540  0.05160  Biso   1.000  C
  H90      1.0000 0.75840  0.44390  0.08680  Biso   1.000  H
  C118     1.0000 0.51999  0.76180  0.84131  Biso   1.000  C
  H91      1.0000 0.52410  0.70360  0.88980  Biso   1.000  H
  H92      1.0000 0.53370  0.85690  0.86310  Biso   1.000  H
  C119     1.0000 0.53426  0.77530  0.72382  Biso   1.000  C
  H93      1.0000 0.54260  0.87650  0.73800  Biso   1.000  H
  H94      1.0000 0.55370  0.73870  0.69900  Biso   1.000  H
  C120     1.0000 0.52803  0.54840  0.77694  Biso   1.000  C
  H95      1.0000 0.54190  0.50640  0.74370  Biso   1.000  H
  H96      1.0000 0.53840  0.48960  0.82820  Biso   1.000  H
  Co9      1.0000 0.25000  0.75000  0.50000  Biso   1.000  Co
  Co10     1.0000 0.75000  0.75000  0.00000  Biso   1.000  Co
  Co11     1.0000 0.75000  0.25000  0.50000  Biso   1.000  Co
  Co12     1.0000 0.25000  0.25000  0.00000  Biso   1.000  Co
