data_GOGWEF_clean
_audit_creation_date              2014-07-02
_audit_creation_method            'Materials Studio'
_symmetry_space_group_name_H-M    'P1'
_symmetry_Int_Tables_number       1
_symmetry_cell_setting            triclinic
loop_
_symmetry_equiv_pos_as_xyz
  x,y,z
_cell_length_a                    7.6687
_cell_length_b                    12.6809
_cell_length_c                    12.6809
_cell_angle_alpha                 84.7542
_cell_angle_beta                  72.3999
_cell_angle_gamma                 72.3998
loop_
_atom_site_label
_atom_site_type_symbol
_atom_site_fract_x
_atom_site_fract_y
_atom_site_fract_z
_atom_site_U_iso_or_equiv
_atom_site_adp_type
_atom_site_occupancy
Mn1    Mn    0.00000   0.00000   0.00000   0.01267  Uiso   1.00
Mn2    Mn    0.25000   0.50000   0.50000   0.01267  Uiso   1.00
H1     H     0.12500   0.64680   0.85320   0.01267  Uiso   1.00
H2     H     0.62500   0.35320   0.14680   0.01267  Uiso   1.00
H3     H     0.02180   0.85320   0.35320   0.01267  Uiso   1.00
H4     H     0.22820   0.14680   0.64680   0.01267  Uiso   1.00
C1     C     0.11080   0.80760   0.82340   0.01267  Uiso   1.00
C2     C     0.74180   0.19240   0.17660   0.01267  Uiso   1.00
C3     C     0.06580   0.82340   0.19240   0.01267  Uiso   1.00
C4     C     0.08160   0.17660   0.80760   0.01267  Uiso   1.00
C5     C     0.50820   0.32340   0.30760   0.01267  Uiso   1.00
C6     C     0.13920   0.67660   0.69240   0.01267  Uiso   1.00
C7     C     0.16840   0.69240   0.32340   0.01267  Uiso   1.00
C8     C     0.18420   0.30760   0.67660   0.01267  Uiso   1.00
C9     C     0.12500   0.86660   0.63340   0.01267  Uiso   1.00
C10    C     0.12500   0.70130   0.79870   0.01267  Uiso   1.00
C11    C     0.62500   0.13340   0.36660   0.01267  Uiso   1.00
C12    C     0.62500   0.29870   0.20130   0.01267  Uiso   1.00
C13    C     0.24160   0.63340   0.13340   0.01267  Uiso   1.00
C14    C     0.07630   0.79870   0.29870   0.01267  Uiso   1.00
C15    C     0.00840   0.36660   0.86660   0.01267  Uiso   1.00
C16    C     0.17370   0.20130   0.70130   0.01267  Uiso   1.00
S1     S     0.12500   0.96250   0.53750   0.01267  Uiso   1.00
S2     S     0.62500   0.03750   0.46250   0.01267  Uiso   1.00
S3     S     0.33750   0.53750   0.03750   0.01267  Uiso   1.00
S4     S     0.91250   0.46250   0.96250   0.01267  Uiso   1.00
N1     N     0.11250   0.88660   0.73920   0.01267  Uiso   1.00
N2     N     0.73830   0.11340   0.26080   0.01267  Uiso   1.00
N3     N     0.14830   0.73920   0.11340   0.01267  Uiso   1.00
N4     N     0.00090   0.26080   0.88660   0.01267  Uiso   1.00
N5     N     0.51170   0.23920   0.38660   0.01267  Uiso   1.00
N6     N     0.13750   0.76080   0.61340   0.01267  Uiso   1.00
N7     N     0.24910   0.61340   0.23920   0.01267  Uiso   1.00
N8     N     0.10170   0.38660   0.76080   0.01267  Uiso   1.00
O1     O     0.10645   0.84116   0.91394   0.01267  Uiso   1.00
O2     O     0.86155   0.15884   0.08606   0.01267  Uiso   1.00
O3     O     0.97961   0.91394   0.15884   0.01267  Uiso   1.00
O4     O     0.05239   0.08606   0.84116   0.01267  Uiso   1.00
O5     O     0.38845   0.41394   0.34116   0.01267  Uiso   1.00
O6     O     0.14355   0.58606   0.65884   0.01267  Uiso   1.00
O7     O     0.19761   0.65884   0.41394   0.01267  Uiso   1.00
O8     O     0.27039   0.34116   0.58606   0.01267  Uiso   1.00
