data_GOGWAB_clean
_audit_creation_date              2014-07-02
_audit_creation_method            'Materials Studio'
_symmetry_space_group_name_H-M    'P1'
_symmetry_Int_Tables_number       1
_symmetry_cell_setting            triclinic
loop_
_symmetry_equiv_pos_as_xyz
  x,y,z
_cell_length_a                    7.5571
_cell_length_b                    12.5710
_cell_length_c                    12.5710
_cell_angle_alpha                 84.8165
_cell_angle_beta                  72.5078
_cell_angle_gamma                 72.5078
loop_
_atom_site_label
_atom_site_type_symbol
_atom_site_fract_x
_atom_site_fract_y
_atom_site_fract_z
_atom_site_U_iso_or_equiv
_atom_site_adp_type
_atom_site_occupancy
Zn1    Zn    0.50000   0.00000  -0.00000   0.01267  Uiso   1.00
Zn2    Zn    0.75000   0.50000   0.50000   0.01267  Uiso   1.00
H1     H     0.62500   0.85200   0.64800   0.01267  Uiso   1.00
H2     H     0.12500   0.14800   0.35200   0.01267  Uiso   1.00
H3     H     0.72700   0.64800   0.14800   0.01267  Uiso   1.00
H4     H     0.52300   0.35200   0.85200   0.01267  Uiso   1.00
C1     C     0.61130   0.82370   0.80890   0.01267  Uiso   1.00
C2     C     0.24390   0.17630   0.19110   0.01267  Uiso   1.00
C3     C     0.57980   0.80890   0.17630   0.01267  Uiso   1.00
C4     C     0.56500   0.19110   0.82370   0.01267  Uiso   1.00
C5     C     0.00610   0.30890   0.32370   0.01267  Uiso   1.00
C6     C     0.63870   0.69110   0.67630   0.01267  Uiso   1.00
C7     C     0.68500   0.67630   0.30890   0.01267  Uiso   1.00
C8     C     0.67020   0.32370   0.69110   0.01267  Uiso   1.00
C9     C     0.62500   0.79720   0.70280   0.01267  Uiso   1.00
C10    C     0.62500   0.63200   0.86800   0.01267  Uiso   1.00
C11    C     0.12500   0.20280   0.29720   0.01267  Uiso   1.00
C12    C     0.12500   0.36800   0.13200   0.01267  Uiso   1.00
C13    C     0.67220   0.70280   0.20280   0.01267  Uiso   1.00
C14    C     0.50700   0.86800   0.36800   0.01267  Uiso   1.00
C15    C     0.57780   0.29720   0.79720   0.01267  Uiso   1.00
C16    C     0.74300   0.13200   0.63200   0.01267  Uiso   1.00
S1     S     0.62500   0.53406   0.96594   0.01267  Uiso   1.00
S2     S     0.12500   0.46594   0.03406   0.01267  Uiso   1.00
S3     S     0.40906   0.96594   0.46594   0.01267  Uiso   1.00
S4     S     0.84094   0.03406   0.53406   0.01267  Uiso   1.00
N1     N     0.61380   0.73750   0.89010   0.01267  Uiso   1.00
N2     N     0.24140   0.26250   0.10990   0.01267  Uiso   1.00
N3     N     0.49610   0.89010   0.26250   0.01267  Uiso   1.00
N4     N     0.64870   0.10990   0.73750   0.01267  Uiso   1.00
N5     N     0.00860   0.39010   0.23750   0.01267  Uiso   1.00
N6     N     0.63620   0.60990   0.76250   0.01267  Uiso   1.00
N7     N     0.60130   0.76250   0.39010   0.01267  Uiso   1.00
N8     N     0.75390   0.23750   0.60990   0.01267  Uiso   1.00
O1     O     0.60332   0.91619   0.84397   0.01267  Uiso   1.00
O2     O     0.36348   0.08381   0.15603   0.01267  Uiso   1.00
O3     O     0.55271   0.84397   0.08381   0.01267  Uiso   1.00
O4     O     0.48049   0.15603   0.91619   0.01267  Uiso   1.00
O5     O     0.88652   0.34397   0.41619   0.01267  Uiso   1.00
O6     O     0.64668   0.65603   0.58381   0.01267  Uiso   1.00
O7     O     0.76951   0.58381   0.34397   0.01267  Uiso   1.00
O8     O     0.69729   0.41619   0.65603   0.01267  Uiso   1.00
