data_GOJFAN_charged
_audit_creation_date              2014-07-02
_audit_creation_method            'Materials Studio'
_symmetry_space_group_name_H-M    'P1'
_symmetry_Int_Tables_number       1
_symmetry_cell_setting            triclinic
loop_
_symmetry_equiv_pos_as_xyz
  x,y,z
_cell_length_a                    22.5710
_cell_length_b                    22.5710
_cell_length_c                    22.5710
_cell_angle_alpha                 90.0000
_cell_angle_beta                  90.0000
_cell_angle_gamma                 90.0000
loop_
_atom_site_label
_atom_site_type_symbol
_atom_site_fract_x
_atom_site_fract_y
_atom_site_fract_z
_atom_site_U_iso_or_equiv
_atom_site_adp_type
_atom_site_occupancy
U1     U     0.79692   0.79692   0.79692   0.01267  Uiso   1.00
U2     U     0.20308   0.20308   0.79692   0.01267  Uiso   1.00
U3     U     0.20308   0.79692   0.20308   0.01267  Uiso   1.00
U4     U     0.79692   0.20308   0.20308   0.01267  Uiso   1.00
U5     U     0.79692   0.79692   0.20308   0.01267  Uiso   1.00
U6     U     0.20308   0.20308   0.20308   0.01267  Uiso   1.00
U7     U     0.79692   0.20308   0.79692   0.01267  Uiso   1.00
U8     U     0.20308   0.79692   0.79692   0.01267  Uiso   1.00
U9     U     0.50000   0.00000   0.77078   0.01267  Uiso   1.00
U10    U     0.50000   0.00000   0.22922   0.01267  Uiso   1.00
U11    U     0.77078   0.50000   0.00000   0.01267  Uiso   1.00
U12    U     0.22922   0.50000   0.00000   0.01267  Uiso   1.00
U13    U     0.00000   0.77078   0.50000   0.01267  Uiso   1.00
U14    U     0.00000   0.22922   0.50000   0.01267  Uiso   1.00
U15    U     0.00000   0.50000   0.22922   0.01267  Uiso   1.00
U16    U     0.00000   0.50000   0.77078   0.01267  Uiso   1.00
U17    U     0.50000   0.77078   0.00000   0.01267  Uiso   1.00
U18    U     0.50000   0.22922   1.00000   0.01267  Uiso   1.00
U19    U     0.77078   0.00000   0.50000   0.01267  Uiso   1.00
U20    U     0.22922   0.00000   0.50000   0.01267  Uiso   1.00
H1     H     0.68860   0.94000   0.68860   0.01267  Uiso   1.00
H2     H     0.31140   0.06000   0.68860   0.01267  Uiso   1.00
H3     H     0.31140   0.94000   0.31140   0.01267  Uiso   1.00
H4     H     0.68860   0.06000   0.31140   0.01267  Uiso   1.00
H5     H     0.68860   0.68860   0.94000   0.01267  Uiso   1.00
H6     H     0.68860   0.31140   0.06000   0.01267  Uiso   1.00
H7     H     0.31140   0.31140   0.94000   0.01267  Uiso   1.00
H8     H     0.31140   0.68860   0.06000   0.01267  Uiso   1.00
H9     H     0.94000   0.68860   0.68860   0.01267  Uiso   1.00
H10    H     0.06000   0.68860   0.31140   0.01267  Uiso   1.00
H11    H     0.94000   0.31140   0.31140   0.01267  Uiso   1.00
H12    H     0.06000   0.31140   0.68860   0.01267  Uiso   1.00
H13    H     0.94000   0.68860   0.31140   0.01267  Uiso   1.00
H14    H     0.06000   0.31140   0.31140   0.01267  Uiso   1.00
H15    H     0.94000   0.31140   0.68860   0.01267  Uiso   1.00
H16    H     0.06000   0.68860   0.68860   0.01267  Uiso   1.00
H17    H     0.68860   0.68860   0.06000   0.01267  Uiso   1.00
H18    H     0.31140   0.68860   0.94000   0.01267  Uiso   1.00
H19    H     0.31140   0.31140   0.06000   0.01267  Uiso   1.00
H20    H     0.68860   0.31140   0.94000   0.01267  Uiso   1.00
H21    H     0.68860   0.94000   0.31140   0.01267  Uiso   1.00
H22    H     0.68860   0.06000   0.68860   0.01267  Uiso   1.00
H23    H     0.31140   0.94000   0.68860   0.01267  Uiso   1.00
H24    H     0.31140   0.06000   0.31140   0.01267  Uiso   1.00
H25    H     0.71180   0.00000   0.79830   0.01267  Uiso   1.00
H26    H     0.28820   0.00000   0.79830   0.01267  Uiso   1.00
H27    H     0.28820   0.00000   0.20170   0.01267  Uiso   1.00
H28    H     0.71180   0.00000   0.20170   0.01267  Uiso   1.00
H29    H     0.79830   0.71180   0.00000   0.01267  Uiso   1.00
H30    H     0.79830   0.28820   1.00000   0.01267  Uiso   1.00
H31    H     0.20170   0.28820   0.00000   0.01267  Uiso   1.00
H32    H     0.20170   0.71180   1.00000   0.01267  Uiso   1.00
H33    H     0.00000   0.79830   0.71180   0.01267  Uiso   1.00
H34    H     0.00000   0.79830   0.28820   0.01267  Uiso   1.00
H35    H     0.00000   0.20170   0.28820   0.01267  Uiso   1.00
H36    H     0.00000   0.20170   0.71180   0.01267  Uiso   1.00
H37    H     0.00000   0.71180   0.20170   0.01267  Uiso   1.00
H38    H     0.00000   0.28820   0.20170   0.01267  Uiso   1.00
H39    H     0.00000   0.28820   0.79830   0.01267  Uiso   1.00
H40    H     0.00000   0.71180   0.79830   0.01267  Uiso   1.00
H41    H     0.71180   0.79830   0.00000   0.01267  Uiso   1.00
H42    H     0.28820   0.79830   1.00000   0.01267  Uiso   1.00
H43    H     0.28820   0.20170   0.00000   0.01267  Uiso   1.00
H44    H     0.71180   0.20170   1.00000   0.01267  Uiso   1.00
H45    H     0.79830   0.00000   0.28820   0.01267  Uiso   1.00
H46    H     0.79830   0.00000   0.71180   0.01267  Uiso   1.00
H47    H     0.20170   0.00000   0.71180   0.01267  Uiso   1.00
H48    H     0.20170   0.00000   0.28820   0.01267  Uiso   1.00
C1     C     0.74510   0.89850   0.74510   0.01267  Uiso   1.00
C2     C     0.71810   0.95180   0.71810   0.01267  Uiso   1.00
C3     C     0.25490   0.10150   0.74510   0.01267  Uiso   1.00
C4     C     0.28190   0.04820   0.71810   0.01267  Uiso   1.00
C5     C     0.25490   0.89850   0.25490   0.01267  Uiso   1.00
C6     C     0.28190   0.95180   0.28190   0.01267  Uiso   1.00
C7     C     0.74510   0.10150   0.25490   0.01267  Uiso   1.00
C8     C     0.71810   0.04820   0.28190   0.01267  Uiso   1.00
C9     C     0.74510   0.74510   0.89850   0.01267  Uiso   1.00
C10    C     0.71810   0.71810   0.95180   0.01267  Uiso   1.00
C11    C     0.74510   0.25490   0.10150   0.01267  Uiso   1.00
C12    C     0.71810   0.28190   0.04820   0.01267  Uiso   1.00
C13    C     0.25490   0.25490   0.89850   0.01267  Uiso   1.00
C14    C     0.28190   0.28190   0.95180   0.01267  Uiso   1.00
C15    C     0.25490   0.74510   0.10150   0.01267  Uiso   1.00
C16    C     0.28190   0.71810   0.04820   0.01267  Uiso   1.00
C17    C     0.89850   0.74510   0.74510   0.01267  Uiso   1.00
C18    C     0.95180   0.71810   0.71810   0.01267  Uiso   1.00
C19    C     0.10150   0.74510   0.25490   0.01267  Uiso   1.00
C20    C     0.04820   0.71810   0.28190   0.01267  Uiso   1.00
C21    C     0.89850   0.25490   0.25490   0.01267  Uiso   1.00
C22    C     0.95180   0.28190   0.28190   0.01267  Uiso   1.00
C23    C     0.10150   0.25490   0.74510   0.01267  Uiso   1.00
C24    C     0.04820   0.28190   0.71810   0.01267  Uiso   1.00
C25    C     0.89850   0.74510   0.25490   0.01267  Uiso   1.00
C26    C     0.95180   0.71810   0.28190   0.01267  Uiso   1.00
C27    C     0.10150   0.25490   0.25490   0.01267  Uiso   1.00
C28    C     0.04820   0.28190   0.28190   0.01267  Uiso   1.00
C29    C     0.89850   0.25490   0.74510   0.01267  Uiso   1.00
C30    C     0.95180   0.28190   0.71810   0.01267  Uiso   1.00
C31    C     0.10150   0.74510   0.74510   0.01267  Uiso   1.00
C32    C     0.04820   0.71810   0.71810   0.01267  Uiso   1.00
C33    C     0.74510   0.74510   0.10150   0.01267  Uiso   1.00
C34    C     0.71810   0.71810   0.04820   0.01267  Uiso   1.00
C35    C     0.25490   0.74510   0.89850   0.01267  Uiso   1.00
C36    C     0.28190   0.71810   0.95180   0.01267  Uiso   1.00
C37    C     0.25490   0.25490   0.10150   0.01267  Uiso   1.00
C38    C     0.28190   0.28190   0.04820   0.01267  Uiso   1.00
C39    C     0.74510   0.25490   0.89850   0.01267  Uiso   1.00
C40    C     0.71810   0.28190   0.95180   0.01267  Uiso   1.00
C41    C     0.74510   0.89850   0.25490   0.01267  Uiso   1.00
C42    C     0.71810   0.95180   0.28190   0.01267  Uiso   1.00
C43    C     0.74510   0.10150   0.74510   0.01267  Uiso   1.00
C44    C     0.71810   0.04820   0.71810   0.01267  Uiso   1.00
C45    C     0.25490   0.89850   0.74510   0.01267  Uiso   1.00
C46    C     0.28190   0.95180   0.71810   0.01267  Uiso   1.00
C47    C     0.25490   0.10150   0.25490   0.01267  Uiso   1.00
C48    C     0.28190   0.04820   0.28190   0.01267  Uiso   1.00
C49    C     0.69170   0.00000   0.75980   0.01267  Uiso   1.00
C50    C     0.62630   0.00000   0.76740   0.01267  Uiso   1.00
C51    C     0.30830   0.00000   0.75980   0.01267  Uiso   1.00
C52    C     0.37370   0.00000   0.76740   0.01267  Uiso   1.00
C53    C     0.30830   0.00000   0.24020   0.01267  Uiso   1.00
C54    C     0.37370   0.00000   0.23260   0.01267  Uiso   1.00
C55    C     0.69170   0.00000   0.24020   0.01267  Uiso   1.00
C56    C     0.62630   0.00000   0.23260   0.01267  Uiso   1.00
C57    C     0.75980   0.69170   0.00000   0.01267  Uiso   1.00
C58    C     0.76740   0.62630   0.00000   0.01267  Uiso   1.00
C59    C     0.75980   0.30830   1.00000   0.01267  Uiso   1.00
C60    C     0.76740   0.37370   0.00000   0.01267  Uiso   1.00
C61    C     0.24020   0.30830   1.00000   0.01267  Uiso   1.00
C62    C     0.23260   0.37370   0.00000   0.01267  Uiso   1.00
C63    C     0.24020   0.69170   1.00000   0.01267  Uiso   1.00
C64    C     0.23260   0.62630   0.00000   0.01267  Uiso   1.00
C65    C     0.00000   0.75980   0.69170   0.01267  Uiso   1.00
C66    C     0.00000   0.76740   0.62630   0.01267  Uiso   1.00
C67    C     0.00000   0.75980   0.30830   0.01267  Uiso   1.00
C68    C     0.00000   0.76740   0.37370   0.01267  Uiso   1.00
C69    C     0.00000   0.24020   0.30830   0.01267  Uiso   1.00
C70    C     1.00000   0.23260   0.37370   0.01267  Uiso   1.00
C71    C     0.00000   0.24020   0.69170   0.01267  Uiso   1.00
C72    C     1.00000   0.23260   0.62630   0.01267  Uiso   1.00
C73    C     0.00000   0.69170   0.24020   0.01267  Uiso   1.00
C74    C     0.00000   0.62630   0.23260   0.01267  Uiso   1.00
C75    C     0.00000   0.30830   0.24020   0.01267  Uiso   1.00
C76    C     0.00000   0.37370   0.23260   0.01267  Uiso   1.00
C77    C     0.00000   0.30830   0.75980   0.01267  Uiso   1.00
C78    C     0.00000   0.37370   0.76740   0.01267  Uiso   1.00
C79    C     0.00000   0.69170   0.75980   0.01267  Uiso   1.00
C80    C     0.00000   0.62630   0.76740   0.01267  Uiso   1.00
C81    C     0.69170   0.75980   0.00000   0.01267  Uiso   1.00
C82    C     0.62630   0.76740   0.00000   0.01267  Uiso   1.00
C83    C     0.30830   0.75980   1.00000   0.01267  Uiso   1.00
C84    C     0.37370   0.76740   1.00000   0.01267  Uiso   1.00
C85    C     0.30830   0.24020   1.00000   0.01267  Uiso   1.00
C86    C     0.37370   0.23260   0.00000   0.01267  Uiso   1.00
C87    C     0.69170   0.24020   1.00000   0.01267  Uiso   1.00
C88    C     0.62630   0.23260   0.00000   0.01267  Uiso   1.00
C89    C     0.75980   0.00000   0.30830   0.01267  Uiso   1.00
C90    C     0.76740   0.00000   0.37370   0.01267  Uiso   1.00
C91    C     0.75980   0.00000   0.69170   0.01267  Uiso   1.00
C92    C     0.76740   0.00000   0.62630   0.01267  Uiso   1.00
C93    C     0.24020   0.00000   0.69170   0.01267  Uiso   1.00
C94    C     0.23260   0.00000   0.62630   0.01267  Uiso   1.00
C95    C     0.24020   0.00000   0.30830   0.01267  Uiso   1.00
C96    C     0.23260   0.00000   0.37370   0.01267  Uiso   1.00
O1     O     0.79030   0.87610   0.72230   0.01267  Uiso   1.00
O2     O     0.59870   0.04800   0.75840   0.01267  Uiso   1.00
O3     O     0.20970   0.12390   0.72230   0.01267  Uiso   1.00
O4     O     0.40130   0.95200   0.75840   0.01267  Uiso   1.00
O5     O     0.20970   0.87610   0.27770   0.01267  Uiso   1.00
O6     O     0.40130   0.04800   0.24160   0.01267  Uiso   1.00
O7     O     0.79030   0.12390   0.27770   0.01267  Uiso   1.00
O8     O     0.59870   0.95200   0.24160   0.01267  Uiso   1.00
O9     O     0.72230   0.79030   0.87610   0.01267  Uiso   1.00
O10    O     0.75840   0.59870   0.04800   0.01267  Uiso   1.00
O11    O     0.72230   0.20970   0.12390   0.01267  Uiso   1.00
O12    O     0.75840   0.40130   0.95200   0.01267  Uiso   1.00
O13    O     0.27770   0.20970   0.87610   0.01267  Uiso   1.00
O14    O     0.24160   0.40130   0.04800   0.01267  Uiso   1.00
O15    O     0.27770   0.79030   0.12390   0.01267  Uiso   1.00
O16    O     0.24160   0.59870   0.95200   0.01267  Uiso   1.00
O17    O     0.87610   0.72230   0.79030   0.01267  Uiso   1.00
O18    O     0.04800   0.75840   0.59870   0.01267  Uiso   1.00
O19    O     0.12390   0.72230   0.20970   0.01267  Uiso   1.00
O20    O     0.95200   0.75840   0.40130   0.01267  Uiso   1.00
O21    O     0.87610   0.27770   0.20970   0.01267  Uiso   1.00
O22    O     0.04800   0.24160   0.40130   0.01267  Uiso   1.00
O23    O     0.12390   0.27770   0.79030   0.01267  Uiso   1.00
O24    O     0.95200   0.24160   0.59870   0.01267  Uiso   1.00
O25    O     0.87610   0.79030   0.27770   0.01267  Uiso   1.00
O26    O     0.04800   0.59870   0.24160   0.01267  Uiso   1.00
O27    O     0.12390   0.20970   0.27770   0.01267  Uiso   1.00
O28    O     0.95200   0.40130   0.24160   0.01267  Uiso   1.00
O29    O     0.87610   0.20970   0.72230   0.01267  Uiso   1.00
O30    O     0.04800   0.40130   0.75840   0.01267  Uiso   1.00
O31    O     0.12390   0.79030   0.72230   0.01267  Uiso   1.00
O32    O     0.95200   0.59870   0.75840   0.01267  Uiso   1.00
O33    O     0.79030   0.72230   0.12390   0.01267  Uiso   1.00
O34    O     0.59870   0.75840   0.95200   0.01267  Uiso   1.00
O35    O     0.20970   0.72230   0.87610   0.01267  Uiso   1.00
O36    O     0.40130   0.75840   0.04800   0.01267  Uiso   1.00
O37    O     0.20970   0.27770   0.12390   0.01267  Uiso   1.00
O38    O     0.40130   0.24160   0.95200   0.01267  Uiso   1.00
O39    O     0.79030   0.27770   0.87610   0.01267  Uiso   1.00
O40    O     0.59870   0.24160   0.04800   0.01267  Uiso   1.00
O41    O     0.72230   0.87610   0.20970   0.01267  Uiso   1.00
O42    O     0.75840   0.04800   0.40130   0.01267  Uiso   1.00
O43    O     0.72230   0.12390   0.79030   0.01267  Uiso   1.00
O44    O     0.75840   0.95200   0.59870   0.01267  Uiso   1.00
O45    O     0.27770   0.87610   0.79030   0.01267  Uiso   1.00
O46    O     0.24160   0.04800   0.59870   0.01267  Uiso   1.00
O47    O     0.27770   0.12390   0.20970   0.01267  Uiso   1.00
O48    O     0.24160   0.95200   0.40130   0.01267  Uiso   1.00
O49    O     0.20970   0.12390   0.27770   0.01267  Uiso   1.00
O50    O     0.40130   0.95200   0.24160   0.01267  Uiso   1.00
O51    O     0.79030   0.87610   0.27770   0.01267  Uiso   1.00
O52    O     0.59870   0.04800   0.24160   0.01267  Uiso   1.00
O53    O     0.79030   0.12390   0.72230   0.01267  Uiso   1.00
O54    O     0.59870   0.95200   0.75840   0.01267  Uiso   1.00
O55    O     0.20970   0.87610   0.72230   0.01267  Uiso   1.00
O56    O     0.40130   0.04800   0.75840   0.01267  Uiso   1.00
O57    O     0.27770   0.20970   0.12390   0.01267  Uiso   1.00
O58    O     0.24160   0.40130   0.95200   0.01267  Uiso   1.00
O59    O     0.27770   0.79030   0.87610   0.01267  Uiso   1.00
O60    O     0.24160   0.59870   0.04800   0.01267  Uiso   1.00
O61    O     0.72230   0.79030   0.12390   0.01267  Uiso   1.00
O62    O     0.75840   0.59870   0.95200   0.01267  Uiso   1.00
O63    O     0.72230   0.20970   0.87610   0.01267  Uiso   1.00
O64    O     0.75840   0.40130   0.04800   0.01267  Uiso   1.00
O65    O     0.12390   0.27770   0.20970   0.01267  Uiso   1.00
O66    O     0.95200   0.24160   0.40130   0.01267  Uiso   1.00
O67    O     0.87610   0.27770   0.79030   0.01267  Uiso   1.00
O68    O     0.04800   0.24160   0.59870   0.01267  Uiso   1.00
O69    O     0.12390   0.72230   0.79030   0.01267  Uiso   1.00
O70    O     0.95200   0.75840   0.59870   0.01267  Uiso   1.00
O71    O     0.87610   0.72230   0.20970   0.01267  Uiso   1.00
O72    O     0.04800   0.75840   0.40130   0.01267  Uiso   1.00
O73    O     0.12390   0.20970   0.72230   0.01267  Uiso   1.00
O74    O     0.95200   0.40130   0.75840   0.01267  Uiso   1.00
O75    O     0.87610   0.79030   0.72230   0.01267  Uiso   1.00
O76    O     0.04800   0.59870   0.75840   0.01267  Uiso   1.00
O77    O     0.12390   0.79030   0.27770   0.01267  Uiso   1.00
O78    O     0.95200   0.59870   0.24160   0.01267  Uiso   1.00
O79    O     0.87610   0.20970   0.27770   0.01267  Uiso   1.00
O80    O     0.04800   0.40130   0.24160   0.01267  Uiso   1.00
O81    O     0.20970   0.27770   0.87610   0.01267  Uiso   1.00
O82    O     0.40130   0.24160   0.04800   0.01267  Uiso   1.00
O83    O     0.79030   0.27770   0.12390   0.01267  Uiso   1.00
O84    O     0.59870   0.24160   0.95200   0.01267  Uiso   1.00
O85    O     0.79030   0.72230   0.87610   0.01267  Uiso   1.00
O86    O     0.59870   0.75840   0.04800   0.01267  Uiso   1.00
O87    O     0.20970   0.72230   0.12390   0.01267  Uiso   1.00
O88    O     0.40130   0.75840   0.95200   0.01267  Uiso   1.00
O89    O     0.27770   0.12390   0.79030   0.01267  Uiso   1.00
O90    O     0.24160   0.95200   0.59870   0.01267  Uiso   1.00
O91    O     0.27770   0.87610   0.20970   0.01267  Uiso   1.00
O92    O     0.24160   0.04800   0.40130   0.01267  Uiso   1.00
O93    O     0.72230   0.12390   0.20970   0.01267  Uiso   1.00
O94    O     0.75840   0.95200   0.40130   0.01267  Uiso   1.00
O95    O     0.72230   0.87610   0.79030   0.01267  Uiso   1.00
O96    O     0.75840   0.04800   0.59870   0.01267  Uiso   1.00
O97    O     0.75150   0.75150   0.75150   0.01267  Uiso   1.00
O98    O     0.84230   0.84230   0.84230   0.01267  Uiso   1.00
O99    O     0.24850   0.24850   0.75150   0.01267  Uiso   1.00
O100   O     0.15770   0.15770   0.84230   0.01267  Uiso   1.00
O101   O     0.24850   0.75150   0.24850   0.01267  Uiso   1.00
O102   O     0.15770   0.84230   0.15770   0.01267  Uiso   1.00
O103   O     0.75150   0.24850   0.24850   0.01267  Uiso   1.00
O104   O     0.84230   0.15770   0.15770   0.01267  Uiso   1.00
O105   O     0.75150   0.75150   0.24850   0.01267  Uiso   1.00
O106   O     0.84230   0.84230   0.15770   0.01267  Uiso   1.00
O107   O     0.24850   0.24850   0.24850   0.01267  Uiso   1.00
O108   O     0.15770   0.15770   0.15770   0.01267  Uiso   1.00
O109   O     0.75150   0.24850   0.75150   0.01267  Uiso   1.00
O110   O     0.84230   0.15770   0.84230   0.01267  Uiso   1.00
O111   O     0.24850   0.75150   0.75150   0.01267  Uiso   1.00
O112   O     0.15770   0.84230   0.84230   0.01267  Uiso   1.00
O113   O     0.50000   0.03450   0.84290   0.01267  Uiso   1.00
O114   O     0.50000   0.97420   0.69890   0.01267  Uiso   1.00
O115   O     0.50000   0.10240   0.72370   0.01267  Uiso   1.00
O116   O     0.50000   0.96550   0.84290   0.01267  Uiso   1.00
O117   O     0.50000   0.02580   0.69890   0.01267  Uiso   1.00
O118   O     0.50000   0.89760   0.72370   0.01267  Uiso   1.00
O119   O     0.50000   0.03450   0.15710   0.01267  Uiso   1.00
O120   O     0.50000   0.97420   0.30110   0.01267  Uiso   1.00
O121   O     0.50000   0.10240   0.27630   0.01267  Uiso   1.00
O122   O     0.50000   0.96550   0.15710   0.01267  Uiso   1.00
O123   O     0.50000   0.02580   0.30110   0.01267  Uiso   1.00
O124   O     0.50000   0.89760   0.27630   0.01267  Uiso   1.00
O125   O     0.84290   0.50000   0.03450   0.01267  Uiso   1.00
O126   O     0.69890   0.50000   0.97420   0.01267  Uiso   1.00
O127   O     0.72370   0.50000   0.10240   0.01267  Uiso   1.00
O128   O     0.84290   0.50000   0.96550   0.01267  Uiso   1.00
O129   O     0.69890   0.50000   0.02580   0.01267  Uiso   1.00
O130   O     0.72370   0.50000   0.89760   0.01267  Uiso   1.00
O131   O     0.15710   0.50000   0.03450   0.01267  Uiso   1.00
O132   O     0.30110   0.50000   0.97420   0.01267  Uiso   1.00
O133   O     0.27630   0.50000   0.10240   0.01267  Uiso   1.00
O134   O     0.15710   0.50000   0.96550   0.01267  Uiso   1.00
O135   O     0.30110   0.50000   0.02580   0.01267  Uiso   1.00
O136   O     0.27630   0.50000   0.89760   0.01267  Uiso   1.00
O137   O     0.03450   0.84290   0.50000   0.01267  Uiso   1.00
O138   O     0.97420   0.69890   0.50000   0.01267  Uiso   1.00
O139   O     0.10240   0.72370   0.50000   0.01267  Uiso   1.00
O140   O     0.96550   0.84290   0.50000   0.01267  Uiso   1.00
O141   O     0.02580   0.69890   0.50000   0.01267  Uiso   1.00
O142   O     0.89760   0.72370   0.50000   0.01267  Uiso   1.00
O143   O     0.03450   0.15710   0.50000   0.01267  Uiso   1.00
O144   O     0.97420   0.30110   0.50000   0.01267  Uiso   1.00
O145   O     0.10240   0.27630   0.50000   0.01267  Uiso   1.00
O146   O     0.96550   0.15710   0.50000   0.01267  Uiso   1.00
O147   O     0.02580   0.30110   0.50000   0.01267  Uiso   1.00
O148   O     0.89760   0.27630   0.50000   0.01267  Uiso   1.00
O149   O     0.03450   0.50000   0.15710   0.01267  Uiso   1.00
O150   O     0.97420   0.50000   0.30110   0.01267  Uiso   1.00
O151   O     0.10240   0.50000   0.27630   0.01267  Uiso   1.00
O152   O     0.96550   0.50000   0.15710   0.01267  Uiso   1.00
O153   O     0.02580   0.50000   0.30110   0.01267  Uiso   1.00
O154   O     0.89760   0.50000   0.27630   0.01267  Uiso   1.00
O155   O     0.03450   0.50000   0.84290   0.01267  Uiso   1.00
O156   O     0.97420   0.50000   0.69890   0.01267  Uiso   1.00
O157   O     0.10240   0.50000   0.72370   0.01267  Uiso   1.00
O158   O     0.96550   0.50000   0.84290   0.01267  Uiso   1.00
O159   O     0.02580   0.50000   0.69890   0.01267  Uiso   1.00
O160   O     0.89760   0.50000   0.72370   0.01267  Uiso   1.00
O161   O     0.50000   0.84290   0.96550   0.01267  Uiso   1.00
O162   O     0.50000   0.69890   0.02580   0.01267  Uiso   1.00
O163   O     0.50000   0.72370   0.89760   0.01267  Uiso   1.00
O164   O     0.50000   0.84290   0.03450   0.01267  Uiso   1.00
O165   O     0.50000   0.69890   0.97420   0.01267  Uiso   1.00
O166   O     0.50000   0.72370   0.10240   0.01267  Uiso   1.00
O167   O     0.50000   0.15710   0.96550   0.01267  Uiso   1.00
O168   O     0.50000   0.30110   0.02580   0.01267  Uiso   1.00
O169   O     0.50000   0.27630   0.89760   0.01267  Uiso   1.00
O170   O     0.50000   0.15710   0.03450   0.01267  Uiso   1.00
O171   O     0.50000   0.30110   0.97420   0.01267  Uiso   1.00
O172   O     0.50000   0.27630   0.10240   0.01267  Uiso   1.00
O173   O     0.84290   0.03450   0.50000   0.01267  Uiso   1.00
O174   O     0.69890   0.97420   0.50000   0.01267  Uiso   1.00
O175   O     0.72370   0.10240   0.50000   0.01267  Uiso   1.00
O176   O     0.84290   0.96550   0.50000   0.01267  Uiso   1.00
O177   O     0.69890   0.02580   0.50000   0.01267  Uiso   1.00
O178   O     0.72370   0.89760   0.50000   0.01267  Uiso   1.00
O179   O     0.15710   0.03450   0.50000   0.01267  Uiso   1.00
O180   O     0.30110   0.97420   0.50000   0.01267  Uiso   1.00
O181   O     0.27630   0.10240   0.50000   0.01267  Uiso   1.00
O182   O     0.15710   0.96550   0.50000   0.01267  Uiso   1.00
O183   O     0.30110   0.02580   0.50000   0.01267  Uiso   1.00
O184   O     0.27630   0.89760   0.50000   0.01267  Uiso   1.00
