data_image0
_cell_length_a       14.2269
_cell_length_b       14.7692
_cell_length_c       21.6912
_cell_angle_alpha    90.391
_cell_angle_beta     94.357
_cell_angle_gamma    118.233

_symmetry_space_group_name_H-M    "P 1"
_symmetry_int_tables_number       1

loop_
  _symmetry_equiv_pos_as_xyz
  'x, y, z'

loop_
  _atom_site_label
  _atom_site_occupancy
  _atom_site_fract_x
  _atom_site_fract_y
  _atom_site_fract_z
  _atom_site_thermal_displace_type
  _atom_site_B_iso_or_equiv
  _atom_site_type_symbol
  C1       1.0000 0.93270  0.09200  0.99524  Biso   1.000  C
  H1       1.0000 0.95620  0.04670  0.01040  Biso   1.000  H
  C2       1.0000 0.87380  0.07090  0.93793  Biso   1.000  C
  H2       1.0000 0.85600  0.00990  0.91580  Biso   1.000  H
  C3       1.0000 0.84040  0.14020  0.91250  Biso   1.000  C
  C4       1.0000 0.86670  0.22880  0.94837  Biso   1.000  C
  H3       1.0000 0.84570  0.27600  0.93350  Biso   1.000  H
  C5       1.0000 0.92370  0.24800  0.00600  Biso   1.000  C
  H4       1.0000 0.94030  0.30780  0.02910  Biso   1.000  H
  C6       1.0000 0.77950  0.11860  0.84988  Biso   1.000  C
  C7       1.0000 0.71870  0.01900  0.82642  Biso   1.000  C
  H5       1.0000 0.71880  0.96540  0.84870  Biso   1.000  H
  C8       1.0000 0.65710  0.99690  0.77007  Biso   1.000  C
  C9       1.0000 0.65990  0.07580  0.73537  Biso   1.000  C
  H6       1.0000 0.62140  0.06110  0.69670  Biso   1.000  H
  C10      1.0000 0.72040  0.17790  0.75804  Biso   1.000  C
  C11      1.0000 0.78060  0.19830  0.81577  Biso   1.000  C
  H7       1.0000 0.82160  0.26590  0.83130  Biso   1.000  H
  C12      1.0000 0.80590  0.44140  0.69421  Biso   1.000  C
  H8       1.0000 0.86400  0.50730  0.69960  Biso   1.000  H
  C13      1.0000 0.80640  0.36310  0.72852  Biso   1.000  C
  H9       1.0000 0.86510  0.37700  0.75640  Biso   1.000  H
  C14      1.0000 0.71960  0.26250  0.72208  Biso   1.000  C
  C15      1.0000 0.63370  0.24590  0.67929  Biso   1.000  C
  H10      1.0000 0.57510  0.18050  0.67370  Biso   1.000  H
  C16      1.0000 0.63430  0.32540  0.64480  Biso   1.000  C
  H11      1.0000 0.57630  0.31280  0.61660  Biso   1.000  H
  C17      1.0000 0.50353  0.84679  0.72749  Biso   1.000  C
  C18      1.0000 0.42175  0.84453  0.75976  Biso   1.000  C
  H12      1.0000 0.43810  0.88830  0.79450  Biso   1.000  H
  C19      1.0000 0.31553  0.77689  0.74005  Biso   1.000  C
  C20      1.0000 0.29109  0.71151  0.68808  Biso   1.000  C
  H13      1.0000 0.22000  0.66630  0.67490  Biso   1.000  H
  C21      1.0000 0.37287  0.71377  0.65581  Biso   1.000  C
  C22      1.0000 0.47909  0.78140  0.67552  Biso   1.000  C
  H14      1.0000 0.53380  0.78290  0.65390  Biso   1.000  H
  C23      1.0000 0.05140  0.68470  0.80946  Biso   1.000  C
  H15      1.0000 0.98800  0.62370  0.81170  Biso   1.000  H
  C24      1.0000 0.13240  0.68440  0.77783  Biso   1.000  C
  H16      1.0000 0.12290  0.62370  0.75870  Biso   1.000  H
  C25      1.0000 0.22830  0.77530  0.77470  Biso   1.000  C
  C26      1.0000 0.23900  0.86260  0.80358  Biso   1.000  C
  H17      1.0000 0.30300  0.92340  0.80300  Biso   1.000  H
  C27      1.0000 0.15610  0.86250  0.83383  Biso   1.000  C
  H18      1.0000 0.16430  0.92360  0.85160  Biso   1.000  H
  C28      1.0000 0.40870  0.58230  0.51460  Biso   1.000  C
  H19      1.0000 0.46430  0.58060  0.49560  Biso   1.000  H
  C29      1.0000 0.43050  0.63750  0.56430  Biso   1.000  C
  H20      1.0000 0.50160  0.67390  0.58050  Biso   1.000  H
  C30      1.0000 0.34680  0.64630  0.59781  Biso   1.000  C
  C31      1.0000 0.24190  0.58460  0.56940  Biso   1.000  C
  H21      1.0000 0.18460  0.58440  0.58750  Biso   1.000  H
  C32      1.0000 0.22120  0.52460  0.51570  Biso   1.000  C
  H22      1.0000 0.15130  0.48420  0.49840  Biso   1.000  H
  C33      1.0000 0.05380  0.06710  0.19653  Biso   1.000  C
  C34      1.0000 0.01560  0.95570  0.21216  Biso   1.000  C
  C35      1.0000 0.04350  0.93210  0.27050  Biso   1.000  C
  H23      1.0000 0.08670  0.98480  0.29970  Biso   1.000  H
  C36      1.0000 0.00720  0.83100  0.28500  Biso   1.000  C
  H24      1.0000 0.02620  0.81600  0.32410  Biso   1.000  H
  C37      1.0000 0.94280  0.75140  0.24220  Biso   1.000  C
  C38      1.0000 0.91600  0.77560  0.18340  Biso   1.000  C
  H25      1.0000 0.87430  0.72310  0.15390  Biso   1.000  H
  C39      1.0000 0.95110  0.87700  0.16900  Biso   1.000  C
  H26      1.0000 0.93120  0.89240  0.13030  Biso   1.000  H
  C40      1.0000 0.76160  0.58520  0.27890  Biso   1.000  C
  C41      1.0000 0.74970  0.62990  0.33230  Biso   1.000  C
  H27      1.0000 0.80950  0.68060  0.35550  Biso   1.000  H
  C42      1.0000 0.64610  0.59770  0.35100  Biso   1.000  C
  H28      1.0000 0.63690  0.62940  0.38550  Biso   1.000  H
  C43      1.0000 0.55860  0.51860  0.31774  Biso   1.000  C
  C44      1.0000 0.57170  0.47340  0.26469  Biso   1.000  C
  H29      1.0000 0.51250  0.42080  0.24220  Biso   1.000  H
  C45      1.0000 0.67520  0.50780  0.24530  Biso   1.000  C
  H30      1.0000 0.68460  0.47810  0.20990  Biso   1.000  H
  C46      1.0000 0.44930  0.48360  0.33953  Biso   1.000  C
  C47      1.0000 0.93220  0.69060  0.64195  Biso   1.000  C
  C48      1.0000 0.04310  0.75860  0.62717  Biso   1.000  C
  C49      1.0000 0.08110  0.73160  0.57607  Biso   1.000  C
  H31      1.0000 0.03700  0.67100  0.55270  Biso   1.000  H
  C50      1.0000 0.18470  0.79540  0.56010  Biso   1.000  C
  H32      1.0000 0.21050  0.77770  0.52650  Biso   1.000  H
  C51      1.0000 0.24850  0.88580  0.59540  Biso   1.000  C
  C52      1.0000 0.21230  0.91170  0.64694  Biso   1.000  C
  H33      1.0000 0.25650  0.97160  0.67090  Biso   1.000  H
  C53      1.0000 0.11020  0.84750  0.66204  Biso   1.000  C
  H34      1.0000 0.08580  0.86450  0.69660  Biso   1.000  H
  C54      1.0000 0.35400  0.04940  0.52124  Biso   1.000  C
  C55      1.0000 0.32640  0.02350  0.45940  Biso   1.000  C
  H35      1.0000 0.32580  0.96490  0.44280  Biso   1.000  H
  C56      1.0000 0.29980  0.08320  0.42165  Biso   1.000  C
  H36      1.0000 0.28110  0.06510  0.37960  Biso   1.000  H
  C57      1.0000 0.30040  0.17100  0.44580  Biso   1.000  C
  C58      1.0000 0.32930  0.19840  0.50947  Biso   1.000  C
  H37      1.0000 0.33050  0.25720  0.52610  Biso   1.000  H
  C59      1.0000 0.35580  0.13620  0.54713  Biso   1.000  C
  H38      1.0000 0.37460  0.15290  0.58930  Biso   1.000  H
  C60      1.0000 0.27620  0.24120  0.40548  Biso   1.000  C
  C61      1.0000 0.19980  0.40950  0.14775  Biso   1.000  C
  C62      1.0000 0.28920  0.52010  0.15386  Biso   1.000  C
  C63      1.0000 0.27920  0.59360  0.11950  Biso   1.000  C
  H39      1.0000 0.21820  0.57550  0.09260  Biso   1.000  H
  C64      1.0000 0.36060  0.69530  0.12500  Biso   1.000  C
  H40      1.0000 0.35410  0.74570  0.10250  Biso   1.000  H
  C65      1.0000 0.45290  0.72060  0.16527  Biso   1.000  C
  C66      1.0000 0.46060  0.64570  0.19953  Biso   1.000  C
  H41      1.0000 0.52040  0.66360  0.22730  Biso   1.000  H
  C67      1.0000 0.38130  0.54500  0.19321  Biso   1.000  C
  H42      1.0000 0.38890  0.49430  0.21480  Biso   1.000  H
  C68      1.0000 0.62690  0.84240  0.10380  Biso   1.000  C
  C69      1.0000 0.60570  0.87840  0.04840  Biso   1.000  C
  H43      1.0000 0.56310  0.91060  0.04650  Biso   1.000  H
  C70      1.0000 0.64910  0.86560  0.99560  Biso   1.000  C
  H44      1.0000 0.63550  0.88980  0.95830  Biso   1.000  H
  C71      1.0000 0.71180  0.81760  0.99803  Biso   1.000  C
  C72      1.0000 0.73480  0.78430  0.05340  Biso   1.000  C
  H45      1.0000 0.77940  0.75430  0.05530  Biso   1.000  H
  C73      1.0000 0.69150  0.79540  0.10663  Biso   1.000  C
  H46      1.0000 0.70580  0.77150  0.14380  Biso   1.000  H
  C74      1.0000 0.75690  0.80220  0.94029  Biso   1.000  C
  Co1      1.0000 0.06255  0.22425  0.11240  Biso   1.000  Co
  Co2      1.0000 0.28625  0.45382  0.39971  Biso   1.000  Co
  Co3      1.0000 0.22151  0.28000  0.27108  Biso   1.000  Co
  N1       1.0000 0.95610  0.18020  0.02961  Biso   1.000  N
  N2       1.0000 0.72100  0.42320  0.65244  Biso   1.000  N
  N3       1.0000 0.06290  0.77340  0.83756  Biso   1.000  N
  N4       1.0000 0.30650  0.52570  0.48827  Biso   1.000  N
  O1       1.0000 0.61370  0.89790  0.74494  Biso   1.000  O
  O2       1.0000 0.02810  0.08350  0.14277  Biso   1.000  O
  O3       1.0000 0.10160  0.13286  0.23867  Biso   1.000  O
  O4       1.0000 0.88540  0.56330  0.20684  Biso   1.000  O
  O5       1.0000 0.95450  0.61850  0.31543  Biso   1.000  O
  O6       1.0000 0.36534  0.42349  0.30793  Biso   1.000  O
  O7       1.0000 0.44860  0.52000  0.39190  Biso   1.000  O
  O8       1.0000 0.13180  0.38367  0.10043  Biso   1.000  O
  O9       1.0000 0.19646  0.34344  0.18369  Biso   1.000  O
  O10      1.0000 0.51660  0.91740  0.15612  Biso   1.000  O
  O11      1.0000 0.62830  0.85940  0.22448  Biso   1.000  O
  O12      1.0000 0.71260  0.81180  0.89057  Biso   1.000  O
  O13      1.0000 0.82770  0.77460  0.94639  Biso   1.000  O
  O14      1.0000 0.25270  0.21448  0.34912  Biso   1.000  O
  O15      1.0000 0.28640  0.32289  0.43019  Biso   1.000  O
  O16      1.0000 0.40750  0.90220  0.53409  Biso   1.000  O
  O17      1.0000 0.44420  0.02580  0.62564  Biso   1.000  O
  O18      1.0000 0.87440  0.61700  0.60224  Biso   1.000  O
  O19      1.0000 0.90033  0.70732  0.69094  Biso   1.000  O
  S1       1.0000 0.89369  0.62301  0.25979  Biso   1.000  S
  S2       1.0000 0.37839  0.96516  0.57102  Biso   1.000  S
  S3       1.0000 0.56020  0.84534  0.16842  Biso   1.000  S
  C75      1.0000 0.06730  0.90800  0.00476  Biso   1.000  C
  H47      1.0000 0.04380  0.95330  0.98960  Biso   1.000  H
  C76      1.0000 0.12620  0.92910  0.06207  Biso   1.000  C
  H48      1.0000 0.14400  0.99010  0.08420  Biso   1.000  H
  C77      1.0000 0.15960  0.85980  0.08750  Biso   1.000  C
  C78      1.0000 0.13330  0.77120  0.05163  Biso   1.000  C
  H49      1.0000 0.15430  0.72400  0.06650  Biso   1.000  H
  C79      1.0000 0.07630  0.75200  0.99400  Biso   1.000  C
  H50      1.0000 0.05970  0.69220  0.97090  Biso   1.000  H
  C80      1.0000 0.22050  0.88140  0.15012  Biso   1.000  C
  C81      1.0000 0.28130  0.98100  0.17358  Biso   1.000  C
  H51      1.0000 0.28120  0.03460  0.15130  Biso   1.000  H
  C82      1.0000 0.34290  0.00310  0.22993  Biso   1.000  C
  C83      1.0000 0.34010  0.92420  0.26463  Biso   1.000  C
  H52      1.0000 0.37860  0.93890  0.30330  Biso   1.000  H
  C84      1.0000 0.27960  0.82210  0.24196  Biso   1.000  C
  C85      1.0000 0.21940  0.80170  0.18423  Biso   1.000  C
  H53      1.0000 0.17840  0.73410  0.16870  Biso   1.000  H
  C86      1.0000 0.19410  0.55860  0.30579  Biso   1.000  C
  H54      1.0000 0.13600  0.49270  0.30040  Biso   1.000  H
  C87      1.0000 0.19360  0.63690  0.27148  Biso   1.000  C
  H55      1.0000 0.13490  0.62300  0.24360  Biso   1.000  H
  C88      1.0000 0.28040  0.73750  0.27792  Biso   1.000  C
  C89      1.0000 0.36630  0.75410  0.32071  Biso   1.000  C
  H56      1.0000 0.42490  0.81950  0.32630  Biso   1.000  H
  C90      1.0000 0.36570  0.67460  0.35520  Biso   1.000  C
  H57      1.0000 0.42370  0.68720  0.38340  Biso   1.000  H
  C91      1.0000 0.49647  0.15321  0.27251  Biso   1.000  C
  C92      1.0000 0.57825  0.15547  0.24024  Biso   1.000  C
  H58      1.0000 0.56190  0.11170  0.20550  Biso   1.000  H
  C93      1.0000 0.68447  0.22311  0.25995  Biso   1.000  C
  C94      1.0000 0.70891  0.28849  0.31192  Biso   1.000  C
  H59      1.0000 0.78000  0.33370  0.32510  Biso   1.000  H
  C95      1.0000 0.62713  0.28623  0.34419  Biso   1.000  C
  C96      1.0000 0.52091  0.21860  0.32448  Biso   1.000  C
  H60      1.0000 0.46620  0.21710  0.34610  Biso   1.000  H
  C97      1.0000 0.94860  0.31530  0.19054  Biso   1.000  C
  H61      1.0000 0.01200  0.37630  0.18830  Biso   1.000  H
  C98      1.0000 0.86760  0.31560  0.22217  Biso   1.000  C
  H62      1.0000 0.87710  0.37630  0.24130  Biso   1.000  H
  C99      1.0000 0.77170  0.22470  0.22530  Biso   1.000  C
  C100     1.0000 0.76100  0.13740  0.19642  Biso   1.000  C
  H63      1.0000 0.69700  0.07660  0.19700  Biso   1.000  H
  C101     1.0000 0.84390  0.13750  0.16617  Biso   1.000  C
  H64      1.0000 0.83570  0.07640  0.14840  Biso   1.000  H
  C102     1.0000 0.59130  0.41770  0.48540  Biso   1.000  C
  H65      1.0000 0.53570  0.41940  0.50440  Biso   1.000  H
  C103     1.0000 0.56950  0.36250  0.43570  Biso   1.000  C
  H66      1.0000 0.49840  0.32610  0.41950  Biso   1.000  H
  C104     1.0000 0.65320  0.35370  0.40219  Biso   1.000  C
  C105     1.0000 0.75810  0.41540  0.43060  Biso   1.000  C
  H67      1.0000 0.81540  0.41560  0.41250  Biso   1.000  H
  C106     1.0000 0.77880  0.47540  0.48430  Biso   1.000  C
  H68      1.0000 0.84870  0.51580  0.50160  Biso   1.000  H
  C107     1.0000 0.94620  0.93290  0.80347  Biso   1.000  C
  C108     1.0000 0.98440  0.04430  0.78784  Biso   1.000  C
  C109     1.0000 0.95650  0.06790  0.72950  Biso   1.000  C
  H69      1.0000 0.91330  0.01520  0.70030  Biso   1.000  H
  C110     1.0000 0.99280  0.16900  0.71500  Biso   1.000  C
  H70      1.0000 0.97380  0.18400  0.67590  Biso   1.000  H
  C111     1.0000 0.05720  0.24860  0.75780  Biso   1.000  C
  C112     1.0000 0.08400  0.22440  0.81660  Biso   1.000  C
  H71      1.0000 0.12570  0.27690  0.84610  Biso   1.000  H
  C113     1.0000 0.04890  0.12300  0.83100  Biso   1.000  C
  H72      1.0000 0.06880  0.10760  0.86970  Biso   1.000  H
  C114     1.0000 0.23840  0.41480  0.72110  Biso   1.000  C
  C115     1.0000 0.25030  0.37010  0.66770  Biso   1.000  C
  H73      1.0000 0.19050  0.31940  0.64450  Biso   1.000  H
  C116     1.0000 0.35390  0.40230  0.64900  Biso   1.000  C
  H74      1.0000 0.36310  0.37060  0.61450  Biso   1.000  H
  C117     1.0000 0.44140  0.48140  0.68226  Biso   1.000  C
  C118     1.0000 0.42830  0.52660  0.73531  Biso   1.000  C
  H75      1.0000 0.48750  0.57920  0.75780  Biso   1.000  H
  C119     1.0000 0.32480  0.49220  0.75470  Biso   1.000  C
  H76      1.0000 0.31540  0.52190  0.79010  Biso   1.000  H
  C120     1.0000 0.55070  0.51640  0.66047  Biso   1.000  C
  C121     1.0000 0.06780  0.30940  0.35805  Biso   1.000  C
  C122     1.0000 0.95690  0.24140  0.37283  Biso   1.000  C
  C123     1.0000 0.91890  0.26840  0.42393  Biso   1.000  C
  H77      1.0000 0.96300  0.32900  0.44730  Biso   1.000  H
  C124     1.0000 0.81530  0.20460  0.43990  Biso   1.000  C
  H78      1.0000 0.78950  0.22230  0.47350  Biso   1.000  H
  C125     1.0000 0.75150  0.11420  0.40460  Biso   1.000  C
  C126     1.0000 0.78770  0.08830  0.35306  Biso   1.000  C
  H79      1.0000 0.74350  0.02840  0.32910  Biso   1.000  H
  C127     1.0000 0.88980  0.15250  0.33796  Biso   1.000  C
  H80      1.0000 0.91420  0.13550  0.30340  Biso   1.000  H
  C128     1.0000 0.64600  0.95060  0.47876  Biso   1.000  C
  C129     1.0000 0.67360  0.97650  0.54060  Biso   1.000  C
  H81      1.0000 0.67420  0.03510  0.55720  Biso   1.000  H
  C130     1.0000 0.70020  0.91680  0.57835  Biso   1.000  C
  H82      1.0000 0.71890  0.93490  0.62040  Biso   1.000  H
  C131     1.0000 0.69960  0.82900  0.55420  Biso   1.000  C
  C132     1.0000 0.67070  0.80160  0.49053  Biso   1.000  C
  H83      1.0000 0.66950  0.74280  0.47390  Biso   1.000  H
  C133     1.0000 0.64420  0.86380  0.45287  Biso   1.000  C
  H84      1.0000 0.62540  0.84710  0.41070  Biso   1.000  H
  C134     1.0000 0.72380  0.75880  0.59452  Biso   1.000  C
  C135     1.0000 0.80020  0.59050  0.85225  Biso   1.000  C
  C136     1.0000 0.71080  0.47990  0.84614  Biso   1.000  C
  C137     1.0000 0.72080  0.40640  0.88050  Biso   1.000  C
  H85      1.0000 0.78180  0.42450  0.90740  Biso   1.000  H
  C138     1.0000 0.63940  0.30470  0.87500  Biso   1.000  C
  H86      1.0000 0.64590  0.25430  0.89750  Biso   1.000  H
  C139     1.0000 0.54710  0.27940  0.83473  Biso   1.000  C
  C140     1.0000 0.53940  0.35430  0.80047  Biso   1.000  C
  H87      1.0000 0.47960  0.33640  0.77270  Biso   1.000  H
  C141     1.0000 0.61870  0.45500  0.80679  Biso   1.000  C
  H88      1.0000 0.61110  0.50570  0.78520  Biso   1.000  H
  C142     1.0000 0.37310  0.15760  0.89620  Biso   1.000  C
  C143     1.0000 0.39430  0.12160  0.95160  Biso   1.000  C
  H89      1.0000 0.43690  0.08940  0.95350  Biso   1.000  H
  C144     1.0000 0.35090  0.13440  0.00440  Biso   1.000  C
  H90      1.0000 0.36450  0.11020  0.04170  Biso   1.000  H
  C145     1.0000 0.28820  0.18240  0.00197  Biso   1.000  C
  C146     1.0000 0.26520  0.21570  0.94660  Biso   1.000  C
  H91      1.0000 0.22060  0.24570  0.94470  Biso   1.000  H
  C147     1.0000 0.30850  0.20460  0.89337  Biso   1.000  C
  H92      1.0000 0.29420  0.22850  0.85620  Biso   1.000  H
  C148     1.0000 0.24310  0.19780  0.05971  Biso   1.000  C
  Co4      1.0000 0.93745  0.77575  0.88760  Biso   1.000  Co
  Co5      1.0000 0.71375  0.54618  0.60029  Biso   1.000  Co
  Co6      1.0000 0.77849  0.72000  0.72892  Biso   1.000  Co
  N5       1.0000 0.04390  0.81980  0.97039  Biso   1.000  N
  N6       1.0000 0.27900  0.57680  0.34756  Biso   1.000  N
  N7       1.0000 0.93710  0.22660  0.16244  Biso   1.000  N
  N8       1.0000 0.69350  0.47430  0.51173  Biso   1.000  N
  O20      1.0000 0.38630  0.10210  0.25506  Biso   1.000  O
  O21      1.0000 0.97190  0.91650  0.85723  Biso   1.000  O
  O22      1.0000 0.89840  0.86714  0.76133  Biso   1.000  O
  O23      1.0000 0.11460  0.43670  0.79316  Biso   1.000  O
  O24      1.0000 0.04550  0.38150  0.68457  Biso   1.000  O
  O25      1.0000 0.63466  0.57651  0.69207  Biso   1.000  O
  O26      1.0000 0.55140  0.48000  0.60810  Biso   1.000  O
  O27      1.0000 0.86820  0.61633  0.89957  Biso   1.000  O
  O28      1.0000 0.80354  0.65656  0.81631  Biso   1.000  O
  O29      1.0000 0.48340  0.08260  0.84388  Biso   1.000  O
  O30      1.0000 0.37170  0.14060  0.77552  Biso   1.000  O
  O31      1.0000 0.28740  0.18820  0.10943  Biso   1.000  O
  O32      1.0000 0.17230  0.22540  0.05361  Biso   1.000  O
  O33      1.0000 0.74730  0.78552  0.65088  Biso   1.000  O
  O34      1.0000 0.71360  0.67711  0.56981  Biso   1.000  O
  O35      1.0000 0.59250  0.09780  0.46591  Biso   1.000  O
  O36      1.0000 0.55580  0.97420  0.37436  Biso   1.000  O
  O37      1.0000 0.12560  0.38300  0.39776  Biso   1.000  O
  O38      1.0000 0.09967  0.29268  0.30906  Biso   1.000  O
  S4       1.0000 0.10631  0.37699  0.74021  Biso   1.000  S
  S5       1.0000 0.62161  0.03484  0.42898  Biso   1.000  S
  S6       1.0000 0.43980  0.15466  0.83158  Biso   1.000  S
