data_image0
_cell_length_a       14.0905
_cell_length_b       14.6762
_cell_length_c       21.5858
_cell_angle_alpha    89.937
_cell_angle_beta     85.402
_cell_angle_gamma    61.994

_symmetry_space_group_name_H-M    "P 1"
_symmetry_int_tables_number       1

loop_
  _symmetry_equiv_pos_as_xyz
  'x, y, z'

loop_
  _atom_site_label
  _atom_site_occupancy
  _atom_site_fract_x
  _atom_site_fract_y
  _atom_site_fract_z
  _atom_site_thermal_displace_type
  _atom_site_B_iso_or_equiv
  _atom_site_type_symbol
  C1       1.0000 0.22130  0.32400  0.74423  Biso   1.000  C
  C2       1.0000 0.15990  0.42650  0.76459  Biso   1.000  C
  H1       1.0000 0.11730  0.44280  0.80230  Biso   1.000  H
  C3       1.0000 0.16140  0.50360  0.72967  Biso   1.000  C
  C4       1.0000 0.22080  0.48450  0.67292  Biso   1.000  C
  H2       1.0000 0.21940  0.53870  0.65000  Biso   1.000  H
  C5       1.0000 0.28210  0.38430  0.65076  Biso   1.000  C
  C6       1.0000 0.28150  0.30330  0.68723  Biso   1.000  C
  H3       1.0000 0.32240  0.23520  0.67240  Biso   1.000  H
  C7       1.0000 0.13910  0.17390  0.85852  Biso   1.000  C
  H4       1.0000 0.08040  0.18680  0.88670  Biso   1.000  H
  C8       1.0000 0.13820  0.25640  0.82499  Biso   1.000  C
  H5       1.0000 0.08100  0.32270  0.83240  Biso   1.000  H
  C9       1.0000 0.22230  0.23890  0.78109  Biso   1.000  C
  C10      1.0000 0.30510  0.14020  0.77373  Biso   1.000  C
  H6       1.0000 0.36440  0.12490  0.74530  Biso   1.000  H
  C11      1.0000 0.30020  0.06320  0.80888  Biso   1.000  C
  H7       1.0000 0.35680  0.99650  0.80200  Biso   1.000  H
  C12      1.0000 0.43380  0.25120  0.49771  Biso   1.000  C
  H8       1.0000 0.45040  0.19030  0.47580  Biso   1.000  H
  C13      1.0000 0.37800  0.26920  0.55491  Biso   1.000  C
  H9       1.0000 0.36220  0.21860  0.57120  Biso   1.000  H
  C14      1.0000 0.34490  0.35840  0.58858  Biso   1.000  C
  C15      1.0000 0.37530  0.42630  0.56153  Biso   1.000  C
  H10      1.0000 0.36060  0.48660  0.58350  Biso   1.000  H
  C16      1.0000 0.42760  0.40680  0.50197  Biso   1.000  C
  H11      1.0000 0.43660  0.45900  0.48240  Biso   1.000  H
  C17      1.0000 0.00360  0.65680  0.77150  Biso   1.000  C
  C18      1.0000 0.97750  0.72200  0.82363  Biso   1.000  C
  H12      1.0000 0.03160  0.72090  0.84610  Biso   1.000  H
  C19      1.0000 0.86990  0.78890  0.84189  Biso   1.000  C
  C20      1.0000 0.78850  0.79300  0.80811  Biso   1.000  C
  H13      1.0000 0.71680  0.83980  0.81990  Biso   1.000  H
  C21      1.0000 0.81520  0.72640  0.75646  Biso   1.000  C
  C22      1.0000 0.92320  0.65880  0.73767  Biso   1.000  C
  H14      1.0000 0.94100  0.61520  0.70260  Biso   1.000  H
  C23      1.0000 0.55320  0.81620  0.68715  Biso   1.000  C
  H15      1.0000 0.48950  0.87780  0.68590  Biso   1.000  H
  C24      1.0000 0.63210  0.81840  0.71703  Biso   1.000  C
  H16      1.0000 0.62120  0.88010  0.73560  Biso   1.000  H
  C25      1.0000 0.72900  0.73030  0.72052  Biso   1.000  C
  C26      1.0000 0.73530  0.64170  0.69368  Biso   1.000  C
  H17      1.0000 0.79680  0.57880  0.69660  Biso   1.000  H
  C27      1.0000 0.65230  0.64530  0.66296  Biso   1.000  C
  H18      1.0000 0.66120  0.58460  0.64400  Biso   1.000  H
  C28      1.0000 0.90430  0.92190  0.98080  Biso   1.000  C
  H19      1.0000 0.96200  0.92240  0.99880  Biso   1.000  H
  C29      1.0000 0.92360  0.86890  0.92874  Biso   1.000  C
  H20      1.0000 0.99370  0.83760  0.90960  Biso   1.000  H
  C30      1.0000 0.84430  0.85650  0.90010  Biso   1.000  C
  C31      1.0000 0.74060  0.91900  0.92655  Biso   1.000  C
  H21      1.0000 0.68130  0.92250  0.90840  Biso   1.000  H
  C32      1.0000 0.72650  0.97640  0.98089  Biso   1.000  C
  H22      1.0000 0.65610  0.01820  0.99790  Biso   1.000  H
  C33      1.0000 0.55550  0.42900  0.30333  Biso   1.000  C
  C34      1.0000 0.51720  0.53890  0.28611  Biso   1.000  C
  C35      1.0000 0.45000  0.61830  0.33003  Biso   1.000  C
  H23      1.0000 0.42850  0.60310  0.36880  Biso   1.000  H
  C36      1.0000 0.41680  0.71920  0.31427  Biso   1.000  C
  H24      1.0000 0.37400  0.77270  0.34320  Biso   1.000  H
  C37      1.0000 0.44580  0.74150  0.25716  Biso   1.000  C
  C38      1.0000 0.51410  0.66340  0.21301  Biso   1.000  C
  H25      1.0000 0.53420  0.67940  0.17410  Biso   1.000  H
  C39      1.0000 0.55100  0.56090  0.22920  Biso   1.000  C
  H26      1.0000 0.59860  0.50750  0.20150  Biso   1.000  H
  C40      1.0000 0.26530  0.90960  0.21765  Biso   1.000  C
  C41      1.0000 0.17640  0.98640  0.25316  Biso   1.000  C
  H27      1.0000 0.18600  0.01520  0.28900  Biso   1.000  H
  C42      1.0000 0.07380  0.01940  0.23462  Biso   1.000  C
  H28      1.0000 0.01440  0.07110  0.25780  Biso   1.000  H
  C43      1.0000 0.05920  0.97580  0.18166  Biso   1.000  C
  C44      1.0000 0.14790  0.89960  0.14639  Biso   1.000  C
  H29      1.0000 0.13820  0.87100  0.11060  Biso   1.000  H
  C45      1.0000 0.25150  0.86590  0.16457  Biso   1.000  C
  H30      1.0000 0.31090  0.81430  0.14120  Biso   1.000  H
  C46      1.0000 0.95170  0.01200  0.15897  Biso   1.000  C
  C47      1.0000 0.70450  0.08560  0.35425  Biso   1.000  C
  C48      1.0000 0.78590  0.97580  0.34712  Biso   1.000  C
  C49      1.0000 0.77440  0.90330  0.38355  Biso   1.000  C
  H31      1.0000 0.71310  0.92350  0.41110  Biso   1.000  H
  C50      1.0000 0.85410  0.80000  0.37916  Biso   1.000  C
  H32      1.0000 0.84590  0.75130  0.40340  Biso   1.000  H
  C51      1.0000 0.94600  0.77060  0.33821  Biso   1.000  C
  C52      1.0000 0.95860  0.84220  0.30185  Biso   1.000  C
  H33      1.0000 0.02040  0.82180  0.27470  Biso   1.000  H
  C53      1.0000 0.87840  0.94520  0.30586  Biso   1.000  C
  H34      1.0000 0.88650  0.99350  0.28110  Biso   1.000  H
  C54      1.0000 0.11850  0.64980  0.40174  Biso   1.000  C
  C55      1.0000 0.09290  0.62110  0.45809  Biso   1.000  C
  H35      1.0000 0.05000  0.58850  0.46220  Biso   1.000  H
  C56      1.0000 0.13390  0.64280  0.50882  Biso   1.000  C
  H36      1.0000 0.11260  0.62860  0.54800  Biso   1.000  H
  C57      1.0000 0.20160  0.68270  0.50563  Biso   1.000  C
  C58      1.0000 0.23200  0.70710  0.44652  Biso   1.000  C
  H37      1.0000 0.27980  0.73430  0.44250  Biso   1.000  H
  C59      1.0000 0.18980  0.69020  0.39448  Biso   1.000  C
  H38      1.0000 0.20910  0.70580  0.35520  Biso   1.000  H
  C60      1.0000 0.24780  0.70290  0.56220  Biso   1.000  C
  C61      1.0000 0.78050  0.25640  0.09415  Biso   1.000  C
  C62      1.0000 0.80140  0.32830  0.05279  Biso   1.000  C
  C63      1.0000 0.79970  0.41780  0.07951  Biso   1.000  C
  H39      1.0000 0.78000  0.43400  0.12180  Biso   1.000  H
  C64      1.0000 0.82680  0.47980  0.04332  Biso   1.000  C
  H40      1.0000 0.82900  0.53650  0.06100  Biso   1.000  H
  C65      1.0000 0.85100  0.45740  0.98033  Biso   1.000  C
  C66      1.0000 0.85780  0.36800  0.95344  Biso   1.000  C
  H41      1.0000 0.87910  0.35140  0.91130  Biso   1.000  H
  C67      1.0000 0.83210  0.30470  0.99058  Biso   1.000  C
  H42      1.0000 0.83570  0.24520  0.97310  Biso   1.000  H
  C68      1.0000 0.75060  0.62040  0.90709  Biso   1.000  C
  C69      1.0000 0.68440  0.70710  0.94249  Biso   1.000  C
  H43      1.0000 0.70790  0.72410  0.97760  Biso   1.000  H
  C70      1.0000 0.58020  0.77030  0.92544  Biso   1.000  C
  H44      1.0000 0.53490  0.83030  0.94910  Biso   1.000  H
  C71      1.0000 0.54420  0.74500  0.87441  Biso   1.000  C
  C72      1.0000 0.61320  0.65650  0.83773  Biso   1.000  C
  H45      1.0000 0.59010  0.64050  0.80210  Biso   1.000  H
  C73      1.0000 0.71620  0.59240  0.85474  Biso   1.000  C
  H46      1.0000 0.76170  0.53170  0.83170  Biso   1.000  H
  C74      1.0000 0.43010  0.81260  0.85781  Biso   1.000  C
  N1       1.0000 0.22060  0.07790  0.85163  Biso   1.000  N
  N2       1.0000 0.46570  0.31420  0.47164  Biso   1.000  N
  N3       1.0000 0.55890  0.73160  0.65875  Biso   1.000  N
  N4       1.0000 0.80400  0.97630  0.00978  Biso   1.000  N
  Ni1      1.0000 0.78772  0.04531  0.09797  Biso   1.000  Ni
  Ni2      1.0000 0.72372  0.21476  0.22851  Biso   1.000  Ni
  O1       1.0000 0.11147  0.60477  0.75252  Biso   1.000  O
  O2       1.0000 0.53115  0.41132  0.35707  Biso   1.000  O
  O3       1.0000 0.60823  0.36150  0.26063  Biso   1.000  O
  O4       1.0000 0.38930  0.93125  0.29269  Biso   1.000  O
  O5       1.0000 0.45840  0.87714  0.18270  Biso   1.000  O
  O6       1.0000 0.86463  0.07386  0.18976  Biso   1.000  O
  O7       1.0000 0.95048  0.97531  0.10642  Biso   1.000  O
  O8       1.0000 0.63780  0.11279  0.39938  Biso   1.000  O
  O9       1.0000 0.69445  0.15443  0.31743  Biso   1.000  O
  O10      1.0000 0.00690  0.57523  0.35085  Biso   1.000  O
  O11      1.0000 0.12470  0.62610  0.28055  Biso   1.000  O
  O12      1.0000 0.20580  0.69460  0.61281  Biso   1.000  O
  Ni3      1.0000 0.56837  0.27120  0.38901  Biso   1.000  Ni
  O13      1.0000 0.32286  0.72475  0.55333  Biso   1.000  O
  O14      1.0000 0.75460  0.28352  0.15087  Biso   1.000  O
  O15      1.0000 0.78725  0.17809  0.06868  Biso   1.000  O
  O16      1.0000 0.90566  0.60375  0.97010  Biso   1.000  O
  O17      1.0000 0.95016  0.48152  0.87952  Biso   1.000  O
  O18      1.0000 0.37289  0.88368  0.89888  Biso   1.000  O
  O19      1.0000 0.40129  0.79341  0.80691  Biso   1.000  O
  S1       1.0000 0.39736  0.87228  0.23730  Biso   1.000  S
  S2       1.0000 0.05218  0.64455  0.33661  Biso   1.000  S
  S3       1.0000 0.87906  0.54160  0.93225  Biso   1.000  S
  C75      1.0000 0.77870  0.67600  0.25577  Biso   1.000  C
  C76      1.0000 0.84010  0.57350  0.23541  Biso   1.000  C
  H47      1.0000 0.88270  0.55720  0.19770  Biso   1.000  H
  C77      1.0000 0.83860  0.49640  0.27033  Biso   1.000  C
  C78      1.0000 0.77920  0.51550  0.32708  Biso   1.000  C
  H48      1.0000 0.78060  0.46130  0.35000  Biso   1.000  H
  C79      1.0000 0.71790  0.61570  0.34924  Biso   1.000  C
  C80      1.0000 0.71850  0.69670  0.31277  Biso   1.000  C
  H49      1.0000 0.67760  0.76480  0.32760  Biso   1.000  H
  C81      1.0000 0.86090  0.82610  0.14148  Biso   1.000  C
  H50      1.0000 0.91960  0.81320  0.11330  Biso   1.000  H
  C82      1.0000 0.86180  0.74360  0.17501  Biso   1.000  C
  H51      1.0000 0.91900  0.67730  0.16760  Biso   1.000  H
  C83      1.0000 0.77770  0.76110  0.21891  Biso   1.000  C
  C84      1.0000 0.69490  0.85980  0.22627  Biso   1.000  C
  H52      1.0000 0.63560  0.87510  0.25470  Biso   1.000  H
  C85      1.0000 0.69980  0.93680  0.19112  Biso   1.000  C
  H53      1.0000 0.64320  0.00350  0.19800  Biso   1.000  H
  C86      1.0000 0.56620  0.74880  0.50229  Biso   1.000  C
  H54      1.0000 0.54960  0.80970  0.52420  Biso   1.000  H
  C87      1.0000 0.62200  0.73080  0.44509  Biso   1.000  C
  H55      1.0000 0.63780  0.78140  0.42880  Biso   1.000  H
  C88      1.0000 0.65510  0.64160  0.41142  Biso   1.000  C
  C89      1.0000 0.62470  0.57370  0.43847  Biso   1.000  C
  H56      1.0000 0.63940  0.51340  0.41650  Biso   1.000  H
  C90      1.0000 0.57240  0.59320  0.49803  Biso   1.000  C
  H57      1.0000 0.56340  0.54100  0.51760  Biso   1.000  H
  C91      1.0000 0.99640  0.34320  0.22850  Biso   1.000  C
  C92      1.0000 0.02250  0.27800  0.17637  Biso   1.000  C
  H58      1.0000 0.96840  0.27910  0.15390  Biso   1.000  H
  C93      1.0000 0.13010  0.21110  0.15811  Biso   1.000  C
  C94      1.0000 0.21150  0.20700  0.19189  Biso   1.000  C
  H59      1.0000 0.28320  0.16020  0.18010  Biso   1.000  H
  C95      1.0000 0.18480  0.27360  0.24354  Biso   1.000  C
  C96      1.0000 0.07680  0.34120  0.26233  Biso   1.000  C
  H60      1.0000 0.05900  0.38480  0.29740  Biso   1.000  H
  C97      1.0000 0.44680  0.18380  0.31285  Biso   1.000  C
  H61      1.0000 0.51050  0.12220  0.31410  Biso   1.000  H
  C98      1.0000 0.36790  0.18160  0.28297  Biso   1.000  C
  H62      1.0000 0.37880  0.11990  0.26440  Biso   1.000  H
  C99      1.0000 0.27100  0.26970  0.27948  Biso   1.000  C
  C100     1.0000 0.26470  0.35830  0.30632  Biso   1.000  C
  H63      1.0000 0.20320  0.42120  0.30340  Biso   1.000  H
  C101     1.0000 0.34770  0.35470  0.33704  Biso   1.000  C
  H64      1.0000 0.33880  0.41540  0.35600  Biso   1.000  H
  C102     1.0000 0.09570  0.07810  0.01920  Biso   1.000  C
  H65      1.0000 0.03800  0.07760  0.00120  Biso   1.000  H
  C103     1.0000 0.07640  0.13110  0.07126  Biso   1.000  C
  H66      1.0000 0.00630  0.16240  0.09040  Biso   1.000  H
  C104     1.0000 0.15570  0.14350  0.09990  Biso   1.000  C
  C105     1.0000 0.25940  0.08100  0.07345  Biso   1.000  C
  H67      1.0000 0.31870  0.07750  0.09160  Biso   1.000  H
  C106     1.0000 0.27350  0.02360  0.01911  Biso   1.000  C
  H68      1.0000 0.34390  0.98180  0.00210  Biso   1.000  H
  C107     1.0000 0.44450  0.57100  0.69667  Biso   1.000  C
  C108     1.0000 0.48280  0.46110  0.71389  Biso   1.000  C
  C109     1.0000 0.55000  0.38170  0.66997  Biso   1.000  C
  H69      1.0000 0.57150  0.39690  0.63120  Biso   1.000  H
  C110     1.0000 0.58320  0.28080  0.68573  Biso   1.000  C
  H70      1.0000 0.62600  0.22730  0.65680  Biso   1.000  H
  C111     1.0000 0.55420  0.25850  0.74284  Biso   1.000  C
  C112     1.0000 0.48590  0.33660  0.78699  Biso   1.000  C
  H71      1.0000 0.46580  0.32060  0.82590  Biso   1.000  H
  C113     1.0000 0.44900  0.43910  0.77080  Biso   1.000  C
  H72      1.0000 0.40140  0.49250  0.79850  Biso   1.000  H
  C114     1.0000 0.73470  0.09040  0.78235  Biso   1.000  C
  C115     1.0000 0.82360  0.01360  0.74684  Biso   1.000  C
  H73      1.0000 0.81400  0.98480  0.71100  Biso   1.000  H
  C116     1.0000 0.92620  0.98060  0.76538  Biso   1.000  C
  H74      1.0000 0.98560  0.92890  0.74220  Biso   1.000  H
  C117     1.0000 0.94080  0.02420  0.81834  Biso   1.000  C
  C118     1.0000 0.85210  0.10040  0.85361  Biso   1.000  C
  H75      1.0000 0.86180  0.12900  0.88940  Biso   1.000  H
  C119     1.0000 0.74850  0.13410  0.83543  Biso   1.000  C
  H76      1.0000 0.68910  0.18570  0.85880  Biso   1.000  H
  C120     1.0000 0.04830  0.98800  0.84103  Biso   1.000  C
  C121     1.0000 0.29550  0.91440  0.64575  Biso   1.000  C
  C122     1.0000 0.21410  0.02420  0.65288  Biso   1.000  C
  C123     1.0000 0.22560  0.09670  0.61645  Biso   1.000  C
  H77      1.0000 0.28690  0.07650  0.58890  Biso   1.000  H
  C124     1.0000 0.14590  0.20000  0.62084  Biso   1.000  C
  H78      1.0000 0.15410  0.24870  0.59660  Biso   1.000  H
  C125     1.0000 0.05400  0.22940  0.66179  Biso   1.000  C
  C126     1.0000 0.04140  0.15780  0.69815  Biso   1.000  C
  H79      1.0000 0.97960  0.17820  0.72530  Biso   1.000  H
  C127     1.0000 0.12160  0.05480  0.69414  Biso   1.000  C
  H80      1.0000 0.11350  0.00650  0.71890  Biso   1.000  H
  C128     1.0000 0.88150  0.35020  0.59826  Biso   1.000  C
  C129     1.0000 0.90710  0.37890  0.54191  Biso   1.000  C
  H81      1.0000 0.95000  0.41150  0.53780  Biso   1.000  H
  C130     1.0000 0.86610  0.35720  0.49118  Biso   1.000  C
  H82      1.0000 0.88740  0.37140  0.45200  Biso   1.000  H
  C131     1.0000 0.79840  0.31730  0.49437  Biso   1.000  C
  C132     1.0000 0.76800  0.29290  0.55348  Biso   1.000  C
  H83      1.0000 0.72020  0.26570  0.55750  Biso   1.000  H
  C133     1.0000 0.81020  0.30980  0.60552  Biso   1.000  C
  H84      1.0000 0.79090  0.29420  0.64480  Biso   1.000  H
  C134     1.0000 0.75220  0.29710  0.43780  Biso   1.000  C
  C135     1.0000 0.21950  0.74360  0.90585  Biso   1.000  C
  C136     1.0000 0.19860  0.67170  0.94721  Biso   1.000  C
  C137     1.0000 0.20030  0.58220  0.92049  Biso   1.000  C
  H85      1.0000 0.22000  0.56600  0.87820  Biso   1.000  H
  C138     1.0000 0.17320  0.52020  0.95668  Biso   1.000  C
  H86      1.0000 0.17100  0.46350  0.93900  Biso   1.000  H
  C139     1.0000 0.14900  0.54260  0.01967  Biso   1.000  C
  C140     1.0000 0.14220  0.63200  0.04656  Biso   1.000  C
  H87      1.0000 0.12090  0.64860  0.08870  Biso   1.000  H
  C141     1.0000 0.16790  0.69530  0.00942  Biso   1.000  C
  H88      1.0000 0.16430  0.75480  0.02690  Biso   1.000  H
  C142     1.0000 0.24940  0.37960  0.09291  Biso   1.000  C
  C143     1.0000 0.31560  0.29290  0.05751  Biso   1.000  C
  H89      1.0000 0.29210  0.27590  0.02240  Biso   1.000  H
  C144     1.0000 0.41980  0.22970  0.07456  Biso   1.000  C
  H90      1.0000 0.46510  0.16970  0.05090  Biso   1.000  H
  C145     1.0000 0.45580  0.25500  0.12559  Biso   1.000  C
  C146     1.0000 0.38680  0.34350  0.16227  Biso   1.000  C
  H91      1.0000 0.40990  0.35950  0.19790  Biso   1.000  H
  C147     1.0000 0.28380  0.40760  0.14526  Biso   1.000  C
  H92      1.0000 0.23830  0.46830  0.16830  Biso   1.000  H
  C148     1.0000 0.56990  0.18740  0.14219  Biso   1.000  C
  N5       1.0000 0.77940  0.92210  0.14837  Biso   1.000  N
  N6       1.0000 0.53430  0.68580  0.52836  Biso   1.000  N
  N7       1.0000 0.44110  0.26840  0.34125  Biso   1.000  N
  N8       1.0000 0.19600  0.02370  0.99022  Biso   1.000  N
  Ni4      1.0000 0.21228  0.95469  0.90203  Biso   1.000  Ni
  Ni5      1.0000 0.27628  0.78524  0.77149  Biso   1.000  Ni
  O20      1.0000 0.88853  0.39523  0.24748  Biso   1.000  O
  O21      1.0000 0.46885  0.58868  0.64293  Biso   1.000  O
  O22      1.0000 0.39177  0.63850  0.73937  Biso   1.000  O
  O23      1.0000 0.61070  0.06875  0.70731  Biso   1.000  O
  O24      1.0000 0.54160  0.12286  0.81730  Biso   1.000  O
  O25      1.0000 0.13537  0.92614  0.81024  Biso   1.000  O
  O26      1.0000 0.04952  0.02469  0.89358  Biso   1.000  O
  O27      1.0000 0.36220  0.88721  0.60062  Biso   1.000  O
  O28      1.0000 0.30555  0.84557  0.68257  Biso   1.000  O
  O29      1.0000 0.99310  0.42477  0.64915  Biso   1.000  O
  O30      1.0000 0.87530  0.37390  0.71945  Biso   1.000  O
  O31      1.0000 0.79420  0.30540  0.38719  Biso   1.000  O
  Ni6      1.0000 0.43163  0.72880  0.61099  Biso   1.000  Ni
  O32      1.0000 0.67714  0.27525  0.44667  Biso   1.000  O
  O33      1.0000 0.24540  0.71648  0.84913  Biso   1.000  O
  O34      1.0000 0.21275  0.82191  0.93132  Biso   1.000  O
  O35      1.0000 0.09434  0.39625  0.02990  Biso   1.000  O
  O36      1.0000 0.04984  0.51848  0.12048  Biso   1.000  O
  O37      1.0000 0.62711  0.11632  0.10112  Biso   1.000  O
  O38      1.0000 0.59871  0.20659  0.19309  Biso   1.000  O
  S4       1.0000 0.60264  0.12772  0.76270  Biso   1.000  S
  S5       1.0000 0.94782  0.35545  0.66339  Biso   1.000  S
  S6       1.0000 0.12094  0.45840  0.06775  Biso   1.000  S
