data_image0
_cell_length_a       8.6191
_cell_length_b       17.8031
_cell_length_c       9.0257
_cell_angle_alpha    90
_cell_angle_beta     107.357
_cell_angle_gamma    90

_symmetry_space_group_name_H-M    "P 1"
_symmetry_int_tables_number       1

loop_
  _symmetry_equiv_pos_as_xyz
  'x, y, z'

loop_
  _atom_site_label
  _atom_site_occupancy
  _atom_site_fract_x
  _atom_site_fract_y
  _atom_site_fract_z
  _atom_site_thermal_displace_type
  _atom_site_B_iso_or_equiv
  _atom_site_type_symbol
  P1       1.0000 0.34760  0.42755  0.36100  Biso   1.000  P
  P2       1.0000 0.80689  0.29217  0.47431  Biso   1.000  P
  P3       1.0000 0.26634  0.16905  0.49610  Biso   1.000  P
  Al1      1.0000 0.07720  0.29557  0.28743  Biso   1.000  Al
  Al2      1.0000 0.13704  0.10962  0.16094  Biso   1.000  Al
  Al3      1.0000 0.02365  0.17754  0.69316  Biso   1.000  Al
  O1       1.0000 0.04480  0.20608  0.17950  Biso   1.000  O
  H1       1.0000 0.00000  0.21430  0.08720  Biso   1.000  H
  O2       1.0000 0.19310  0.38098  0.30840  Biso   1.000  O
  O3       1.0000 0.24660  0.25081  0.43840  Biso   1.000  O
  O4       1.0000 0.94570  0.30645  0.40750  Biso   1.000  O
  O5       1.0000 0.43270  0.15892  0.61320  Biso   1.000  O
  O6       1.0000 0.46150  0.40524  0.26320  Biso   1.000  O
  O7       1.0000 0.84940  0.22697  0.59160  Biso   1.000  O
  O8       1.0000 0.13230  0.14924  0.57060  Biso   1.000  O
  O9       1.0000 0.65090  0.26930  0.34530  Biso   1.000  O
  O10      1.0000 0.24890  0.11346  0.36320  Biso   1.000  O
  O11      1.0000 0.43750  0.41341  0.53190  Biso   1.000  O
  O12      1.0000 0.30080  0.50925  0.33240  Biso   1.000  O
  O13      1.0000 0.77320  0.36298  0.55330  Biso   1.000  O
  P4       1.0000 0.15240  0.92755  0.13900  Biso   1.000  P
  P5       1.0000 0.69311  0.79217  0.02569  Biso   1.000  P
  P6       1.0000 0.23366  0.66905  0.00390  Biso   1.000  P
  Al4      1.0000 0.42280  0.79557  0.21257  Biso   1.000  Al
  Al5      1.0000 0.36296  0.60962  0.33906  Biso   1.000  Al
  Al6      1.0000 0.47635  0.67754  0.80684  Biso   1.000  Al
  O14      1.0000 0.45520  0.70608  0.32050  Biso   1.000  O
  H2       1.0000 0.50000  0.71430  0.41280  Biso   1.000  H
  O15      1.0000 0.30690  0.88098  0.19160  Biso   1.000  O
  O16      1.0000 0.25340  0.75081  0.06160  Biso   1.000  O
  O17      1.0000 0.55430  0.80645  0.09250  Biso   1.000  O
  O18      1.0000 0.06730  0.65892  0.88680  Biso   1.000  O
  O19      1.0000 0.03850  0.90524  0.23680  Biso   1.000  O
  O20      1.0000 0.65060  0.72697  0.90840  Biso   1.000  O
  O21      1.0000 0.36770  0.64924  0.92940  Biso   1.000  O
  O22      1.0000 0.84910  0.76930  0.15470  Biso   1.000  O
  O23      1.0000 0.25110  0.61346  0.13680  Biso   1.000  O
  O24      1.0000 0.06250  0.91341  0.96810  Biso   1.000  O
  O25      1.0000 0.19920  0.00925  0.16760  Biso   1.000  O
  O26      1.0000 0.72680  0.86298  0.94670  Biso   1.000  O
  P7       1.0000 0.65240  0.57245  0.63900  Biso   1.000  P
  P8       1.0000 0.19311  0.70783  0.52569  Biso   1.000  P
  P9       1.0000 0.73366  0.83095  0.50390  Biso   1.000  P
  Al7      1.0000 0.92280  0.70443  0.71257  Biso   1.000  Al
  Al8      1.0000 0.86296  0.89038  0.83906  Biso   1.000  Al
  Al9      1.0000 0.97635  0.82246  0.30684  Biso   1.000  Al
  O27      1.0000 0.95520  0.79392  0.82050  Biso   1.000  O
  H3       1.0000 0.00000  0.78570  0.91280  Biso   1.000  H
  O28      1.0000 0.80690  0.61902  0.69160  Biso   1.000  O
  O29      1.0000 0.75340  0.74919  0.56160  Biso   1.000  O
  O30      1.0000 0.05430  0.69355  0.59250  Biso   1.000  O
  O31      1.0000 0.56730  0.84108  0.38680  Biso   1.000  O
  O32      1.0000 0.53850  0.59476  0.73680  Biso   1.000  O
  O33      1.0000 0.15060  0.77303  0.40840  Biso   1.000  O
  O34      1.0000 0.86770  0.85076  0.42940  Biso   1.000  O
  O35      1.0000 0.34910  0.73070  0.65470  Biso   1.000  O
  O36      1.0000 0.75110  0.88654  0.63680  Biso   1.000  O
  O37      1.0000 0.56250  0.58659  0.46810  Biso   1.000  O
  O38      1.0000 0.69920  0.49075  0.66760  Biso   1.000  O
  O39      1.0000 0.22680  0.63702  0.44670  Biso   1.000  O
  P10      1.0000 0.84760  0.07245  0.86100  Biso   1.000  P
  P11      1.0000 0.30689  0.20783  0.97431  Biso   1.000  P
  P12      1.0000 0.76634  0.33095  0.99610  Biso   1.000  P
  Al10     1.0000 0.57720  0.20443  0.78743  Biso   1.000  Al
  Al11     1.0000 0.63704  0.39038  0.66094  Biso   1.000  Al
  Al12     1.0000 0.52365  0.32246  0.19316  Biso   1.000  Al
  O40      1.0000 0.54480  0.29392  0.67950  Biso   1.000  O
  H4       1.0000 0.50000  0.28570  0.58720  Biso   1.000  H
  O41      1.0000 0.69310  0.11902  0.80840  Biso   1.000  O
  O42      1.0000 0.74660  0.24919  0.93840  Biso   1.000  O
  O43      1.0000 0.44570  0.19355  0.90750  Biso   1.000  O
  O44      1.0000 0.93270  0.34108  0.11320  Biso   1.000  O
  O45      1.0000 0.96150  0.09476  0.76320  Biso   1.000  O
  O46      1.0000 0.34940  0.27303  0.09160  Biso   1.000  O
  O47      1.0000 0.63230  0.35076  0.07060  Biso   1.000  O
  O48      1.0000 0.15090  0.23070  0.84530  Biso   1.000  O
  O49      1.0000 0.74890  0.38654  0.86320  Biso   1.000  O
  O50      1.0000 0.93750  0.08659  0.03190  Biso   1.000  O
  O51      1.0000 0.80080  0.99075  0.83240  Biso   1.000  O
  O52      1.0000 0.27320  0.13702  0.05330  Biso   1.000  O
