data_image0
_cell_length_a       14.733
_cell_length_b       13.079
_cell_length_c       15.21
_cell_angle_alpha    90
_cell_angle_beta     110.99
_cell_angle_gamma    90

_symmetry_space_group_name_H-M    "P 1"
_symmetry_int_tables_number       1

loop_
  _symmetry_equiv_pos_as_xyz
  'x, y, z'

loop_
  _atom_site_label
  _atom_site_occupancy
  _atom_site_fract_x
  _atom_site_fract_y
  _atom_site_fract_z
  _atom_site_thermal_displace_type
  _atom_site_B_iso_or_equiv
  _atom_site_type_symbol
  Al1      1.0000 0.87515  0.80948  0.12389  Biso   1.000  Al
  Zn1      1.0000 0.08313  0.10676  0.16279  Biso   1.000  Zn
  Al2      1.0000 0.58313  0.60676  0.16279  Biso   1.000  Al
  Zn2      1.0000 0.24894  0.87388  0.08201  Biso   1.000  Zn
  Al3      1.0000 0.75106  0.87388  0.41799  Biso   1.000  Al
  P1       1.0000 0.37567  0.68606  0.12772  Biso   1.000  P
  P2       1.0000 0.74608  0.61273  0.07913  Biso   1.000  P
  P3       1.0000 0.90915  0.86754  0.32988  Biso   1.000  P
  O1       1.0000 0.47210  0.67350  0.11330  Biso   1.000  O
  O2       1.0000 0.36090  0.80070  0.13640  Biso   1.000  O
  O3       1.0000 0.37620  0.62800  0.21450  Biso   1.000  O
  O4       1.0000 0.83460  0.68050  0.11040  Biso   1.000  O
  O5       1.0000 0.85950  0.86960  0.22310  Biso   1.000  O
  O6       1.0000 0.67230  0.65250  0.12050  Biso   1.000  O
  O7       1.0000 0.70050  0.61370  0.97280  Biso   1.000  O
  O8       1.0000 0.84110  0.82380  0.37410  Biso   1.000  O
  O9       1.0000 0.29150  0.64260  0.04570  Biso   1.000  O
  O10      1.0000 0.77880  0.50600  0.11270  Biso   1.000  O
  O11      1.0000 0.93760  0.97580  0.36350  Biso   1.000  O
  O12      1.0000 0.99980  0.79890  0.35990  Biso   1.000  O
  Al4      1.0000 0.37515  0.30948  0.12389  Biso   1.000  Al
  Zn3      1.0000 0.74894  0.37388  0.08201  Biso   1.000  Zn
  Al5      1.0000 0.25106  0.37388  0.41799  Biso   1.000  Al
  P4       1.0000 0.87567  0.18606  0.12772  Biso   1.000  P
  P5       1.0000 0.24608  0.11273  0.07913  Biso   1.000  P
  P6       1.0000 0.40915  0.36754  0.32988  Biso   1.000  P
  O13      1.0000 0.97210  0.17350  0.11330  Biso   1.000  O
  O14      1.0000 0.86090  0.30070  0.13640  Biso   1.000  O
  O15      1.0000 0.87620  0.12800  0.21450  Biso   1.000  O
  O16      1.0000 0.33460  0.18050  0.11040  Biso   1.000  O
  O17      1.0000 0.35950  0.36960  0.22310  Biso   1.000  O
  O18      1.0000 0.17230  0.15250  0.12050  Biso   1.000  O
  O19      1.0000 0.20050  0.11370  0.97280  Biso   1.000  O
  O20      1.0000 0.34110  0.32380  0.37410  Biso   1.000  O
  O21      1.0000 0.79150  0.14260  0.04570  Biso   1.000  O
  O22      1.0000 0.27880  0.00600  0.11270  Biso   1.000  O
  O23      1.0000 0.43760  0.47580  0.36350  Biso   1.000  O
  O24      1.0000 0.49980  0.29890  0.35990  Biso   1.000  O
  Al6      1.0000 0.12485  0.80948  0.37611  Biso   1.000  Al
  Zn4      1.0000 0.91687  0.10676  0.33721  Biso   1.000  Zn
  Al7      1.0000 0.41687  0.60676  0.33721  Biso   1.000  Al
  P7       1.0000 0.62433  0.68606  0.37228  Biso   1.000  P
  P8       1.0000 0.25392  0.61273  0.42087  Biso   1.000  P
  P9       1.0000 0.09085  0.86754  0.17012  Biso   1.000  P
  O25      1.0000 0.52790  0.67350  0.38670  Biso   1.000  O
  O26      1.0000 0.63910  0.80070  0.36360  Biso   1.000  O
  O27      1.0000 0.62380  0.62800  0.28550  Biso   1.000  O
  O28      1.0000 0.16540  0.68050  0.38960  Biso   1.000  O
  O29      1.0000 0.14050  0.86960  0.27690  Biso   1.000  O
  O30      1.0000 0.32770  0.65250  0.37950  Biso   1.000  O
  O31      1.0000 0.29950  0.61370  0.52720  Biso   1.000  O
  O32      1.0000 0.15890  0.82380  0.12590  Biso   1.000  O
  O33      1.0000 0.70850  0.64260  0.45430  Biso   1.000  O
  O34      1.0000 0.22120  0.50600  0.38730  Biso   1.000  O
  O35      1.0000 0.06240  0.97580  0.13650  Biso   1.000  O
  O36      1.0000 0.00020  0.79890  0.14010  Biso   1.000  O
  Al8      1.0000 0.62485  0.30948  0.37611  Biso   1.000  Al
  P10      1.0000 0.12433  0.18606  0.37228  Biso   1.000  P
  P11      1.0000 0.75392  0.11273  0.42087  Biso   1.000  P
  P12      1.0000 0.59085  0.36754  0.17012  Biso   1.000  P
  O37      1.0000 0.02790  0.17350  0.38670  Biso   1.000  O
  O38      1.0000 0.13910  0.30070  0.36360  Biso   1.000  O
  O39      1.0000 0.12380  0.12800  0.28550  Biso   1.000  O
  O40      1.0000 0.66540  0.18050  0.38960  Biso   1.000  O
  O41      1.0000 0.64050  0.36960  0.27690  Biso   1.000  O
  O42      1.0000 0.82770  0.15250  0.37950  Biso   1.000  O
  O43      1.0000 0.79950  0.11370  0.52720  Biso   1.000  O
  O44      1.0000 0.65890  0.32380  0.12590  Biso   1.000  O
  O45      1.0000 0.20850  0.14260  0.45430  Biso   1.000  O
  O46      1.0000 0.72120  0.00600  0.38730  Biso   1.000  O
  O47      1.0000 0.56240  0.47580  0.13650  Biso   1.000  O
  O48      1.0000 0.50020  0.29890  0.14010  Biso   1.000  O
  Al9      1.0000 0.12485  0.19052  0.87611  Biso   1.000  Al
  Zn5      1.0000 0.91687  0.89324  0.83721  Biso   1.000  Zn
  Al10     1.0000 0.41687  0.39324  0.83721  Biso   1.000  Al
  Zn6      1.0000 0.75106  0.12612  0.91799  Biso   1.000  Zn
  Al11     1.0000 0.24894  0.12612  0.58201  Biso   1.000  Al
  P13      1.0000 0.62433  0.31394  0.87228  Biso   1.000  P
  P14      1.0000 0.25392  0.38727  0.92087  Biso   1.000  P
  P15      1.0000 0.09085  0.13246  0.67012  Biso   1.000  P
  O49      1.0000 0.52790  0.32650  0.88670  Biso   1.000  O
  O50      1.0000 0.63910  0.19930  0.86360  Biso   1.000  O
  O51      1.0000 0.62380  0.37200  0.78550  Biso   1.000  O
  O52      1.0000 0.16540  0.31950  0.88960  Biso   1.000  O
  O53      1.0000 0.14050  0.13040  0.77690  Biso   1.000  O
  O54      1.0000 0.32770  0.34750  0.87950  Biso   1.000  O
  O55      1.0000 0.29950  0.38630  0.02720  Biso   1.000  O
  O56      1.0000 0.15890  0.17620  0.62590  Biso   1.000  O
  O57      1.0000 0.70850  0.35740  0.95430  Biso   1.000  O
  O58      1.0000 0.22120  0.49400  0.88730  Biso   1.000  O
  O59      1.0000 0.06240  0.02420  0.63650  Biso   1.000  O
  O60      1.0000 0.00020  0.20110  0.64010  Biso   1.000  O
  Al12     1.0000 0.62485  0.69052  0.87611  Biso   1.000  Al
  Zn7      1.0000 0.25106  0.62612  0.91799  Biso   1.000  Zn
  Al13     1.0000 0.74894  0.62612  0.58201  Biso   1.000  Al
  P16      1.0000 0.12433  0.81394  0.87228  Biso   1.000  P
  P17      1.0000 0.75392  0.88727  0.92087  Biso   1.000  P
  P18      1.0000 0.59085  0.63246  0.67012  Biso   1.000  P
  O61      1.0000 0.02790  0.82650  0.88670  Biso   1.000  O
  O62      1.0000 0.13910  0.69930  0.86360  Biso   1.000  O
  O63      1.0000 0.12380  0.87200  0.78550  Biso   1.000  O
  O64      1.0000 0.66540  0.81950  0.88960  Biso   1.000  O
  O65      1.0000 0.64050  0.63040  0.77690  Biso   1.000  O
  O66      1.0000 0.82770  0.84750  0.87950  Biso   1.000  O
  O67      1.0000 0.79950  0.88630  0.02720  Biso   1.000  O
  O68      1.0000 0.65890  0.67620  0.62590  Biso   1.000  O
  O69      1.0000 0.20850  0.85740  0.95430  Biso   1.000  O
  O70      1.0000 0.72120  0.99400  0.88730  Biso   1.000  O
  O71      1.0000 0.56240  0.52420  0.63650  Biso   1.000  O
  O72      1.0000 0.50020  0.70110  0.64010  Biso   1.000  O
  Al14     1.0000 0.87515  0.19052  0.62389  Biso   1.000  Al
  Zn8      1.0000 0.08313  0.89324  0.66279  Biso   1.000  Zn
  Al15     1.0000 0.58313  0.39324  0.66279  Biso   1.000  Al
  P19      1.0000 0.37567  0.31394  0.62772  Biso   1.000  P
  P20      1.0000 0.74608  0.38727  0.57913  Biso   1.000  P
  P21      1.0000 0.90915  0.13246  0.82988  Biso   1.000  P
  O73      1.0000 0.47210  0.32650  0.61330  Biso   1.000  O
  O74      1.0000 0.36090  0.19930  0.63640  Biso   1.000  O
  O75      1.0000 0.37620  0.37200  0.71450  Biso   1.000  O
  O76      1.0000 0.83460  0.31950  0.61040  Biso   1.000  O
  O77      1.0000 0.85950  0.13040  0.72310  Biso   1.000  O
  O78      1.0000 0.67230  0.34750  0.62050  Biso   1.000  O
  O79      1.0000 0.70050  0.38630  0.47280  Biso   1.000  O
  O80      1.0000 0.84110  0.17620  0.87410  Biso   1.000  O
  O81      1.0000 0.29150  0.35740  0.54570  Biso   1.000  O
  O82      1.0000 0.77880  0.49400  0.61270  Biso   1.000  O
  O83      1.0000 0.93760  0.02420  0.86350  Biso   1.000  O
  O84      1.0000 0.99980  0.20110  0.85990  Biso   1.000  O
  Al16     1.0000 0.37515  0.69052  0.62389  Biso   1.000  Al
  P22      1.0000 0.87567  0.81394  0.62772  Biso   1.000  P
  P23      1.0000 0.24608  0.88727  0.57913  Biso   1.000  P
  P24      1.0000 0.40915  0.63246  0.82988  Biso   1.000  P
  O85      1.0000 0.97210  0.82650  0.61330  Biso   1.000  O
  O86      1.0000 0.86090  0.69930  0.63640  Biso   1.000  O
  O87      1.0000 0.87620  0.87200  0.71450  Biso   1.000  O
  O88      1.0000 0.33460  0.81950  0.61040  Biso   1.000  O
  O89      1.0000 0.35950  0.63040  0.72310  Biso   1.000  O
  O90      1.0000 0.17230  0.84750  0.62050  Biso   1.000  O
  O91      1.0000 0.20050  0.88630  0.47280  Biso   1.000  O
  O92      1.0000 0.34110  0.67620  0.87410  Biso   1.000  O
  O93      1.0000 0.79150  0.85740  0.54570  Biso   1.000  O
  O94      1.0000 0.27880  0.99400  0.61270  Biso   1.000  O
  O95      1.0000 0.43760  0.52420  0.86350  Biso   1.000  O
  O96      1.0000 0.49980  0.70110  0.85990  Biso   1.000  O
