data_image0
_cell_length_a       14.8779
_cell_length_b       13.0633
_cell_length_c       15.4191
_cell_angle_alpha    90
_cell_angle_beta     110.745
_cell_angle_gamma    90

_symmetry_space_group_name_H-M    "P 1"
_symmetry_int_tables_number       1

loop_
  _symmetry_equiv_pos_as_xyz
  'x, y, z'

loop_
  _atom_site_label
  _atom_site_occupancy
  _atom_site_fract_x
  _atom_site_fract_y
  _atom_site_fract_z
  _atom_site_thermal_displace_type
  _atom_site_B_iso_or_equiv
  _atom_site_type_symbol
  Al1      1.0000 0.37730  0.30755  0.12409  Biso   1.000  Al
  Al2      1.0000 0.74283  0.37415  0.07967  Biso   1.000  Al
  Mn1      1.0000 0.25717  0.62585  0.92033  Biso   1.000  Mn
  Al3      1.0000 0.08384  0.10940  0.16377  Biso   1.000  Al
  Mn2      1.0000 0.41616  0.60940  0.33623  Biso   1.000  Mn
  P1       1.0000 0.24469  0.11429  0.07551  Biso   1.000  P
  P2       1.0000 0.87413  0.19095  0.12656  Biso   1.000  P
  P3       1.0000 0.58877  0.36602  0.17098  Biso   1.000  P
  O1       1.0000 0.97310  0.18780  0.12010  Biso   1.000  O
  O2       1.0000 0.33680  0.17710  0.10880  Biso   1.000  O
  O3       1.0000 0.65790  0.32810  0.12630  Biso   1.000  O
  O4       1.0000 0.86850  0.13220  0.20790  Biso   1.000  O
  O5       1.0000 0.50120  0.29620  0.13960  Biso   1.000  O
  O6       1.0000 0.17460  0.15640  0.11620  Biso   1.000  O
  O7       1.0000 0.63700  0.36460  0.27550  Biso   1.000  O
  O8       1.0000 0.84960  0.30390  0.13040  Biso   1.000  O
  O9       1.0000 0.79810  0.14360  0.04210  Biso   1.000  O
  O10      1.0000 0.55860  0.47410  0.14050  Biso   1.000  O
  O11      1.0000 0.27190  0.00430  0.10630  Biso   1.000  O
  O12      1.0000 0.20160  0.11670  0.97060  Biso   1.000  O
  Al4      1.0000 0.87730  0.80755  0.12409  Biso   1.000  Al
  Al5      1.0000 0.24283  0.87415  0.07967  Biso   1.000  Al
  Mn3      1.0000 0.75717  0.12585  0.92033  Biso   1.000  Mn
  Al6      1.0000 0.58384  0.60940  0.16377  Biso   1.000  Al
  Mn4      1.0000 0.91616  0.10940  0.33623  Biso   1.000  Mn
  P4       1.0000 0.74469  0.61429  0.07551  Biso   1.000  P
  P5       1.0000 0.37413  0.69095  0.12656  Biso   1.000  P
  P6       1.0000 0.08877  0.86602  0.17098  Biso   1.000  P
  O13      1.0000 0.47310  0.68780  0.12010  Biso   1.000  O
  O14      1.0000 0.83680  0.67710  0.10880  Biso   1.000  O
  O15      1.0000 0.15790  0.82810  0.12630  Biso   1.000  O
  O16      1.0000 0.36850  0.63220  0.20790  Biso   1.000  O
  O17      1.0000 0.00120  0.79620  0.13960  Biso   1.000  O
  O18      1.0000 0.67460  0.65640  0.11620  Biso   1.000  O
  O19      1.0000 0.13700  0.86460  0.27550  Biso   1.000  O
  O20      1.0000 0.34960  0.80390  0.13040  Biso   1.000  O
  O21      1.0000 0.29810  0.64360  0.04210  Biso   1.000  O
  O22      1.0000 0.05860  0.97410  0.14050  Biso   1.000  O
  O23      1.0000 0.77190  0.50430  0.10630  Biso   1.000  O
  O24      1.0000 0.70160  0.61670  0.97060  Biso   1.000  O
  Al7      1.0000 0.62270  0.30755  0.37591  Biso   1.000  Al
  Al8      1.0000 0.25717  0.37415  0.42033  Biso   1.000  Al
  Mn5      1.0000 0.74283  0.62585  0.57967  Biso   1.000  Mn
  P7       1.0000 0.75531  0.11429  0.42449  Biso   1.000  P
  P8       1.0000 0.12587  0.19095  0.37344  Biso   1.000  P
  P9       1.0000 0.41123  0.36602  0.32902  Biso   1.000  P
  O25      1.0000 0.02690  0.18780  0.37990  Biso   1.000  O
  O26      1.0000 0.66320  0.17710  0.39120  Biso   1.000  O
  O27      1.0000 0.34210  0.32810  0.37370  Biso   1.000  O
  O28      1.0000 0.13150  0.13220  0.29210  Biso   1.000  O
  O29      1.0000 0.49880  0.29620  0.36040  Biso   1.000  O
  O30      1.0000 0.82540  0.15640  0.38380  Biso   1.000  O
  O31      1.0000 0.36300  0.36460  0.22450  Biso   1.000  O
  O32      1.0000 0.15040  0.30390  0.36960  Biso   1.000  O
  O33      1.0000 0.20190  0.14360  0.45790  Biso   1.000  O
  O34      1.0000 0.44140  0.47410  0.35950  Biso   1.000  O
  O35      1.0000 0.72810  0.00430  0.39370  Biso   1.000  O
  O36      1.0000 0.79840  0.11670  0.52940  Biso   1.000  O
  Al9      1.0000 0.12270  0.80755  0.37591  Biso   1.000  Al
  Al10     1.0000 0.75717  0.87415  0.42033  Biso   1.000  Al
  Mn6      1.0000 0.24283  0.12585  0.57967  Biso   1.000  Mn
  P10      1.0000 0.25531  0.61429  0.42449  Biso   1.000  P
  P11      1.0000 0.62587  0.69095  0.37344  Biso   1.000  P
  P12      1.0000 0.91123  0.86602  0.32902  Biso   1.000  P
  O37      1.0000 0.52690  0.68780  0.37990  Biso   1.000  O
  O38      1.0000 0.16320  0.67710  0.39120  Biso   1.000  O
  O39      1.0000 0.84210  0.82810  0.37370  Biso   1.000  O
  O40      1.0000 0.63150  0.63220  0.29210  Biso   1.000  O
  O41      1.0000 0.99880  0.79620  0.36040  Biso   1.000  O
  O42      1.0000 0.32540  0.65640  0.38380  Biso   1.000  O
  O43      1.0000 0.86300  0.86460  0.22450  Biso   1.000  O
  O44      1.0000 0.65040  0.80390  0.36960  Biso   1.000  O
  O45      1.0000 0.70190  0.64360  0.45790  Biso   1.000  O
  O46      1.0000 0.94140  0.97410  0.35950  Biso   1.000  O
  O47      1.0000 0.22810  0.50430  0.39370  Biso   1.000  O
  O48      1.0000 0.29840  0.61670  0.52940  Biso   1.000  O
  Al11     1.0000 0.62270  0.69245  0.87591  Biso   1.000  Al
  Al12     1.0000 0.91616  0.89060  0.83623  Biso   1.000  Al
  Mn7      1.0000 0.58384  0.39060  0.66377  Biso   1.000  Mn
  P13      1.0000 0.75531  0.88571  0.92449  Biso   1.000  P
  P14      1.0000 0.12587  0.80905  0.87344  Biso   1.000  P
  P15      1.0000 0.41123  0.63398  0.82902  Biso   1.000  P
  O49      1.0000 0.02690  0.81220  0.87990  Biso   1.000  O
  O50      1.0000 0.66320  0.82290  0.89120  Biso   1.000  O
  O51      1.0000 0.34210  0.67190  0.87370  Biso   1.000  O
  O52      1.0000 0.13150  0.86780  0.79210  Biso   1.000  O
  O53      1.0000 0.49880  0.70380  0.86040  Biso   1.000  O
  O54      1.0000 0.82540  0.84360  0.88380  Biso   1.000  O
  O55      1.0000 0.36300  0.63540  0.72450  Biso   1.000  O
  O56      1.0000 0.15040  0.69610  0.86960  Biso   1.000  O
  O57      1.0000 0.20190  0.85640  0.95790  Biso   1.000  O
  O58      1.0000 0.44140  0.52590  0.85950  Biso   1.000  O
  O59      1.0000 0.72810  0.99570  0.89370  Biso   1.000  O
  O60      1.0000 0.79840  0.88330  0.02940  Biso   1.000  O
  Al13     1.0000 0.12270  0.19245  0.87591  Biso   1.000  Al
  Al14     1.0000 0.41616  0.39060  0.83623  Biso   1.000  Al
  Mn8      1.0000 0.08384  0.89060  0.66377  Biso   1.000  Mn
  P16      1.0000 0.25531  0.38571  0.92449  Biso   1.000  P
  P17      1.0000 0.62587  0.30905  0.87344  Biso   1.000  P
  P18      1.0000 0.91123  0.13398  0.82902  Biso   1.000  P
  O61      1.0000 0.52690  0.31220  0.87990  Biso   1.000  O
  O62      1.0000 0.16320  0.32290  0.89120  Biso   1.000  O
  O63      1.0000 0.84210  0.17190  0.87370  Biso   1.000  O
  O64      1.0000 0.63150  0.36780  0.79210  Biso   1.000  O
  O65      1.0000 0.99880  0.20380  0.86040  Biso   1.000  O
  O66      1.0000 0.32540  0.34360  0.88380  Biso   1.000  O
  O67      1.0000 0.86300  0.13540  0.72450  Biso   1.000  O
  O68      1.0000 0.65040  0.19610  0.86960  Biso   1.000  O
  O69      1.0000 0.70190  0.35640  0.95790  Biso   1.000  O
  O70      1.0000 0.94140  0.02590  0.85950  Biso   1.000  O
  O71      1.0000 0.22810  0.49570  0.89370  Biso   1.000  O
  O72      1.0000 0.29840  0.38330  0.02940  Biso   1.000  O
  Al15     1.0000 0.37730  0.69245  0.62409  Biso   1.000  Al
  P19      1.0000 0.24469  0.88571  0.57551  Biso   1.000  P
  P20      1.0000 0.87413  0.80905  0.62656  Biso   1.000  P
  P21      1.0000 0.58877  0.63398  0.67098  Biso   1.000  P
  O73      1.0000 0.97310  0.81220  0.62010  Biso   1.000  O
  O74      1.0000 0.33680  0.82290  0.60880  Biso   1.000  O
  O75      1.0000 0.65790  0.67190  0.62630  Biso   1.000  O
  O76      1.0000 0.86850  0.86780  0.70790  Biso   1.000  O
  O77      1.0000 0.50120  0.70380  0.63960  Biso   1.000  O
  O78      1.0000 0.17460  0.84360  0.61620  Biso   1.000  O
  O79      1.0000 0.63700  0.63540  0.77550  Biso   1.000  O
  O80      1.0000 0.84960  0.69610  0.63040  Biso   1.000  O
  O81      1.0000 0.79810  0.85640  0.54210  Biso   1.000  O
  O82      1.0000 0.55860  0.52590  0.64050  Biso   1.000  O
  O83      1.0000 0.27190  0.99570  0.60630  Biso   1.000  O
  O84      1.0000 0.20160  0.88330  0.47060  Biso   1.000  O
  Al16     1.0000 0.87730  0.19245  0.62409  Biso   1.000  Al
  P22      1.0000 0.74469  0.38571  0.57551  Biso   1.000  P
  P23      1.0000 0.37413  0.30905  0.62656  Biso   1.000  P
  P24      1.0000 0.08877  0.13398  0.67098  Biso   1.000  P
  O85      1.0000 0.47310  0.31220  0.62010  Biso   1.000  O
  O86      1.0000 0.83680  0.32290  0.60880  Biso   1.000  O
  O87      1.0000 0.15790  0.17190  0.62630  Biso   1.000  O
  O88      1.0000 0.36850  0.36780  0.70790  Biso   1.000  O
  O89      1.0000 0.00120  0.20380  0.63960  Biso   1.000  O
  O90      1.0000 0.67460  0.34360  0.61620  Biso   1.000  O
  O91      1.0000 0.13700  0.13540  0.77550  Biso   1.000  O
  O92      1.0000 0.34960  0.19610  0.63040  Biso   1.000  O
  O93      1.0000 0.29810  0.35640  0.54210  Biso   1.000  O
  O94      1.0000 0.05860  0.02590  0.64050  Biso   1.000  O
  O95      1.0000 0.77190  0.49570  0.60630  Biso   1.000  O
  O96      1.0000 0.70160  0.38330  0.47060  Biso   1.000  O
