data_image0
_cell_length_a       14.649
_cell_length_b       13.47
_cell_length_c       24.399
_cell_angle_alpha    90
_cell_angle_beta     106.607
_cell_angle_gamma    90

_symmetry_space_group_name_H-M    "P 1"
_symmetry_int_tables_number       1

loop_
  _symmetry_equiv_pos_as_xyz
  'x, y, z'

loop_
  _atom_site_label
  _atom_site_occupancy
  _atom_site_fract_x
  _atom_site_fract_y
  _atom_site_fract_z
  _atom_site_thermal_displace_type
  _atom_site_B_iso_or_equiv
  _atom_site_type_symbol
  C1       1.0000 0.33800  0.96430  0.35446  Biso   1.000  C
  H1       1.0000 0.30060  0.92540  0.37110  Biso   1.000  H
  C2       1.0000 0.32050  0.98740  0.29869  Biso   1.000  C
  H2       1.0000 0.26770  0.96610  0.26990  Biso   1.000  H
  C3       1.0000 0.45059  0.05950  0.34173  Biso   1.000  C
  H3       1.0000 0.50540  0.09820  0.34940  Biso   1.000  H
  C4       1.0000 0.46396  0.00780  0.44241  Biso   1.000  C
  C5       1.0000 0.51220  0.92340  0.46587  Biso   1.000  C
  H4       1.0000 0.51930  0.87190  0.44200  Biso   1.000  H
  C6       1.0000 0.44940  0.08610  0.47524  Biso   1.000  C
  C7       1.0000 0.39310  0.17610  0.45058  Biso   1.000  C
  H5       1.0000 0.40930  0.19630  0.41680  Biso   1.000  H
  H6       1.0000 0.40760  0.22890  0.47820  Biso   1.000  H
  H7       1.0000 0.32640  0.16110  0.44090  Biso   1.000  H
  C8       1.0000 0.29926  0.96110  0.15311  Biso   1.000  C
  H8       1.0000 0.35590  0.92880  0.17130  Biso   1.000  H
  C9       1.0000 0.23350  0.92680  0.10641  Biso   1.000  C
  H9       1.0000 0.23590  0.86830  0.08670  Biso   1.000  H
  C10      1.0000 0.18762  0.06800  0.13366  Biso   1.000  C
  H10      1.0000 0.15060  0.12350  0.13510  Biso   1.000  H
  C11      1.0000 0.07952  0.99900  0.04500  Biso   1.000  C
  C12      1.0000 0.07180  0.07310  0.00508  Biso   1.000  C
  C13      1.0000 0.14630  0.15120  0.00862  Biso   1.000  C
  H11      1.0000 0.14360  0.19910  0.03720  Biso   1.000  H
  H12      1.0000 0.13480  0.18360  0.97220  Biso   1.000  H
  H13      1.0000 0.20810  0.12080  0.01870  Biso   1.000  H
  C14      1.0000 0.01110  0.92810  0.04069  Biso   1.000  C
  H14      1.0000 0.02000  0.87970  0.06890  Biso   1.000  H
  C15      1.0000 0.53515  0.05980  0.20479  Biso   1.000  C
  H15      1.0000 0.54380  0.01630  0.23540  Biso   1.000  H
  C16      1.0000 0.55780  0.13820  0.13252  Biso   1.000  C
  H16      1.0000 0.58340  0.16010  0.10390  Biso   1.000  H
  C17      1.0000 0.47890  0.17210  0.14327  Biso   1.000  C
  H17      1.0000 0.43980  0.22190  0.12270  Biso   1.000  H
  C18      1.0000 0.74960  0.01700  0.23009  Biso   1.000  C
  H18      1.0000 0.73710  0.05270  0.25980  Biso   1.000  H
  C19      1.0000 0.68104  0.01130  0.17805  Biso   1.000  C
  C20      1.0000 0.69354  0.95750  0.13241  Biso   1.000  C
  C21      1.0000 0.78154  0.91190  0.14115  Biso   1.000  C
  H19      1.0000 0.79360  0.87550  0.11160  Biso   1.000  H
  C22      1.0000 0.85123  0.91920  0.19248  Biso   1.000  C
  C23      1.0000 0.83720  0.97000  0.23882  Biso   1.000  C
  C24      1.0000 0.91250  0.97590  0.29574  Biso   1.000  C
  H20      1.0000 0.92800  0.91010  0.31070  Biso   1.000  H
  H21      1.0000 0.88890  0.01420  0.32190  Biso   1.000  H
  H22      1.0000 0.96860  0.00700  0.29080  Biso   1.000  H
  C25      1.0000 0.61760  0.94470  0.07591  Biso   1.000  C
  H23      1.0000 0.55630  0.93920  0.08260  Biso   1.000  H
  H24      1.0000 0.63020  0.88570  0.05730  Biso   1.000  H
  H25      1.0000 0.61800  0.00120  0.05200  Biso   1.000  H
  C26      1.0000 0.96934  0.78380  0.22111  Biso   1.000  C
  H26      1.0000 0.92930  0.73990  0.23250  Biso   1.000  H
  C27      1.0000 0.01910  0.91480  0.18734  Biso   1.000  C
  H27      1.0000 0.02230  0.97700  0.17150  Biso   1.000  H
  C28      1.0000 0.09030  0.84770  0.20411  Biso   1.000  C
  H28      1.0000 0.15180  0.85640  0.20130  Biso   1.000  H
  N1       1.0000 0.05894  0.76547  0.22567  Biso   1.000  N
  N2       1.0000 0.94199  0.87281  0.19832  Biso   1.000  N
  N3       1.0000 0.59377  0.06539  0.17167  Biso   1.000  N
  N4       1.0000 0.46429  0.12272  0.18907  Biso   1.000  N
  N5       1.0000 0.39178  0.04695  0.29037  Biso   1.000  N
  N6       1.0000 0.42240  0.01022  0.38168  Biso   1.000  N
  N7       1.0000 0.27109  0.04970  0.16999  Biso   1.000  N
  N8       1.0000 0.16259  0.99606  0.09409  Biso   1.000  N
  Ni1      1.0000 0.35576  0.15309  0.22604  Biso   1.000  Ni
  C29      1.0000 0.16200  0.46430  0.14554  Biso   1.000  C
  H29      1.0000 0.19940  0.42540  0.12890  Biso   1.000  H
  C30      1.0000 0.17950  0.48740  0.20131  Biso   1.000  C
  H30      1.0000 0.23230  0.46610  0.23010  Biso   1.000  H
  C31      1.0000 0.04941  0.55950  0.15827  Biso   1.000  C
  H31      1.0000 0.99460  0.59820  0.15060  Biso   1.000  H
  C32      1.0000 0.03604  0.50780  0.05759  Biso   1.000  C
  C33      1.0000 0.98780  0.42340  0.03413  Biso   1.000  C
  H32      1.0000 0.98070  0.37190  0.05800  Biso   1.000  H
  C34      1.0000 0.05060  0.58610  0.02476  Biso   1.000  C
  C35      1.0000 0.10690  0.67610  0.04942  Biso   1.000  C
  H33      1.0000 0.09070  0.69630  0.08320  Biso   1.000  H
  H34      1.0000 0.09240  0.72890  0.02180  Biso   1.000  H
  H35      1.0000 0.17360  0.66110  0.05910  Biso   1.000  H
  C36      1.0000 0.20074  0.46110  0.34689  Biso   1.000  C
  H36      1.0000 0.14410  0.42880  0.32870  Biso   1.000  H
  C37      1.0000 0.26650  0.42680  0.39359  Biso   1.000  C
  H37      1.0000 0.26410  0.36830  0.41330  Biso   1.000  H
  C38      1.0000 0.31238  0.56800  0.36634  Biso   1.000  C
  H38      1.0000 0.34940  0.62350  0.36490  Biso   1.000  H
  C39      1.0000 0.42048  0.49900  0.45500  Biso   1.000  C
  C40      1.0000 0.42820  0.57310  0.49492  Biso   1.000  C
  C41      1.0000 0.35370  0.65120  0.49138  Biso   1.000  C
  H39      1.0000 0.35640  0.69910  0.46280  Biso   1.000  H
  H40      1.0000 0.36520  0.68360  0.52780  Biso   1.000  H
  H41      1.0000 0.29190  0.62080  0.48130  Biso   1.000  H
  C42      1.0000 0.48890  0.42810  0.45931  Biso   1.000  C
  H42      1.0000 0.48000  0.37970  0.43110  Biso   1.000  H
  C43      1.0000 0.96485  0.55980  0.29521  Biso   1.000  C
  H43      1.0000 0.95620  0.51630  0.26460  Biso   1.000  H
  C44      1.0000 0.94220  0.63820  0.36748  Biso   1.000  C
  H44      1.0000 0.91660  0.66010  0.39610  Biso   1.000  H
  C45      1.0000 0.02110  0.67210  0.35673  Biso   1.000  C
  H45      1.0000 0.06020  0.72190  0.37730  Biso   1.000  H
  C46      1.0000 0.75040  0.51700  0.26991  Biso   1.000  C
  H46      1.0000 0.76290  0.55270  0.24020  Biso   1.000  H
  C47      1.0000 0.81896  0.51130  0.32195  Biso   1.000  C
  C48      1.0000 0.80646  0.45750  0.36759  Biso   1.000  C
  C49      1.0000 0.71846  0.41190  0.35885  Biso   1.000  C
  H47      1.0000 0.70640  0.37550  0.38840  Biso   1.000  H
  C50      1.0000 0.64877  0.41920  0.30752  Biso   1.000  C
  C51      1.0000 0.66280  0.47000  0.26118  Biso   1.000  C
  C52      1.0000 0.58750  0.47590  0.20426  Biso   1.000  C
  H48      1.0000 0.57200  0.41010  0.18930  Biso   1.000  H
  H49      1.0000 0.61110  0.51420  0.17810  Biso   1.000  H
  H50      1.0000 0.53140  0.50700  0.20920  Biso   1.000  H
  C53      1.0000 0.88240  0.44470  0.42409  Biso   1.000  C
  H51      1.0000 0.94370  0.43920  0.41740  Biso   1.000  H
  H52      1.0000 0.86980  0.38570  0.44270  Biso   1.000  H
  H53      1.0000 0.88200  0.50120  0.44800  Biso   1.000  H
  C54      1.0000 0.53066  0.28380  0.27889  Biso   1.000  C
  H54      1.0000 0.57070  0.23990  0.26750  Biso   1.000  H
  C55      1.0000 0.48090  0.41480  0.31266  Biso   1.000  C
  H55      1.0000 0.47770  0.47700  0.32850  Biso   1.000  H
  C56      1.0000 0.40970  0.34770  0.29589  Biso   1.000  C
  H56      1.0000 0.34820  0.35640  0.29870  Biso   1.000  H
  N9       1.0000 0.44106  0.26547  0.27433  Biso   1.000  N
  N10      1.0000 0.55801  0.37281  0.30168  Biso   1.000  N
  N11      1.0000 0.90623  0.56539  0.32833  Biso   1.000  N
  N12      1.0000 0.03571  0.62272  0.31093  Biso   1.000  N
  N13      1.0000 0.10822  0.54695  0.20963  Biso   1.000  N
  N14      1.0000 0.07760  0.51022  0.11832  Biso   1.000  N
  N15      1.0000 0.22891  0.54970  0.33001  Biso   1.000  N
  N16      1.0000 0.33741  0.49606  0.40591  Biso   1.000  N
  Ni2      1.0000 0.14424  0.65309  0.27395  Biso   1.000  Ni
  C57      1.0000 0.66200  0.03570  0.64554  Biso   1.000  C
  H57      1.0000 0.69940  0.07460  0.62890  Biso   1.000  H
  C58      1.0000 0.67950  0.01260  0.70131  Biso   1.000  C
  H58      1.0000 0.73230  0.03390  0.73010  Biso   1.000  H
  C59      1.0000 0.54941  0.94050  0.65827  Biso   1.000  C
  H59      1.0000 0.49460  0.90180  0.65060  Biso   1.000  H
  C60      1.0000 0.53604  0.99220  0.55759  Biso   1.000  C
  C61      1.0000 0.48780  0.07660  0.53413  Biso   1.000  C
  H60      1.0000 0.48070  0.12810  0.55800  Biso   1.000  H
  C62      1.0000 0.55060  0.91390  0.52476  Biso   1.000  C
  C63      1.0000 0.60690  0.82390  0.54942  Biso   1.000  C
  H61      1.0000 0.59070  0.80370  0.58320  Biso   1.000  H
  H62      1.0000 0.59240  0.77110  0.52180  Biso   1.000  H
  H63      1.0000 0.67360  0.83890  0.55910  Biso   1.000  H
  C64      1.0000 0.70074  0.03890  0.84689  Biso   1.000  C
  H64      1.0000 0.64410  0.07120  0.82870  Biso   1.000  H
  C65      1.0000 0.76650  0.07320  0.89359  Biso   1.000  C
  H65      1.0000 0.76410  0.13170  0.91330  Biso   1.000  H
  C66      1.0000 0.81238  0.93200  0.86634  Biso   1.000  C
  H66      1.0000 0.84940  0.87650  0.86490  Biso   1.000  H
  C67      1.0000 0.92048  0.00100  0.95500  Biso   1.000  C
  C68      1.0000 0.92820  0.92690  0.99492  Biso   1.000  C
  C69      1.0000 0.85370  0.84880  0.99138  Biso   1.000  C
  H67      1.0000 0.85640  0.80090  0.96280  Biso   1.000  H
  H68      1.0000 0.86520  0.81640  0.02780  Biso   1.000  H
  H69      1.0000 0.79190  0.87920  0.98130  Biso   1.000  H
  C70      1.0000 0.98890  0.07190  0.95931  Biso   1.000  C
  H70      1.0000 0.98000  0.12030  0.93110  Biso   1.000  H
  C71      1.0000 0.46485  0.94020  0.79521  Biso   1.000  C
  H71      1.0000 0.45620  0.98370  0.76460  Biso   1.000  H
  C72      1.0000 0.44220  0.86180  0.86748  Biso   1.000  C
  H72      1.0000 0.41660  0.83990  0.89610  Biso   1.000  H
  C73      1.0000 0.52110  0.82790  0.85673  Biso   1.000  C
  H73      1.0000 0.56020  0.77810  0.87730  Biso   1.000  H
  C74      1.0000 0.25040  0.98300  0.76991  Biso   1.000  C
  H74      1.0000 0.26290  0.94730  0.74020  Biso   1.000  H
  C75      1.0000 0.31896  0.98870  0.82195  Biso   1.000  C
  C76      1.0000 0.30646  0.04250  0.86759  Biso   1.000  C
  C77      1.0000 0.21846  0.08810  0.85885  Biso   1.000  C
  H75      1.0000 0.20640  0.12450  0.88840  Biso   1.000  H
  C78      1.0000 0.14877  0.08080  0.80752  Biso   1.000  C
  C79      1.0000 0.16280  0.03000  0.76118  Biso   1.000  C
  C80      1.0000 0.08750  0.02410  0.70426  Biso   1.000  C
  H76      1.0000 0.07200  0.08990  0.68930  Biso   1.000  H
  H77      1.0000 0.11110  0.98580  0.67810  Biso   1.000  H
  H78      1.0000 0.03140  0.99300  0.70920  Biso   1.000  H
  C81      1.0000 0.38240  0.05530  0.92409  Biso   1.000  C
  H79      1.0000 0.44370  0.06080  0.91740  Biso   1.000  H
  H80      1.0000 0.36980  0.11430  0.94270  Biso   1.000  H
  H81      1.0000 0.38200  0.99880  0.94800  Biso   1.000  H
  C82      1.0000 0.03066  0.21620  0.77889  Biso   1.000  C
  H82      1.0000 0.07070  0.26010  0.76750  Biso   1.000  H
  C83      1.0000 0.98090  0.08520  0.81266  Biso   1.000  C
  H83      1.0000 0.97770  0.02300  0.82850  Biso   1.000  H
  C84      1.0000 0.90970  0.15230  0.79589  Biso   1.000  C
  H84      1.0000 0.84820  0.14360  0.79870  Biso   1.000  H
  N17      1.0000 0.94106  0.23453  0.77433  Biso   1.000  N
  N18      1.0000 0.05801  0.12719  0.80168  Biso   1.000  N
  N19      1.0000 0.40623  0.93461  0.82833  Biso   1.000  N
  N20      1.0000 0.53571  0.87728  0.81093  Biso   1.000  N
  N21      1.0000 0.60822  0.95305  0.70963  Biso   1.000  N
  N22      1.0000 0.57760  0.98978  0.61832  Biso   1.000  N
  N23      1.0000 0.72891  0.95030  0.83001  Biso   1.000  N
  N24      1.0000 0.83741  0.00394  0.90591  Biso   1.000  N
  Ni3      1.0000 0.64424  0.84691  0.77395  Biso   1.000  Ni
  C85      1.0000 0.83800  0.53570  0.85446  Biso   1.000  C
  H85      1.0000 0.80060  0.57460  0.87110  Biso   1.000  H
  C86      1.0000 0.82050  0.51260  0.79869  Biso   1.000  C
  H86      1.0000 0.76770  0.53390  0.76990  Biso   1.000  H
  C87      1.0000 0.95059  0.44050  0.84173  Biso   1.000  C
  H87      1.0000 0.00540  0.40180  0.84940  Biso   1.000  H
  C88      1.0000 0.96396  0.49220  0.94241  Biso   1.000  C
  C89      1.0000 0.01220  0.57660  0.96587  Biso   1.000  C
  H88      1.0000 0.01930  0.62810  0.94200  Biso   1.000  H
  C90      1.0000 0.94940  0.41390  0.97524  Biso   1.000  C
  C91      1.0000 0.89310  0.32390  0.95058  Biso   1.000  C
  H89      1.0000 0.90930  0.30370  0.91680  Biso   1.000  H
  H90      1.0000 0.90760  0.27110  0.97820  Biso   1.000  H
  H91      1.0000 0.82640  0.33890  0.94090  Biso   1.000  H
  C92      1.0000 0.79926  0.53890  0.65311  Biso   1.000  C
  H92      1.0000 0.85590  0.57120  0.67130  Biso   1.000  H
  C93      1.0000 0.73350  0.57320  0.60641  Biso   1.000  C
  H93      1.0000 0.73590  0.63170  0.58670  Biso   1.000  H
  C94      1.0000 0.68762  0.43200  0.63366  Biso   1.000  C
  H94      1.0000 0.65060  0.37650  0.63510  Biso   1.000  H
  C95      1.0000 0.57952  0.50100  0.54500  Biso   1.000  C
  C96      1.0000 0.57180  0.42690  0.50508  Biso   1.000  C
  C97      1.0000 0.64630  0.34880  0.50862  Biso   1.000  C
  H95      1.0000 0.64360  0.30090  0.53720  Biso   1.000  H
  H96      1.0000 0.63480  0.31640  0.47220  Biso   1.000  H
  H97      1.0000 0.70810  0.37920  0.51870  Biso   1.000  H
  C98      1.0000 0.51110  0.57190  0.54069  Biso   1.000  C
  H98      1.0000 0.52000  0.62030  0.56890  Biso   1.000  H
  C99      1.0000 0.03515  0.44020  0.70479  Biso   1.000  C
  H99      1.0000 0.04380  0.48370  0.73540  Biso   1.000  H
  C100     1.0000 0.05780  0.36180  0.63252  Biso   1.000  C
  H100     1.0000 0.08340  0.33990  0.60390  Biso   1.000  H
  C101     1.0000 0.97890  0.32790  0.64327  Biso   1.000  C
  H101     1.0000 0.93980  0.27810  0.62270  Biso   1.000  H
  C102     1.0000 0.24960  0.48300  0.73009  Biso   1.000  C
  H102     1.0000 0.23710  0.44730  0.75980  Biso   1.000  H
  C103     1.0000 0.18104  0.48870  0.67805  Biso   1.000  C
  C104     1.0000 0.19354  0.54250  0.63241  Biso   1.000  C
  C105     1.0000 0.28154  0.58810  0.64115  Biso   1.000  C
  H103     1.0000 0.29360  0.62450  0.61160  Biso   1.000  H
  C106     1.0000 0.35123  0.58080  0.69248  Biso   1.000  C
  C107     1.0000 0.33720  0.53000  0.73882  Biso   1.000  C
  C108     1.0000 0.41250  0.52410  0.79574  Biso   1.000  C
  H104     1.0000 0.42800  0.58990  0.81070  Biso   1.000  H
  H105     1.0000 0.38890  0.48580  0.82190  Biso   1.000  H
  H106     1.0000 0.46860  0.49300  0.79080  Biso   1.000  H
  C109     1.0000 0.11760  0.55530  0.57591  Biso   1.000  C
  H107     1.0000 0.05630  0.56080  0.58260  Biso   1.000  H
  H108     1.0000 0.13020  0.61430  0.55730  Biso   1.000  H
  H109     1.0000 0.11800  0.49880  0.55200  Biso   1.000  H
  C110     1.0000 0.46934  0.71620  0.72111  Biso   1.000  C
  H110     1.0000 0.42930  0.76010  0.73250  Biso   1.000  H
  C111     1.0000 0.51910  0.58520  0.68734  Biso   1.000  C
  H111     1.0000 0.52230  0.52300  0.67150  Biso   1.000  H
  C112     1.0000 0.59030  0.65230  0.70411  Biso   1.000  C
  H112     1.0000 0.65180  0.64360  0.70130  Biso   1.000  H
  N25      1.0000 0.55894  0.73453  0.72567  Biso   1.000  N
  N26      1.0000 0.44199  0.62719  0.69832  Biso   1.000  N
  N27      1.0000 0.09377  0.43461  0.67167  Biso   1.000  N
  N28      1.0000 0.96429  0.37728  0.68907  Biso   1.000  N
  N29      1.0000 0.89178  0.45305  0.79037  Biso   1.000  N
  N30      1.0000 0.92240  0.48978  0.88168  Biso   1.000  N
  N31      1.0000 0.77109  0.45030  0.66999  Biso   1.000  N
  N32      1.0000 0.66259  0.50394  0.59409  Biso   1.000  N
  Ni4      1.0000 0.85576  0.34691  0.72604  Biso   1.000  Ni
