data_image0
_cell_length_a       8.7173
_cell_length_b       19.4288
_cell_length_c       9.6558
_cell_angle_alpha    90
_cell_angle_beta     97.17
_cell_angle_gamma    90

_symmetry_space_group_name_H-M    "P 1"
_symmetry_int_tables_number       1

loop_
  _symmetry_equiv_pos_as_xyz
  'x, y, z'

loop_
  _atom_site_label
  _atom_site_occupancy
  _atom_site_fract_x
  _atom_site_fract_y
  _atom_site_fract_z
  _atom_site_thermal_displace_type
  _atom_site_B_iso_or_equiv
  _atom_site_type_symbol
  C1       1.0000 0.04130  0.93030  0.52280  Biso   1.000  C
  C2       1.0000 0.90620  0.95560  0.57140  Biso   1.000  C
  C3       1.0000 0.86890  0.02510  0.54730  Biso   1.000  C
  H1       1.0000 0.77850  0.04270  0.58020  Biso   1.000  H
  C4       1.0000 0.10290  0.85800  0.54970  Biso   1.000  C
  C5       1.0000 0.57020  0.84380  0.77030  Biso   1.000  C
  C6       1.0000 0.61270  0.82090  0.64300  Biso   1.000  C
  H2       1.0000 0.56390  0.78160  0.59880  Biso   1.000  H
  C7       1.0000 0.72460  0.85520  0.58130  Biso   1.000  C
  H3       1.0000 0.75340  0.83860  0.49560  Biso   1.000  H
  C8       1.0000 0.79710  0.91430  0.64300  Biso   1.000  C
  C9       1.0000 0.75400  0.93660  0.76910  Biso   1.000  C
  H4       1.0000 0.80050  0.97670  0.81240  Biso   1.000  H
  C10      1.0000 0.64270  0.90080  0.83330  Biso   1.000  C
  H5       1.0000 0.61690  0.91590  0.92110  Biso   1.000  H
  C11      1.0000 0.45140  0.80450  0.84050  Biso   1.000  C
  Cd1      1.0000 0.24810  0.73026  0.55894  Biso   1.000  Cd
  O1       1.0000 0.19900  0.83660  0.47100  Biso   1.000  O
  O2       1.0000 0.06190  0.82170  0.64490  Biso   1.000  O
  O3       1.0000 0.43550  0.82210  0.96390  Biso   1.000  O
  O4       1.0000 0.37570  0.75770  0.77530  Biso   1.000  O
  C12      1.0000 0.95870  0.43030  0.97720  Biso   1.000  C
  C13      1.0000 0.09380  0.45560  0.92860  Biso   1.000  C
  C14      1.0000 0.13110  0.52510  0.95270  Biso   1.000  C
  H6       1.0000 0.22150  0.54270  0.91980  Biso   1.000  H
  C15      1.0000 0.89710  0.35800  0.95030  Biso   1.000  C
  C16      1.0000 0.42980  0.34380  0.72970  Biso   1.000  C
  C17      1.0000 0.38730  0.32090  0.85700  Biso   1.000  C
  H7       1.0000 0.43610  0.28160  0.90120  Biso   1.000  H
  C18      1.0000 0.27540  0.35520  0.91870  Biso   1.000  C
  H8       1.0000 0.24660  0.33860  0.00440  Biso   1.000  H
  C19      1.0000 0.20290  0.41430  0.85700  Biso   1.000  C
  C20      1.0000 0.24600  0.43660  0.73090  Biso   1.000  C
  H9       1.0000 0.19950  0.47670  0.68760  Biso   1.000  H
  C21      1.0000 0.35730  0.40080  0.66670  Biso   1.000  C
  H10      1.0000 0.38310  0.41590  0.57890  Biso   1.000  H
  C22      1.0000 0.54860  0.30450  0.65950  Biso   1.000  C
  Cd2      1.0000 0.75190  0.23026  0.94106  Biso   1.000  Cd
  O5       1.0000 0.80100  0.33660  0.02900  Biso   1.000  O
  O6       1.0000 0.93810  0.32170  0.85510  Biso   1.000  O
  O7       1.0000 0.56450  0.32210  0.53610  Biso   1.000  O
  O8       1.0000 0.62430  0.25770  0.72470  Biso   1.000  O
  C23      1.0000 0.95870  0.06970  0.47720  Biso   1.000  C
  C24      1.0000 0.09380  0.04440  0.42860  Biso   1.000  C
  C25      1.0000 0.13110  0.97490  0.45270  Biso   1.000  C
  H11      1.0000 0.22150  0.95730  0.41980  Biso   1.000  H
  C26      1.0000 0.89710  0.14200  0.45030  Biso   1.000  C
  C27      1.0000 0.42980  0.15620  0.22970  Biso   1.000  C
  C28      1.0000 0.38730  0.17910  0.35700  Biso   1.000  C
  H12      1.0000 0.43610  0.21840  0.40120  Biso   1.000  H
  C29      1.0000 0.27540  0.14480  0.41870  Biso   1.000  C
  H13      1.0000 0.24660  0.16140  0.50440  Biso   1.000  H
  C30      1.0000 0.20290  0.08570  0.35700  Biso   1.000  C
  C31      1.0000 0.24600  0.06340  0.23090  Biso   1.000  C
  H14      1.0000 0.19950  0.02330  0.18760  Biso   1.000  H
  C32      1.0000 0.35730  0.09920  0.16670  Biso   1.000  C
  H15      1.0000 0.38310  0.08410  0.07890  Biso   1.000  H
  C33      1.0000 0.54860  0.19550  0.15950  Biso   1.000  C
  Cd3      1.0000 0.75190  0.26974  0.44106  Biso   1.000  Cd
  O9       1.0000 0.80100  0.16340  0.52900  Biso   1.000  O
  O10      1.0000 0.93810  0.17830  0.35510  Biso   1.000  O
  O11      1.0000 0.56450  0.17790  0.03610  Biso   1.000  O
  O12      1.0000 0.62430  0.24230  0.22470  Biso   1.000  O
  C34      1.0000 0.04130  0.56970  0.02280  Biso   1.000  C
  C35      1.0000 0.90620  0.54440  0.07140  Biso   1.000  C
  C36      1.0000 0.86890  0.47490  0.04730  Biso   1.000  C
  H16      1.0000 0.77850  0.45730  0.08020  Biso   1.000  H
  C37      1.0000 0.10290  0.64200  0.04970  Biso   1.000  C
  C38      1.0000 0.57020  0.65620  0.27030  Biso   1.000  C
  C39      1.0000 0.61270  0.67910  0.14300  Biso   1.000  C
  H17      1.0000 0.56390  0.71840  0.09880  Biso   1.000  H
  C40      1.0000 0.72460  0.64480  0.08130  Biso   1.000  C
  H18      1.0000 0.75340  0.66140  0.99560  Biso   1.000  H
  C41      1.0000 0.79710  0.58570  0.14300  Biso   1.000  C
  C42      1.0000 0.75400  0.56340  0.26910  Biso   1.000  C
  H19      1.0000 0.80050  0.52330  0.31240  Biso   1.000  H
  C43      1.0000 0.64270  0.59920  0.33330  Biso   1.000  C
  H20      1.0000 0.61690  0.58410  0.42110  Biso   1.000  H
  C44      1.0000 0.45140  0.69550  0.34050  Biso   1.000  C
  Cd4      1.0000 0.24810  0.76974  0.05894  Biso   1.000  Cd
  O13      1.0000 0.19900  0.66340  0.97100  Biso   1.000  O
  O14      1.0000 0.06190  0.67830  0.14490  Biso   1.000  O
  O15      1.0000 0.43550  0.67790  0.46390  Biso   1.000  O
  O16      1.0000 0.37570  0.74230  0.27530  Biso   1.000  O
