data_GOSDID_clean
_audit_creation_date              2015-10-16
_audit_creation_method            'Materials Studio'
_symmetry_space_group_name_H-M    'P1'
_symmetry_Int_Tables_number       1
_symmetry_cell_setting            triclinic
loop_
_symmetry_equiv_pos_as_xyz
  x,y,z
_cell_length_a                    15.8225
_cell_length_b                    16.8196
_cell_length_c                    28.4760
_cell_angle_alpha                 96.7000
_cell_angle_beta                  100.2210
_cell_angle_gamma                 109.5970
loop_
_atom_site_label
_atom_site_type_symbol
_atom_site_fract_x
_atom_site_fract_y
_atom_site_fract_z
_atom_site_U_iso_or_equiv
_atom_site_adp_type
_atom_site_occupancy
Zn1    Zn    0.72541   0.76494   0.22552   0.01267  Uiso   1.00
Zn2    Zn    0.71183   0.59183   0.88256   0.01267  Uiso   1.00
Zn3    Zn    0.25754   0.17382   0.40692   0.01267  Uiso   1.00
Zn4    Zn    0.92688   0.74062   0.28924   0.01267  Uiso   1.00
Zn5    Zn    0.74246   0.82618   0.59308   0.01267  Uiso   1.00
Zn6    Zn    0.82798   0.02548   0.68968   0.01267  Uiso   1.00
Zn7    Zn    0.35296   0.59493   0.21057   0.01267  Uiso   1.00
Zn8    Zn    0.28817   0.40817   0.11744   0.01267  Uiso   1.00
Zn9    Zn    0.17202   0.97452   0.31032   0.01267  Uiso   1.00
Zn10   Zn    0.27459   0.23506   0.77448   0.01267  Uiso   1.00
Zn11   Zn    0.64704   0.40507   0.78943   0.01267  Uiso   1.00
Zn12   Zn    0.07312   0.25938   0.71076   0.01267  Uiso   1.00
H1     H     0.23190   0.99080   0.02780   0.01267  Uiso   1.00
H2     H     0.32900   0.48730   0.46480   0.01267  Uiso   1.00
H3     H     0.23790   0.08800   0.86300   0.01267  Uiso   1.00
H4     H     0.79160   0.40060   0.22210   0.01267  Uiso   1.00
H5     H     0.48350   0.28620   0.35540   0.01267  Uiso   1.00
H6     H     0.20840   0.59940   0.77790   0.01267  Uiso   1.00
H7     H     0.40330   0.05490   0.26280   0.01267  Uiso   1.00
H8     H     0.61280   0.48380   0.13040   0.01267  Uiso   1.00
H9     H     0.54060   0.95830   0.17040   0.01267  Uiso   1.00
H10    H     0.15580   0.60880   0.13990   0.01267  Uiso   1.00
H11    H     0.57300   0.17760   0.93750   0.01267  Uiso   1.00
H12    H     0.20430   0.62060   0.96650   0.01267  Uiso   1.00
H13    H     0.09820   0.82360   0.38960   0.01267  Uiso   1.00
H14    H     0.76290   0.87350   0.93900   0.01267  Uiso   1.00
H15    H     0.00060   0.68100   0.69000   0.01267  Uiso   1.00
H16    H     0.66350   0.11180   0.96550   0.01267  Uiso   1.00
H17    H     0.45940   0.04170   0.82960   0.01267  Uiso   1.00
H18    H     0.78900   0.46710   0.97880   0.01267  Uiso   1.00
H19    H     0.80890   0.28950   0.78710   0.01267  Uiso   1.00
H20    H     0.04740   0.44670   0.50590   0.01267  Uiso   1.00
H21    H     0.85520   0.38580   0.13050   0.01267  Uiso   1.00
H22    H     0.25680   0.03550   0.50430   0.01267  Uiso   1.00
H23    H     0.84420   0.39120   0.86010   0.01267  Uiso   1.00
H24    H     0.53740   0.90410   0.01580   0.01267  Uiso   1.00
H25    H     0.33650   0.88820   0.03450   0.01267  Uiso   1.00
H26    H     0.53470   0.76720   0.98410   0.01267  Uiso   1.00
H27    H     0.92150   0.67480   0.52910   0.01267  Uiso   1.00
H28    H     0.12030   0.47760   0.82200   0.01267  Uiso   1.00
H29    H     0.19110   0.71050   0.21290   0.01267  Uiso   1.00
H30    H     0.24240   0.05640   0.69460   0.01267  Uiso   1.00
H31    H     0.24350   0.56040   0.60140   0.01267  Uiso   1.00
H32    H     0.72750   0.15980   0.28310   0.01267  Uiso   1.00
H33    H     0.00700   0.01890   0.39880   0.01267  Uiso   1.00
H34    H     0.69890   0.39160   0.49730   0.01267  Uiso   1.00
H35    H     0.98900   0.56380   0.60460   0.01267  Uiso   1.00
H36    H     0.99940   0.31900   0.31000   0.01267  Uiso   1.00
H37    H     0.76210   0.91200   0.13700   0.01267  Uiso   1.00
H38    H     0.52410   0.25890   0.19270   0.01267  Uiso   1.00
H39    H     0.03570   0.27540   0.14860   0.01267  Uiso   1.00
H40    H     0.01100   0.43620   0.39540   0.01267  Uiso   1.00
H41    H     0.43870   0.94070   0.87510   0.01267  Uiso   1.00
H42    H     0.59670   0.94510   0.73720   0.01267  Uiso   1.00
H43    H     0.77990   0.01590   0.08980   0.01267  Uiso   1.00
H44    H     0.08260   0.73250   0.44210   0.01267  Uiso   1.00
H45    H     0.93890   0.72260   0.16790   0.01267  Uiso   1.00
H46    H     0.75540   0.05840   0.44350   0.01267  Uiso   1.00
H47    H     0.46040   0.89210   0.76290   0.01267  Uiso   1.00
H48    H     0.74320   0.96450   0.49570   0.01267  Uiso   1.00
H49    H     0.19020   0.92240   0.76470   0.01267  Uiso   1.00
H50    H     0.90410   0.47360   0.77230   0.01267  Uiso   1.00
H51    H     0.69290   0.20250   0.13030   0.01267  Uiso   1.00
H52    H     0.96430   0.72460   0.85140   0.01267  Uiso   1.00
H53    H     0.10680   0.25630   0.33440   0.01267  Uiso   1.00
H54    H     0.51650   0.71380   0.64460   0.01267  Uiso   1.00
H55    H     0.38720   0.51620   0.86960   0.01267  Uiso   1.00
H56    H     0.67100   0.51270   0.53520   0.01267  Uiso   1.00
H57    H     0.46530   0.23280   0.01590   0.01267  Uiso   1.00
H58    H     0.27250   0.84020   0.71690   0.01267  Uiso   1.00
H59    H     0.58340   0.34440   0.08510   0.01267  Uiso   1.00
H60    H     0.96270   0.44730   0.64290   0.01267  Uiso   1.00
H61    H     0.62420   0.56470   0.25600   0.01267  Uiso   1.00
H62    H     0.21970   0.45180   0.64220   0.01267  Uiso   1.00
H63    H     0.08810   0.37460   0.90720   0.01267  Uiso   1.00
H64    H     0.80980   0.07760   0.23530   0.01267  Uiso   1.00
H65    H     0.06110   0.27740   0.83210   0.01267  Uiso   1.00
H66    H     0.81710   0.31430   0.51910   0.01267  Uiso   1.00
H67    H     0.88970   0.27320   0.37230   0.01267  Uiso   1.00
H68    H     0.14480   0.61420   0.86950   0.01267  Uiso   1.00
H69    H     0.27260   0.50510   0.72710   0.01267  Uiso   1.00
H70    H     0.42700   0.82240   0.06250   0.01267  Uiso   1.00
H71    H     0.99660   0.14670   0.43900   0.01267  Uiso   1.00
H72    H     0.30110   0.60840   0.50270   0.01267  Uiso   1.00
H73    H     0.03720   0.52820   0.74260   0.01267  Uiso   1.00
H74    H     0.96280   0.47180   0.25740   0.01267  Uiso   1.00
H75    H     0.78030   0.54820   0.35780   0.01267  Uiso   1.00
H76    H     0.22010   0.98410   0.91020   0.01267  Uiso   1.00
H77    H     0.03730   0.55270   0.35710   0.01267  Uiso   1.00
H78    H     0.79570   0.37940   0.03350   0.01267  Uiso   1.00
H79    H     0.95260   0.55330   0.49410   0.01267  Uiso   1.00
H80    H     0.37580   0.43530   0.74400   0.01267  Uiso   1.00
H81    H     0.90180   0.17640   0.61040   0.01267  Uiso   1.00
H82    H     0.99300   0.98110   0.60120   0.01267  Uiso   1.00
H83    H     0.08180   0.98620   0.74390   0.01267  Uiso   1.00
H84    H     0.60820   0.34090   0.32120   0.01267  Uiso   1.00
H85    H     0.72740   0.49490   0.27290   0.01267  Uiso   1.00
H86    H     0.23710   0.12650   0.06100   0.01267  Uiso   1.00
H87    H     0.42770   0.34230   0.17490   0.01267  Uiso   1.00
H88    H     0.30710   0.79750   0.86970   0.01267  Uiso   1.00
H89    H     0.75760   0.94360   0.30540   0.01267  Uiso   1.00
H90    H     0.91070   0.22310   0.18300   0.01267  Uiso   1.00
H91    H     0.91740   0.26750   0.55790   0.01267  Uiso   1.00
H92    H     0.39180   0.65910   0.67880   0.01267  Uiso   1.00
H93    H     0.25810   0.92860   0.65210   0.01267  Uiso   1.00
H94    H     0.89320   0.74370   0.66560   0.01267  Uiso   1.00
H95    H     0.21100   0.53290   0.02120   0.01267  Uiso   1.00
H96    H     0.57230   0.65770   0.82510   0.01267  Uiso   1.00
H97    H     0.41660   0.65560   0.91490   0.01267  Uiso   1.00
H98    H     0.42660   0.73470   0.11610   0.01267  Uiso   1.00
H99    H     0.18290   0.68570   0.48090   0.01267  Uiso   1.00
H100   H     0.47590   0.74110   0.80730   0.01267  Uiso   1.00
H101   H     0.56130   0.05930   0.12490   0.01267  Uiso   1.00
H102   H     0.91190   0.62540   0.09280   0.01267  Uiso   1.00
H103   H     0.76810   0.00920   0.97220   0.01267  Uiso   1.00
H104   H     0.07850   0.32520   0.47090   0.01267  Uiso   1.00
H105   H     0.46260   0.09590   0.98420   0.01267  Uiso   1.00
H106   H     0.57340   0.26530   0.88390   0.01267  Uiso   1.00
H107   H     0.53960   0.10790   0.23710   0.01267  Uiso   1.00
H108   H     0.75650   0.43960   0.39860   0.01267  Uiso   1.00
H109   H     0.11030   0.72680   0.62770   0.01267  Uiso   1.00
H110   H     0.74190   0.07140   0.34790   0.01267  Uiso   1.00
H111   H     0.08930   0.77690   0.81700   0.01267  Uiso   1.00
H112   H     0.09590   0.52640   0.22770   0.01267  Uiso   1.00
H113   H     0.91820   0.01380   0.25610   0.01267  Uiso   1.00
H114   H     0.87970   0.52240   0.17800   0.01267  Uiso   1.00
H115   H     0.00340   0.85330   0.56100   0.01267  Uiso   1.00
H116   H     0.24460   0.94160   0.55650   0.01267  Uiso   1.00
C1     C     0.32840   0.95520   0.89630   0.01267  Uiso   1.00
C2     C     0.31800   0.78250   0.97890   0.01267  Uiso   1.00
C3     C     0.55950   0.84280   0.68140   0.01267  Uiso   1.00
C4     C     0.31530   0.72550   0.00960   0.01267  Uiso   1.00
C5     C     0.47050   0.85870   0.73670   0.01267  Uiso   1.00
C6     C     0.62970   0.36430   0.23880   0.01267  Uiso   1.00
C7     C     0.65590   0.97590   0.99910   0.01267  Uiso   1.00
C8     C     0.94770   0.28260   0.19020   0.01267  Uiso   1.00
C9     C     0.83410   0.31130   0.48870   0.01267  Uiso   1.00
C10    C     0.32410   0.57470   0.10450   0.01267  Uiso   1.00
C11    C     0.35090   0.12890   0.81340   0.01267  Uiso   1.00
C12    C     0.18720   0.53750   0.61120   0.01267  Uiso   1.00
C13    C     0.33450   0.92960   0.97520   0.01267  Uiso   1.00
C14    C     0.80390   0.00730   0.58770   0.01267  Uiso   1.00
C15    C     0.22250   0.65040   0.76470   0.01267  Uiso   1.00
C16    C     0.67770   0.25040   0.26640   0.01267  Uiso   1.00
C17    C     0.74540   0.44720   0.50340   0.01267  Uiso   1.00
C18    C     0.15500   0.62260   0.53220   0.01267  Uiso   1.00
C19    C     0.66550   0.07040   0.02480   0.01267  Uiso   1.00
C20    C     0.69460   0.25040   0.07080   0.01267  Uiso   1.00
C21    C     0.04130   0.61950   0.10200   0.01267  Uiso   1.00
C22    C     0.21690   0.92220   0.52270   0.01267  Uiso   1.00
C23    C     0.88520   0.36150   0.85740   0.01267  Uiso   1.00
C24    C     0.79730   0.61110   0.53480   0.01267  Uiso   1.00
C25    C     0.98070   0.43530   0.23650   0.01267  Uiso   1.00
C26    C     0.95240   0.77660   0.68590   0.01267  Uiso   1.00
C27    C     0.61530   0.28480   0.91480   0.01267  Uiso   1.00
C28    C     0.30540   0.74960   0.92920   0.01267  Uiso   1.00
C29    C     0.45680   0.68200   0.79320   0.01267  Uiso   1.00
C30    C     0.07950   0.36760   0.66860   0.01267  Uiso   1.00
C31    C     0.18020   0.51040   0.84160   0.01267  Uiso   1.00
C32    C     0.38470   0.71520   0.08520   0.01267  Uiso   1.00
C33    C     0.01930   0.56470   0.76350   0.01267  Uiso   1.00
C34    C     0.66520   0.46370   0.25590   0.01267  Uiso   1.00
C35    C     0.32230   0.74960   0.73360   0.01267  Uiso   1.00
C36    C     0.88270   0.20770   0.54770   0.01267  Uiso   1.00
C37    C     0.92640   0.25930   0.80260   0.01267  Uiso   1.00
C38    C     0.28150   0.03930   0.02470   0.01267  Uiso   1.00
C39    C     0.52950   0.14130   0.26330   0.01267  Uiso   1.00
C40    C     0.97100   0.64600   0.11450   0.01267  Uiso   1.00
C41    C     0.94240   0.53280   0.78060   0.01267  Uiso   1.00
C42    C     0.84500   0.37740   0.46780   0.01267  Uiso   1.00
C43    C     0.86120   0.21310   0.42370   0.01267  Uiso   1.00
C44    C     0.75350   0.52240   0.15790   0.01267  Uiso   1.00
C45    C     0.17250   0.54320   0.50900   0.01267  Uiso   1.00
C46    C     0.57210   0.28130   0.31460   0.01267  Uiso   1.00
C47    C     0.13010   0.88880   0.74570   0.01267  Uiso   1.00
C48    C     0.82750   0.45680   0.49100   0.01267  Uiso   1.00
C49    C     0.98010   0.52700   0.36550   0.01267  Uiso   1.00
C50    C     0.05230   0.71740   0.80980   0.01267  Uiso   1.00
C51    C     0.68030   0.37170   0.92850   0.01267  Uiso   1.00
C52    C     0.89420   0.54380   0.50150   0.01267  Uiso   1.00
C53    C     0.86570   0.35940   0.42250   0.01267  Uiso   1.00
C54    C     0.19610   0.99270   0.41230   0.01267  Uiso   1.00
C55    C     0.05760   0.46720   0.21940   0.01267  Uiso   1.00
C56    C     0.94760   0.10910   0.41320   0.01267  Uiso   1.00
C57    C     0.42790   0.71870   0.68540   0.01267  Uiso   1.00
C58    C     0.44990   0.10850   0.27870   0.01267  Uiso   1.00
C59    C     0.35500   0.29010   0.06360   0.01267  Uiso   1.00
C60    C     0.58360   0.81580   0.98050   0.01267  Uiso   1.00
C61    C     0.33100   0.87340   0.00060   0.01267  Uiso   1.00
C62    C     0.92530   0.34210   0.22180   0.01267  Uiso   1.00
C63    C     0.64500   0.70990   0.93640   0.01267  Uiso   1.00
C64    C     0.32620   0.89710   0.92520   0.01267  Uiso   1.00
C65    C     0.39420   0.49570   0.75400   0.01267  Uiso   1.00
C66    C     0.39860   0.97200   0.87190   0.01267  Uiso   1.00
C67    C     0.97910   0.68810   0.82880   0.01267  Uiso   1.00
C68    C     0.15400   0.76770   0.53090   0.01267  Uiso   1.00
C69    C     0.20270   0.38890   0.46520   0.01267  Uiso   1.00
C70    C     0.66320   0.46520   0.13050   0.01267  Uiso   1.00
C71    C     0.13430   0.64060   0.57750   0.01267  Uiso   1.00
C72    C     0.72310   0.94440   0.13400   0.01267  Uiso   1.00
C73    C     0.41640   0.18420   0.01950   0.01267  Uiso   1.00
C74    C     0.68470   0.27450   0.99040   0.01267  Uiso   1.00
C75    C     0.04800   0.97050   0.61180   0.01267  Uiso   1.00
C76    C     0.90950   0.18930   0.75630   0.01267  Uiso   1.00
C77    C     0.82590   0.24170   0.25910   0.01267  Uiso   1.00
C78    C     0.77750   0.34960   0.23530   0.01267  Uiso   1.00
C79    C     0.81980   0.48960   0.15840   0.01267  Uiso   1.00
C80    C     0.19530   0.01900   0.66790   0.01267  Uiso   1.00
C81    C     0.04760   0.22340   0.31410   0.01267  Uiso   1.00
C82    C     0.92050   0.63240   0.33140   0.01267  Uiso   1.00
C83    C     0.40630   0.78110   0.71620   0.01267  Uiso   1.00
C84    C     0.36080   0.12790   0.33870   0.01267  Uiso   1.00
C85    C     0.87390   0.15720   0.57670   0.01267  Uiso   1.00
C86    C     0.15660   0.68890   0.75990   0.01267  Uiso   1.00
C87    C     0.67160   0.04480   0.10370   0.01267  Uiso   1.00
C88    C     0.77470   0.02470   0.50610   0.01267  Uiso   1.00
C89    C     0.19600   0.59650   0.87050   0.01267  Uiso   1.00
C90    C     0.83610   0.16890   0.49690   0.01267  Uiso   1.00
C91    C     0.64910   0.87110   0.18660   0.01267  Uiso   1.00
C92    C     0.03510   0.53990   0.61230   0.01267  Uiso   1.00
C93    C     0.58980   0.97240   0.15430   0.01267  Uiso   1.00
C94    C     0.67590   0.42530   0.89550   0.01267  Uiso   1.00
C95    C     0.48590   0.36840   0.19730   0.01267  Uiso   1.00
C96    C     0.18280   0.93540   0.44430   0.01267  Uiso   1.00
C97    C     0.73210   0.00290   0.10690   0.01267  Uiso   1.00
C98    C     0.17410   0.75830   0.74090   0.01267  Uiso   1.00
C99    C     0.07800   0.40480   0.18740   0.01267  Uiso   1.00
C100   C     0.86370   0.30070   0.81100   0.01267  Uiso   1.00
C101   C     0.78310   0.07780   0.47730   0.01267  Uiso   1.00
C102   C     0.83350   0.56070   0.82900   0.01267  Uiso   1.00
C103   C     0.92200   0.59520   0.81260   0.01267  Uiso   1.00
C104   C     0.98540   0.25920   0.30040   0.01267  Uiso   1.00
C105   C     0.86990   0.11120   0.25430   0.01267  Uiso   1.00
C106   C     0.61490   0.23550   0.94420   0.01267  Uiso   1.00
C107   C     0.13880   0.78690   0.57630   0.01267  Uiso   1.00
C108   C     0.71850   0.96070   0.97530   0.01267  Uiso   1.00
C109   C     0.09050   0.81070   0.24370   0.01267  Uiso   1.00
C110   C     0.31970   0.62830   0.07150   0.01267  Uiso   1.00
C111   C     0.11820   0.03490   0.65100   0.01267  Uiso   1.00
C112   C     0.22530   0.97530   0.49390   0.01267  Uiso   1.00
C113   C     0.16590   0.68870   0.51130   0.01267  Uiso   1.00
C114   C     0.89550   0.20290   0.27040   0.01267  Uiso   1.00
C115   C     0.30430   0.67920   0.75230   0.01267  Uiso   1.00
C116   C     0.88300   0.42710   0.39890   0.01267  Uiso   1.00
C117   C     0.51270   0.45190   0.21940   0.01267  Uiso   1.00
C118   C     0.58540   0.90050   0.00090   0.01267  Uiso   1.00
C119   C     0.93230   0.07350   0.26650   0.01267  Uiso   1.00
C120   C     0.77090   0.61310   0.19170   0.01267  Uiso   1.00
C121   C     0.66900   0.12660   0.99940   0.01267  Uiso   1.00
C122   C     0.11700   0.57290   0.60110   0.01267  Uiso   1.00
C123   C     0.37030   0.63570   0.76120   0.01267  Uiso   1.00
C124   C     0.13000   0.87310   0.60220   0.01267  Uiso   1.00
C125   C     0.50140   0.75050   0.66690   0.01267  Uiso   1.00
C126   C     0.79750   0.06170   0.35800   0.01267  Uiso   1.00
C127   C     0.27220   0.47830   0.47400   0.01267  Uiso   1.00
C128   C     0.17300   0.47470   0.63360   0.01267  Uiso   1.00
C129   C     0.98830   0.70620   0.16150   0.01267  Uiso   1.00
C130   C     0.45090   0.50130   0.21010   0.01267  Uiso   1.00
C131   C     0.91060   0.90890   0.68800   0.01267  Uiso   1.00
C132   C     0.64700   0.80010   0.95620   0.01267  Uiso   1.00
C133   C     0.81280   0.46250   0.38880   0.01267  Uiso   1.00
C134   C     0.02900   0.35400   0.88550   0.01267  Uiso   1.00
C135   C     0.87380   0.27780   0.40290   0.01267  Uiso   1.00
C136   C     0.54910   0.49870   0.78990   0.01267  Uiso   1.00
C137   C     0.72780   0.52170   0.52600   0.01267  Uiso   1.00
C138   C     0.10450   0.79710   0.72960   0.01267  Uiso   1.00
C139   C     0.27690   0.05560   0.86600   0.01267  Uiso   1.00
C140   C     0.35300   0.19990   0.04380   0.01267  Uiso   1.00
C141   C     0.63920   0.87210   0.66130   0.01267  Uiso   1.00
C142   C     0.07360   0.74070   0.19740   0.01267  Uiso   1.00
C143   C     0.20250   0.93830   0.64200   0.01267  Uiso   1.00
C144   C     0.31200   0.81090   0.90370   0.01267  Uiso   1.00
C145   C     0.08940   0.09110   0.31200   0.01267  Uiso   1.00
C146   C     0.60580   0.50430   0.24600   0.01267  Uiso   1.00
C147   C     0.11730   0.79230   0.45230   0.01267  Uiso   1.00
C148   C     0.28460   0.12350   0.04540   0.01267  Uiso   1.00
C149   C     0.64480   0.37840   0.10220   0.01267  Uiso   1.00
C150   C     0.11480   0.63850   0.14260   0.01267  Uiso   1.00
C151   C     0.41460   0.09950   0.99910   0.01267  Uiso   1.00
C152   C     0.01460   0.74080   0.69960   0.01267  Uiso   1.00
C153   C     0.97520   0.44480   0.94550   0.01267  Uiso   1.00
C154   C     0.74240   0.21170   0.27080   0.01267  Uiso   1.00
C155   C     0.80400   0.40350   0.12950   0.01267  Uiso   1.00
C156   C     0.87510   0.61920   0.52340   0.01267  Uiso   1.00
C157   C     0.84340   0.31110   0.24010   0.01267  Uiso   1.00
C158   C     0.01170   0.29380   0.83850   0.01267  Uiso   1.00
C159   C     0.82700   0.52530   0.36640   0.01267  Uiso   1.00
C160   C     0.88850   0.87670   0.32260   0.01267  Uiso   1.00
C161   C     0.81720   0.06460   0.55570   0.01267  Uiso   1.00
C162   C     0.06770   0.92650   0.73350   0.01267  Uiso   1.00
C163   C     0.88180   0.96510   0.34900   0.01267  Uiso   1.00
C164   C     0.84600   0.23230   0.46910   0.01267  Uiso   1.00
C165   C     0.34410   0.02410   0.00090   0.01267  Uiso   1.00
C166   C     0.55010   0.89150   0.72130   0.01267  Uiso   1.00
C167   C     0.16650   0.43930   0.17100   0.01267  Uiso   1.00
C168   C     0.65320   0.93340   0.15790   0.01267  Uiso   1.00
C169   C     0.24650   0.47760   0.84210   0.01267  Uiso   1.00
C170   C     0.24870   0.64010   0.99660   0.01267  Uiso   1.00
C171   C     0.80470   0.98100   0.33210   0.01267  Uiso   1.00
C172   C     0.96490   0.46010   0.38770   0.01267  Uiso   1.00
C173   C     0.51410   0.63160   0.80270   0.01267  Uiso   1.00
C174   C     0.41020   0.02760   0.84570   0.01267  Uiso   1.00
C175   C     0.22910   0.38690   0.80830   0.01267  Uiso   1.00
C176   C     0.02480   0.55520   0.05450   0.01267  Uiso   1.00
C177   C     0.11150   0.12330   0.67740   0.01267  Uiso   1.00
C178   C     0.12610   0.84280   0.42330   0.01267  Uiso   1.00
C179   C     0.98130   0.87240   0.70450   0.01267  Uiso   1.00
C180   C     0.87000   0.12690   0.39780   0.01267  Uiso   1.00
C181   C     0.71370   0.34470   0.09960   0.01267  Uiso   1.00
C182   C     0.44050   0.15720   0.31860   0.01267  Uiso   1.00
C183   C     0.34680   0.06660   0.84210   0.01267  Uiso   1.00
C184   C     0.35520   0.62160   0.89780   0.01267  Uiso   1.00
C185   C     0.59370   0.21890   0.28380   0.01267  Uiso   1.00
C186   C     0.05240   0.89090   0.58680   0.01267  Uiso   1.00
C187   C     0.12620   0.72220   0.59710   0.01267  Uiso   1.00
C188   C     0.69570   0.32080   0.24770   0.01267  Uiso   1.00
C189   C     0.25190   0.59110   0.02750   0.01267  Uiso   1.00
C190   C     0.01870   0.12760   0.29550   0.01267  Uiso   1.00
C191   C     0.09140   0.44170   0.64490   0.01267  Uiso   1.00
C192   C     0.25760   0.78830   0.72920   0.01267  Uiso   1.00
C193   C     0.68200   0.21750   0.02110   0.01267  Uiso   1.00
C194   C     0.68800   0.18910   0.09630   0.01267  Uiso   1.00
C195   C     0.12490   0.38080   0.47660   0.01267  Uiso   1.00
C196   C     0.77400   0.68960   0.55540   0.01267  Uiso   1.00
C197   C     0.38510   0.76450   0.05580   0.01267  Uiso   1.00
C198   C     0.95870   0.38050   0.89800   0.01267  Uiso   1.00
C199   C     0.75130   0.35990   0.00340   0.01267  Uiso   1.00
C200   C     0.26790   0.99710   0.89310   0.01267  Uiso   1.00
C201   C     0.28630   0.65530   0.90040   0.01267  Uiso   1.00
C202   C     0.54320   0.31800   0.20680   0.01267  Uiso   1.00
C203   C     0.60140   0.02800   0.12810   0.01267  Uiso   1.00
C204   C     0.13630   0.69930   0.18900   0.01267  Uiso   1.00
C205   C     0.74810   0.40890   0.97250   0.01267  Uiso   1.00
C206   C     0.49860   0.24950   0.33310   0.01267  Uiso   1.00
C207   C     0.33480   0.53630   0.74410   0.01267  Uiso   1.00
C208   C     0.07470   0.65790   0.77820   0.01267  Uiso   1.00
C209   C     0.10580   0.45620   0.49850   0.01267  Uiso   1.00
C210   C     0.22600   0.31040   0.44460   0.01267  Uiso   1.00
C211   C     0.02090   0.31190   0.17120   0.01267  Uiso   1.00
C212   C     0.71540   0.87650   0.95460   0.01267  Uiso   1.00
C213   C     0.16390   0.83110   0.50310   0.01267  Uiso   1.00
C214   C     0.48730   0.54810   0.78060   0.01267  Uiso   1.00
C215   C     0.25460   0.55280   0.49660   0.01267  Uiso   1.00
C216   C     0.67380   0.10290   0.07480   0.01267  Uiso   1.00
C217   C     0.33680   0.53480   0.86950   0.01267  Uiso   1.00
C218   C     0.95200   0.02950   0.38820   0.01267  Uiso   1.00
C219   C     0.90860   0.55830   0.35510   0.01267  Uiso   1.00
C220   C     0.01990   0.47300   0.63450   0.01267  Uiso   1.00
O1     O     0.70320   0.94710   0.68740   0.01267  Uiso   1.00
O2     O     0.16200   0.17160   0.71820   0.01267  Uiso   1.00
O3     O     0.28660   0.35390   0.81120   0.01267  Uiso   1.00
O4     O     0.63990   0.82530   0.62270   0.01267  Uiso   1.00
O5     O     0.14690   0.34280   0.67660   0.01267  Uiso   1.00
O6     O     0.36730   0.45380   0.18350   0.01267  Uiso   1.00
O7     O     0.03620   0.80830   0.26830   0.01267  Uiso   1.00
O8     O     0.01020   0.58270   0.01440   0.01267  Uiso   1.00
O9     O     0.36010   0.17470   0.37730   0.01267  Uiso   1.00
O10    O     0.00470   0.34280   0.67900   0.01267  Uiso   1.00
O11    O     0.01540   0.47330   0.04670   0.01267  Uiso   1.00
O12    O     0.04740   0.14040   0.65830   0.01267  Uiso   1.00
O13    O     0.17590   0.23510   0.44500   0.01267  Uiso   1.00
O14    O     0.70730   0.68550   0.56940   0.01267  Uiso   1.00
O15    O     0.58620   0.64230   0.93890   0.01267  Uiso   1.00
O16    O     0.71090   0.84320   0.19010   0.01267  Uiso   1.00
O17    O     0.06940   0.01030   0.29170   0.01267  Uiso   1.00
O18    O     0.28910   0.15680   0.80990   0.01267  Uiso   1.00
O19    O     0.82050   0.05320   0.63205   0.01267  Uiso   1.00
O20    O     0.58280   0.85120   0.20500   0.01267  Uiso   1.00
O21    O     0.85310   0.65720   0.32340   0.01267  Uiso   1.00
O22    O     0.70830   0.70400   0.91430   0.01267  Uiso   1.00
O23    O     0.98980   0.41730   0.98560   0.01267  Uiso   1.00
O24    O     0.16530   0.14650   0.34510   0.01267  Uiso   1.00
O25    O     0.83470   0.85350   0.65490   0.01267  Uiso   1.00
O26    O     0.77780   0.92590   0.56905   0.01267  Uiso   1.00
O27    O     0.82410   0.76490   0.55500   0.01267  Uiso   1.00
O28    O     0.47800   0.58620   0.22890   0.01267  Uiso   1.00
O29    O     0.85120   0.65330   0.22340   0.01267  Uiso   1.00
O30    O     0.52200   0.41380   0.77110   0.01267  Uiso   1.00
O31    O     0.29680   0.05290   0.31260   0.01267  Uiso   1.00
O32    O     0.98460   0.52670   0.95330   0.01267  Uiso   1.00
O33    O     0.41720   0.14880   0.79500   0.01267  Uiso   1.00
O34    O     0.41380   0.35770   0.06110   0.01267  Uiso   1.00
O35    O     0.95260   0.85960   0.34170   0.01267  Uiso   1.00
O36    O     0.14880   0.34670   0.77660   0.01267  Uiso   1.00
O37    O     0.93060   0.98970   0.70830   0.01267  Uiso   1.00
O38    O     0.83560   0.12880   0.74170   0.01267  Uiso   1.00
O39    O     0.96380   0.19170   0.73170   0.01267  Uiso   1.00
O40    O     0.36060   0.61700   0.14810   0.01267  Uiso   1.00
O41    O     0.63270   0.54620   0.81650   0.01267  Uiso   1.00
O42    O     0.99530   0.65720   0.32100   0.01267  Uiso   1.00
O43    O     0.17950   0.94680   0.36795   0.01267  Uiso   1.00
O44    O     0.71340   0.64610   0.18880   0.01267  Uiso   1.00
O45    O     0.29170   0.29600   0.08570   0.01267  Uiso   1.00
O46    O     0.63940   0.38300   0.85190   0.01267  Uiso   1.00
O47    O     0.22220   0.07410   0.43095   0.01267  Uiso   1.00
O48    O     0.28470   0.48990   0.08321   0.01267  Uiso   1.00
O49    O     0.17780   0.37800   0.13980   0.01267  Uiso   1.00
O50    O     0.83800   0.82840   0.28180   0.01267  Uiso   1.00
O51    O     0.71530   0.51010   0.91679   0.01267  Uiso   1.00
O52    O     0.78460   0.47950   0.81300   0.01267  Uiso   1.00
O53    O     0.16440   0.87120   0.25830   0.01267  Uiso   1.00
O54    O     0.29270   0.31450   0.43060   0.01267  Uiso   1.00
O55    O     0.21540   0.52050   0.18700   0.01267  Uiso   1.00
O56    O     0.82220   0.62200   0.86020   0.01267  Uiso   1.00
