data_GOSKEG_clean
_audit_creation_date              2015-10-16
_audit_creation_method            'Materials Studio'
_symmetry_space_group_name_H-M    'P1'
_symmetry_Int_Tables_number       1
_symmetry_cell_setting            triclinic
loop_
_symmetry_equiv_pos_as_xyz
  x,y,z
_cell_length_a                    10.1170
_cell_length_b                    29.5390
_cell_length_c                    29.5560
_cell_angle_alpha                 91.4460
_cell_angle_beta                  93.3210
_cell_angle_gamma                 91.6150
loop_
_atom_site_label
_atom_site_type_symbol
_atom_site_fract_x
_atom_site_fract_y
_atom_site_fract_z
_atom_site_U_iso_or_equiv
_atom_site_adp_type
_atom_site_occupancy
Zn1    Zn    0.89940   0.23206   0.77574   0.01267  Uiso   1.00
Zn2    Zn    0.25868   0.40600   0.59359   0.01267  Uiso   1.00
Zn3    Zn    0.26718   0.03857   0.59677   0.01267  Uiso   1.00
Zn4    Zn    0.60471   0.22766   0.76648   0.01267  Uiso   1.00
Zn5    Zn    0.23600   0.40468   0.96225   0.01267  Uiso   1.00
Zn6    Zn    0.24767   0.05175   0.94888   0.01267  Uiso   1.00
H1     H     0.12270   0.78920   0.75810   0.01267  Uiso   1.00
H2     H     0.37700   0.02660   0.04220   0.01267  Uiso   1.00
H3     H     0.24910   0.57350   0.59460   0.01267  Uiso   1.00
H4     H     0.54200   0.13040   0.87170   0.01267  Uiso   1.00
H5     H     0.08960   0.13840   0.07580   0.01267  Uiso   1.00
H6     H     0.13340   0.95840   0.97420   0.01267  Uiso   1.00
H7     H     0.36070   0.49810   0.98490   0.01267  Uiso   1.00
H8     H     0.04050   0.14660   0.14090   0.01267  Uiso   1.00
H9     H     0.15400   0.07500   0.36750   0.01267  Uiso   1.00
H10    H     0.13110   0.29010   0.47760   0.01267  Uiso   1.00
H11    H     0.35460   0.21760   0.35800   0.01267  Uiso   1.00
H12    H     0.34740   0.63340   0.92630   0.01267  Uiso   1.00
H13    H     0.43090   0.95220   0.59160   0.01267  Uiso   1.00
H14    H     0.56850   0.32910   0.66920   0.01267  Uiso   1.00
H15    H     0.45300   0.85980   0.85040   0.01267  Uiso   1.00
H16    H     0.15950   0.01520   0.50060   0.01267  Uiso   1.00
H17    H     0.74590   0.04650   0.95330   0.01267  Uiso   1.00
H18    H     0.38100   0.13000   0.25110   0.01267  Uiso   1.00
H19    H     0.04240   0.18690   0.20880   0.01267  Uiso   1.00
H20    H     0.43960   0.82310   0.65780   0.01267  Uiso   1.00
H21    H     0.10350   0.52310   0.85810   0.01267  Uiso   1.00
H22    H     0.35210   0.15010   0.48330   0.01267  Uiso   1.00
H23    H     0.12470   0.75100   0.86870   0.01267  Uiso   1.00
H24    H     0.43310   0.88230   0.62370   0.01267  Uiso   1.00
H25    H     0.77370   0.03460   0.59040   0.01267  Uiso   1.00
H26    H     0.45990   0.79150   0.81210   0.01267  Uiso   1.00
H27    H     0.38940   0.27860   0.14540   0.01267  Uiso   1.00
H28    H     0.37130   0.18100   0.42490   0.01267  Uiso   1.00
H29    H     0.29440   0.39920   0.42820   0.01267  Uiso   1.00
H30    H     0.40190   0.31630   0.09030   0.01267  Uiso   1.00
H31    H     0.94140   0.12730   0.87100   0.01267  Uiso   1.00
H32    H     0.29380   0.12380   0.55350   0.01267  Uiso   1.00
H33    H     0.09370   0.90810   0.67750   0.01267  Uiso   1.00
H34    H     0.34110   0.35580   0.36970   0.01267  Uiso   1.00
H35    H     0.37800   0.23860   0.21190   0.01267  Uiso   1.00
H36    H     0.39180   0.52070   0.70890   0.01267  Uiso   1.00
H37    H     0.36560   0.70090   0.88720   0.01267  Uiso   1.00
H38    H     0.16640   0.69700   0.68470   0.01267  Uiso   1.00
H39    H     0.91590   0.32970   0.88050   0.01267  Uiso   1.00
H40    H     0.35810   0.04830   0.11790   0.01267  Uiso   1.00
H41    H     0.58600   0.12000   0.67050   0.01267  Uiso   1.00
H42    H     0.35740   0.45050   0.67500   0.01267  Uiso   1.00
H43    H     0.40350   0.35280   0.02290   0.01267  Uiso   1.00
H44    H     0.03110   0.28280   0.40800   0.01267  Uiso   1.00
H45    H     0.14000   0.11280   0.30000   0.01267  Uiso   1.00
H46    H     0.15500   0.88350   0.95160   0.01267  Uiso   1.00
H47    H     0.37890   0.08910   0.18240   0.01267  Uiso   1.00
H48    H     0.06050   0.34430   0.17550   0.01267  Uiso   1.00
H49    H     0.21250   0.49970   0.56500   0.01267  Uiso   1.00
H50    H     0.31450   0.43090   0.50120   0.01267  Uiso   1.00
H51    H     0.12610   0.81990   0.90940   0.01267  Uiso   1.00
H52    H     0.14830   0.64460   0.78190   0.01267  Uiso   1.00
H53    H     0.47240   0.65780   0.76460   0.01267  Uiso   1.00
H54    H     0.18100   0.04430   0.42890   0.01267  Uiso   1.00
H55    H     0.98600   0.12380   0.67220   0.01267  Uiso   1.00
H56    H     0.05110   0.30320   0.24100   0.01267  Uiso   1.00
H57    H     0.11060   0.11300   0.00280   0.01267  Uiso   1.00
H58    H     0.07440   0.38060   0.11720   0.01267  Uiso   1.00
H59    H     0.11750   0.85630   0.72060   0.01267  Uiso   1.00
H60    H     0.39670   0.92540   0.85760   0.01267  Uiso   1.00
H61    H     0.96450   0.33340   0.67400   0.01267  Uiso   1.00
H62    H     0.45130   0.75690   0.69920   0.01267  Uiso   1.00
H63    H     0.13160   0.57760   0.81910   0.01267  Uiso   1.00
H64    H     0.34480   0.31270   0.30370   0.01267  Uiso   1.00
H65    H     0.47900   0.59070   0.72300   0.01267  Uiso   1.00
H66    H     0.07950   0.41340   0.04770   0.01267  Uiso   1.00
H67    H     0.14230   0.32760   0.54830   0.01267  Uiso   1.00
H68    H     0.51740   0.32860   0.87780   0.01267  Uiso   1.00
H69    H     0.02850   0.24000   0.33930   0.01267  Uiso   1.00
H70    H     0.11850   0.45130   0.89020   0.01267  Uiso   1.00
H71    H     0.73200   0.41010   0.96730   0.01267  Uiso   1.00
H72    H     0.09060   0.97640   0.64040   0.01267  Uiso   1.00
H73    H     0.36110   0.56840   0.95370   0.01267  Uiso   1.00
H74    H     0.76260   0.41310   0.58820   0.01267  Uiso   1.00
H75    H     0.38000   0.99800   0.88350   0.01267  Uiso   1.00
H76    H     0.16750   0.62960   0.64340   0.01267  Uiso   1.00
C1     C     0.11320   0.14410   0.16240   0.01267  Uiso   1.00
C2     C     0.48370   0.38877   0.94478   0.01267  Uiso   1.00
C3     C     0.18520   0.83560   0.71490   0.01267  Uiso   1.00
C4     C     0.19050   0.79620   0.73830   0.01267  Uiso   1.00
C5     C     0.27870   0.33140   0.36440   0.01267  Uiso   1.00
C6     C     0.02040   0.05679   0.61164   0.01267  Uiso   1.00
C7     C     0.19130   0.77347   0.86401   0.01267  Uiso   1.00
C8     C     0.77720   0.05830   0.61280   0.01267  Uiso   1.00
C9     C     0.22470   0.31600   0.15365   0.01267  Uiso   1.00
C10    C     0.29760   0.72387   0.75970   0.01267  Uiso   1.00
C11    C     0.78590   0.12806   0.67724   0.01267  Uiso   1.00
C12    C     0.23270   0.34260   0.11172   0.01267  Uiso   1.00
C13    C     0.16300   0.09980   0.02648   0.01267  Uiso   1.00
C14    C     0.09630   0.28900   0.38700   0.01267  Uiso   1.00
C15    C     0.90250   0.11128   0.66119   0.01267  Uiso   1.00
C16    C     0.25520   0.38320   0.45170   0.01267  Uiso   1.00
C17    C     0.97280   0.39191   0.94630   0.01267  Uiso   1.00
C18    C     0.27540   0.84601   0.68320   0.01267  Uiso   1.00
C19    C     0.31420   0.55710   0.65630   0.01267  Uiso   1.00
C20    C     0.86320   0.08304   0.91422   0.01267  Uiso   1.00
C21    C     0.21520   0.06180   0.45460   0.01267  Uiso   1.00
C22    C     0.22440   0.09704   0.10677   0.01267  Uiso   1.00
C23    C     0.30700   0.50250   0.95800   0.01267  Uiso   1.00
C24    C     0.31990   0.67552   0.87270   0.01267  Uiso   1.00
C25    C     0.25830   0.12412   0.40416   0.01267  Uiso   1.00
C26    C     0.18900   0.95148   0.95030   0.01267  Uiso   1.00
C27    C     0.11990   0.29750   0.22130   0.01267  Uiso   1.00
C28    C     0.31110   0.25950   0.20430   0.01267  Uiso   1.00
C29    C     0.33320   0.47630   0.65820   0.01267  Uiso   1.00
C30    C     0.60520   0.37169   0.92554   0.01267  Uiso   1.00
C31    C     0.20890   0.26470   0.23273   0.01267  Uiso   1.00
C32    C     0.23990   0.59743   0.87610   0.01267  Uiso   1.00
C33    C     0.14280   0.37300   0.09790   0.01267  Uiso   1.00
C34    C     0.30840   0.54470   0.93890   0.01267  Uiso   1.00
C35    C     0.27570   0.89531   0.90183   0.01267  Uiso   1.00
C36    C     0.33290   0.35820   0.04200   0.01267  Uiso   1.00
C37    C     0.41260   0.61170   0.71530   0.01267  Uiso   1.00
C38    C     0.51780   0.39126   0.60637   0.01267  Uiso   1.00
C39    C     0.74440   0.06888   0.93077   0.01267  Uiso   1.00
C40    C     0.16820   0.47590   0.90460   0.01267  Uiso   1.00
C41    C     0.28360   0.72205   0.80470   0.01267  Uiso   1.00
C42    C     0.76720   0.29076   0.71211   0.01267  Uiso   1.00
C43    C     0.88200   0.37629   0.62838   0.01267  Uiso   1.00
C44    C     0.28110   0.30560   0.32500   0.01267  Uiso   1.00
C45    C     0.23610   0.17130   0.32155   0.01267  Uiso   1.00
C46    C     0.18380   0.12750   0.32585   0.01267  Uiso   1.00
C47    C     0.14770   0.39340   0.05630   0.01267  Uiso   1.00
C48    C     0.26940   0.40230   0.49730   0.01267  Uiso   1.00
C49    C     0.62350   0.11837   0.88272   0.01267  Uiso   1.00
C50    C     0.64550   0.37472   0.62549   0.01267  Uiso   1.00
C51    C     0.74180   0.13322   0.86562   0.01267  Uiso   1.00
C52    C     0.26520   0.10170   0.44790   0.01267  Uiso   1.00
C53    C     0.38780   0.79740   0.83040   0.01267  Uiso   1.00
C54    C     0.09600   0.26260   0.34590   0.01267  Uiso   1.00
C55    C     0.18730   0.32250   0.39640   0.01267  Uiso   1.00
C56    C     0.71630   0.32398   0.87289   0.01267  Uiso   1.00
C57    C     0.76340   0.39101   0.61098   0.01267  Uiso   1.00
C58    C     0.83640   0.34063   0.89179   0.01267  Uiso   1.00
C59    C     0.15000   0.11510   0.07010   0.01267  Uiso   1.00
C60    C     0.20850   0.04280   0.49800   0.01267  Uiso   1.00
C61    C     0.50000   0.06912   0.93581   0.01267  Uiso   1.00
C62    C     0.30660   0.12160   0.48480   0.01267  Uiso   1.00
C63    C     0.86070   0.11613   0.88199   0.01267  Uiso   1.00
C64    C     0.19270   0.34570   0.44130   0.01267  Uiso   1.00
C65    C     0.26720   0.67937   0.82920   0.01267  Uiso   1.00
C66    C     0.22980   0.63480   0.66840   0.01267  Uiso   1.00
C67    C     0.66610   0.10878   0.65999   0.01267  Uiso   1.00
C68    C     0.84370   0.37271   0.92664   0.01267  Uiso   1.00
C69    C     0.88230   0.34365   0.66157   0.01267  Uiso   1.00
C70    C     0.72770   0.38802   0.94331   0.01267  Uiso   1.00
C71    C     0.31210   0.11042   0.18700   0.01267  Uiso   1.00
C72    C     0.74070   0.16935   0.82985   0.01267  Uiso   1.00
C73    C     0.28610   0.76463   0.83340   0.01267  Uiso   1.00
C74    C     0.52830   0.05379   0.61023   0.01267  Uiso   1.00
C75    C     0.28860   0.10380   0.52770   0.01267  Uiso   1.00
C76    C     0.21590   0.11680   0.15262   0.01267  Uiso   1.00
C77    C     0.33260   0.33620   0.08240   0.01267  Uiso   1.00
C78    C     0.76820   0.32630   0.67656   0.01267  Uiso   1.00
C79    C     0.66000   0.07462   0.62876   0.01267  Uiso   1.00
C80    C     0.22800   0.67470   0.69350   0.01267  Uiso   1.00
C81    C     0.35240   0.51820   0.67900   0.01267  Uiso   1.00
C82    C     0.16260   0.51940   0.88380   0.01267  Uiso   1.00
C83    C     0.98990   0.06358   0.93140   0.01267  Uiso   1.00
C84    C     0.31210   0.68333   0.73080   0.01267  Uiso   1.00
C85    C     0.26940   0.54870   0.61340   0.01267  Uiso   1.00
C86    C     0.11430   0.16790   0.20320   0.01267  Uiso   1.00
C87    C     0.71280   0.29012   0.83326   0.01267  Uiso   1.00
C88    C     0.36320   0.90210   0.62930   0.01267  Uiso   1.00
C89    C     0.17380   0.34290   0.52300   0.01267  Uiso   1.00
C90    C     0.60090   0.33990   0.89036   0.01267  Uiso   1.00
C91    C     0.32250   0.60170   0.67930   0.01267  Uiso   1.00
C92    C     0.18110   0.60238   0.83330   0.01267  Uiso   1.00
C93    C     0.29300   0.76632   0.73370   0.01267  Uiso   1.00
C94    C     0.64900   0.34129   0.65891   0.01267  Uiso   1.00
C95    C     0.32120   0.16729   0.39979   0.01267  Uiso   1.00
C96    C     0.31020   0.18903   0.36003   0.01267  Uiso   1.00
C97    C     0.26490   0.88888   0.65700   0.01267  Uiso   1.00
C98    C     0.19270   0.64220   0.81090   0.01267  Uiso   1.00
C99    C     0.12570   0.32250   0.18220   0.01267  Uiso   1.00
C100   C     0.30700   0.06300   0.09493   0.01267  Uiso   1.00
C101   C     0.38100   0.77690   0.70380   0.01267  Uiso   1.00
C102   C     0.16570   0.95810   0.63820   0.01267  Uiso   1.00
C103   C     0.20480   0.23970   0.27587   0.01267  Uiso   1.00
C104   C     0.16070   0.32090   0.48050   0.01267  Uiso   1.00
C105   C     0.21820   0.19500   0.27782   0.01267  Uiso   1.00
C106   C     0.00880   0.39463   0.61103   0.01267  Uiso   1.00
C107   C     0.19150   0.81482   0.88820   0.01267  Uiso   1.00
C108   C     0.89560   0.07610   0.62899   0.01267  Uiso   1.00
C109   C     0.79050   0.16719   0.71134   0.01267  Uiso   1.00
C110   C     0.19240   0.26970   0.31606   0.01267  Uiso   1.00
C111   C     0.34250   0.93147   0.88210   0.01267  Uiso   1.00
C112   C     0.31300   0.13466   0.22832   0.01267  Uiso   1.00
C113   C     0.40820   0.65170   0.74030   0.01267  Uiso   1.00
C114   C     0.31940   0.28380   0.16480   0.01267  Uiso   1.00
C115   C     0.23660   0.55382   0.89940   0.01267  Uiso   1.00
C116   C     0.16620   0.91640   0.66010   0.01267  Uiso   1.00
C117   C     0.25100   0.50370   0.59490   0.01267  Uiso   1.00
C118   C     0.21670   0.16510   0.23631   0.01267  Uiso   1.00
C119   C     0.36050   0.94360   0.60980   0.01267  Uiso   1.00
C120   C     0.28570   0.84824   0.88150   0.01267  Uiso   1.00
C121   C     0.62460   0.08550   0.91628   0.01267  Uiso   1.00
C122   C     0.30850   0.63515   0.89640   0.01267  Uiso   1.00
C123   C     0.31680   0.04950   0.04931   0.01267  Uiso   1.00
C124   C     0.38400   0.83790   0.85370   0.01267  Uiso   1.00
C125   C     0.33160   0.97453   0.89712   0.01267  Uiso   1.00
C126   C     0.37370   0.81670   0.67850   0.01267  Uiso   1.00
C127   C     0.19310   0.10460   0.36609   0.01267  Uiso   1.00
C128   C     0.20070   0.90664   0.93645   0.01267  Uiso   1.00
N1     N     0.24490   0.06765   0.01568   0.01267  Uiso   1.00
N2     N     0.26510   0.06102   0.53346   0.01267  Uiso   1.00
N3     N     0.25370   0.98510   0.93099   0.01267  Uiso   1.00
N4     N     0.23510   0.46867   0.94063   0.01267  Uiso   1.00
N5     N     0.23040   0.38580   0.52977   0.01267  Uiso   1.00
N6     N     0.26270   0.97264   0.61520   0.01267  Uiso   1.00
N7     N     0.24130   0.38651   0.02798   0.01267  Uiso   1.00
N8     N     0.28290   0.46973   0.61621   0.01267  Uiso   1.00
O1     O     0.07670   0.37531   0.93140   0.01267  Uiso   1.00
O2     O     0.68000   0.18068   0.72186   0.01267  Uiso   1.00
O3     O     0.37220   0.37048   0.93044   0.01267  Uiso   1.00
O4     O     0.42550   0.06808   0.62737   0.01267  Uiso   1.00
O5     O     0.98690   0.03045   0.95734   0.01267  Uiso   1.00
O6     O     0.85130   0.18367   0.81864   0.01267  Uiso   1.00
O7     O     0.87760   0.27873   0.72800   0.01267  Uiso   1.00
O8     O     0.62920   0.18190   0.81475   0.01267  Uiso   1.00
O9     O     0.00910   0.02785   0.57932   0.01267  Uiso   1.00
O10    O     0.11490   0.37636   0.62525   0.01267  Uiso   1.00
O11    O     0.13070   0.07083   0.63015   0.01267  Uiso   1.00
O12    O     0.60230   0.27670   0.81650   0.01267  Uiso   1.00
O13    O     0.65480   0.27664   0.72279   0.01267  Uiso   1.00
O14    O     0.00510   0.42556   0.58362   0.01267  Uiso   1.00
O15    O     0.39130   0.08352   0.91831   0.01267  Uiso   1.00
O16    O     0.97730   0.42230   0.97618   0.01267  Uiso   1.00
O17    O     0.51350   0.41896   0.57598   0.01267  Uiso   1.00
O18    O     0.90030   0.18229   0.72649   0.01267  Uiso   1.00
O19    O     0.49190   0.41986   0.97459   0.01267  Uiso   1.00
O20    O     0.50660   0.04276   0.96812   0.01267  Uiso   1.00
O21    O     0.82340   0.27806   0.82131   0.01267  Uiso   1.00
O22    O     0.41250   0.37463   0.62171   0.01267  Uiso   1.00
O23    O     0.09580   0.08216   0.91810   0.01267  Uiso   1.00
O24    O     0.52600   0.02398   0.57928   0.01267  Uiso   1.00
Zn7    Zn    0.10060   0.76794   0.22425   0.01267  Uiso   1.00
Zn8    Zn    0.74132   0.59400   0.40641   0.01267  Uiso   1.00
Zn9    Zn    0.73282   0.96143   0.40323   0.01267  Uiso   1.00
Zn10   Zn    0.75233   0.94825   0.05112   0.01267  Uiso   1.00
Zn11   Zn    0.76400   0.59532   0.03775   0.01267  Uiso   1.00
Zn12   Zn    0.39529   0.77234   0.23352   0.01267  Uiso   1.00
H77    H     0.70560   0.60080   0.57180   0.01267  Uiso   1.00
H78    H     0.68550   0.56910   0.49880   0.01267  Uiso   1.00
H79    H     0.87530   0.24900   0.13130   0.01267  Uiso   1.00
H80    H     0.88250   0.14370   0.27940   0.01267  Uiso   1.00
H81    H     0.63890   0.43160   0.04630   0.01267  Uiso   1.00
H82    H     0.26800   0.58990   0.03270   0.01267  Uiso   1.00
H83    H     0.62200   0.76140   0.78810   0.01267  Uiso   1.00
H84    H     0.64540   0.78240   0.64200   0.01267  Uiso   1.00
H85    H     0.62110   0.91090   0.81760   0.01267  Uiso   1.00
H86    H     0.59650   0.64720   0.97710   0.01267  Uiso   1.00
H87    H     0.65890   0.64420   0.63030   0.01267  Uiso   1.00
H88    H     0.89650   0.47690   0.14190   0.01267  Uiso   1.00
H89    H     0.62000   0.00200   0.11650   0.01267  Uiso   1.00
H90    H     0.92050   0.58660   0.95230   0.01267  Uiso   1.00
H91    H     0.87730   0.21080   0.24190   0.01267  Uiso   1.00
H92    H     0.84500   0.11650   0.04840   0.01267  Uiso   1.00
H93    H     0.86000   0.88720   0.70000   0.01267  Uiso   1.00
H94    H     0.70620   0.87620   0.44650   0.01267  Uiso   1.00
H95    H     0.41400   0.88000   0.32950   0.01267  Uiso   1.00
H96    H     0.91040   0.86160   0.92420   0.01267  Uiso   1.00
H97    H     0.59810   0.68370   0.90970   0.01267  Uiso   1.00
H98    H     0.61900   0.87000   0.74890   0.01267  Uiso   1.00
H99    H     0.08410   0.67030   0.11950   0.01267  Uiso   1.00
H100   H     0.93950   0.65570   0.82450   0.01267  Uiso   1.00
H101   H     0.23740   0.58690   0.41180   0.01267  Uiso   1.00
H102   H     0.92560   0.61940   0.88280   0.01267  Uiso   1.00
H103   H     0.45800   0.86960   0.12830   0.01267  Uiso   1.00
H104   H     0.88150   0.54870   0.10980   0.01267  Uiso   1.00
H105   H     0.84050   0.98480   0.49940   0.01267  Uiso   1.00
H106   H     0.62300   0.97340   0.95780   0.01267  Uiso   1.00
H107   H     0.63440   0.29910   0.11280   0.01267  Uiso   1.00
H108   H     0.97150   0.76000   0.66070   0.01267  Uiso   1.00
H109   H     0.86660   0.04160   0.02580   0.01267  Uiso   1.00
H110   H     0.64790   0.84990   0.51670   0.01267  Uiso   1.00
H111   H     0.85170   0.35540   0.21810   0.01267  Uiso   1.00
H112   H     0.54700   0.14020   0.14960   0.01267  Uiso   1.00
H113   H     0.84600   0.92500   0.63250   0.01267  Uiso   1.00
H114   H     0.86890   0.70990   0.52240   0.01267  Uiso   1.00
H115   H     0.56690   0.11770   0.37630   0.01267  Uiso   1.00
H116   H     0.88940   0.88700   0.99720   0.01267  Uiso   1.00
H117   H     0.65260   0.36660   0.07370   0.01267  Uiso   1.00
H118   H     0.78750   0.50030   0.43500   0.01267  Uiso   1.00
H119   H     0.63930   0.50190   0.01510   0.01267  Uiso   1.00
H120   H     0.25410   0.95350   0.04670   0.01267  Uiso   1.00
H121   H     0.96890   0.71720   0.59200   0.01267  Uiso   1.00
H122   H     0.95950   0.85340   0.85910   0.01267  Uiso   1.00
H123   H     0.75090   0.42650   0.40540   0.01267  Uiso   1.00
H124   H     0.65520   0.68730   0.69630   0.01267  Uiso   1.00
H125   H     0.05860   0.87270   0.12900   0.01267  Uiso   1.00
H126   H     0.60820   0.47930   0.29110   0.01267  Uiso   1.00
H127   H     0.83360   0.30300   0.31530   0.01267  Uiso   1.00
H128   H     0.43150   0.67090   0.33080   0.01267  Uiso   1.00
H129   H     0.61060   0.72140   0.85460   0.01267  Uiso   1.00
H130   H     0.64260   0.54950   0.32500   0.01267  Uiso   1.00
H131   H     0.90630   0.09190   0.32250   0.01267  Uiso   1.00
H132   H     0.56040   0.17690   0.34220   0.01267  Uiso   1.00
H133   H     0.83250   0.37040   0.35660   0.01267  Uiso   1.00
H134   H     0.90940   0.02360   0.35960   0.01267  Uiso   1.00
H135   H     0.52760   0.34220   0.23540   0.01267  Uiso   1.00
H136   H     0.48260   0.67140   0.12220   0.01267  Uiso   1.00
H137   H     0.60330   0.07460   0.14240   0.01267  Uiso   1.00
H138   H     0.03550   0.66660   0.32600   0.01267  Uiso   1.00
H139   H     0.01400   0.87620   0.32780   0.01267  Uiso   1.00
H140   H     0.87390   0.18010   0.09060   0.01267  Uiso   1.00
H141   H     0.86840   0.42240   0.18090   0.01267  Uiso   1.00
H142   H     0.62870   0.81900   0.57510   0.01267  Uiso   1.00
H143   H     0.81900   0.95570   0.57110   0.01267  Uiso   1.00
H144   H     0.64190   0.95170   0.88210   0.01267  Uiso   1.00
H145   H     0.85770   0.67240   0.45170   0.01267  Uiso   1.00
H146   H     0.22630   0.96540   0.40960   0.01267  Uiso   1.00
H147   H     0.94890   0.69680   0.75900   0.01267  Uiso   1.00
H148   H     0.52100   0.40930   0.27700   0.01267  Uiso   1.00
H149   H     0.54010   0.20850   0.18790   0.01267  Uiso   1.00
H150   H     0.95760   0.81310   0.79120   0.01267  Uiso   1.00
H151   H     0.56910   0.04780   0.40840   0.01267  Uiso   1.00
H152   H     0.54870   0.24310   0.30080   0.01267  Uiso   1.00
C129   C     0.47170   0.94621   0.38977   0.01267  Uiso   1.00
C130   C     0.11770   0.65635   0.33843   0.01267  Uiso   1.00
C131   C     0.80950   0.20380   0.26170   0.01267  Uiso   1.00
C132   C     0.10440   0.92390   0.37101   0.01267  Uiso   1.00
C133   C     0.83740   0.48060   0.11620   0.01267  Uiso   1.00
C134   C     0.87430   0.67750   0.81780   0.01267  Uiso   1.00
C135   C     0.69150   0.36485   0.10360   0.01267  Uiso   1.00
C136   C     0.01010   0.93642   0.06860   0.01267  Uiso   1.00
C137   C     0.66680   0.52370   0.34180   0.01267  Uiso   1.00
C138   C     0.39480   0.62831   0.07446   0.01267  Uiso   1.00
C139   C     0.83430   0.04190   0.36180   0.01267  Uiso   1.00
C140   C     0.73480   0.89830   0.55210   0.01267  Uiso   1.00
C141   C     0.71140   0.89620   0.47230   0.01267  Uiso   1.00
C142   C     0.11800   0.62371   0.37162   0.01267  Uiso   1.00
C143   C     0.37650   0.88163   0.11728   0.01267  Uiso   1.00
C144   C     0.73060   0.59770   0.50270   0.01267  Uiso   1.00
C145   C     0.59180   0.34830   0.25970   0.01267  Uiso   1.00
C146   C     0.83380   0.08360   0.33990   0.01267  Uiso   1.00
C147   C     0.37540   0.91450   0.08372   0.01267  Uiso   1.00
C148   C     0.16360   0.65937   0.10821   0.01267  Uiso   1.00
C149   C     0.79520   0.76030   0.72413   0.01267  Uiso   1.00
C150   C     0.71640   0.27795   0.19530   0.01267  Uiso   1.00
C151   C     0.90400   0.73740   0.65410   0.01267  Uiso   1.00
C152   C     0.79930   0.09336   0.06355   0.01267  Uiso   1.00
C153   C     0.67750   0.39830   0.32070   0.01267  Uiso   1.00
C154   C     0.23280   0.70924   0.28789   0.01267  Uiso   1.00
C155   C     0.27230   0.61198   0.05669   0.01267  Uiso   1.00
C156   C     0.77560   0.90296   0.89323   0.01267  Uiso   1.00
C157   C     0.77200   0.32530   0.30650   0.01267  Uiso   1.00
C158   C     0.88570   0.83210   0.79680   0.01267  Uiso   1.00
C159   C     0.22280   0.94170   0.38720   0.01267  Uiso   1.00
C160   C     0.78480   0.93820   0.54540   0.01267  Uiso   1.00
C161   C     0.28720   0.70988   0.16674   0.01267  Uiso   1.00
C162   C     0.69300   0.49750   0.04200   0.01267  Uiso   1.00
C163   C     0.34000   0.92538   0.37124   0.01267  Uiso   1.00
C164   C     0.28370   0.67602   0.12711   0.01267  Uiso   1.00
C165   C     0.88680   0.85590   0.83760   0.01267  Uiso   1.00
C166   C     0.72430   0.10469   0.09817   0.01267  Uiso   1.00
C167   C     0.63680   0.09790   0.37070   0.01267  Uiso   1.00
C168   C     0.71890   0.69440   0.67500   0.01267  Uiso   1.00
C169   C     0.99120   0.60537   0.38897   0.01267  Uiso   1.00
C170   C     0.80690   0.89540   0.63391   0.01267  Uiso   1.00
C171   C     0.76340   0.44618   0.10060   0.01267  Uiso   1.00
C172   C     0.69340   0.87840   0.51520   0.01267  Uiso   1.00
C173   C     0.79110   0.73530   0.76727   0.01267  Uiso   1.00
C174   C     0.66710   0.64180   0.95800   0.01267  Uiso   1.00
C175   C     0.81270   0.67750   0.60360   0.01267  Uiso   1.00
C176   C     0.68580   0.44290   0.34370   0.01267  Uiso   1.00
C177   C     0.68010   0.32448   0.12730   0.01267  Uiso   1.00
C178   C     0.58740   0.38830   0.28470   0.01267  Uiso   1.00
C179   C     0.76010   0.40257   0.12390   0.01267  Uiso   1.00
C180   C     0.69160   0.45530   0.06110   0.01267  Uiso   1.00
C181   C     0.66840   0.02547   0.10288   0.01267  Uiso   1.00
C182   C     0.81620   0.87250   0.67415   0.01267  Uiso   1.00
C183   C     0.23180   0.67370   0.32344   0.01267  Uiso   1.00
C184   C     0.68790   0.88958   0.81300   0.01267  Uiso   1.00
C185   C     0.61900   0.22310   0.29620   0.01267  Uiso   1.00
C186   C     0.74170   0.87588   0.59584   0.01267  Uiso   1.00
C187   C     0.68980   0.81097   0.63997   0.01267  Uiso   1.00
C188   C     0.66740   0.66380   0.91760   0.01267  Uiso   1.00
C189   C     0.78410   0.88320   0.84738   0.01267  Uiso   1.00
C190   C     0.70700   0.23368   0.26630   0.01267  Uiso   1.00
C191   C     0.72130   0.66860   0.63560   0.01267  Uiso   1.00
C192   C     0.85000   0.88490   0.92990   0.01267  Uiso   1.00
C193   C     0.74900   0.49630   0.40510   0.01267  Uiso   1.00
C194   C     0.51630   0.61123   0.05522   0.01267  Uiso   1.00
C195   C     0.80850   0.18518   0.11180   0.01267  Uiso   1.00
C196   C     0.68060   0.71620   0.83520   0.01267  Uiso   1.00
C197   C     0.85720   0.62700   0.90210   0.01267  Uiso   1.00
C198   C     0.76390   0.82870   0.67845   0.01267  Uiso   1.00
C199   C     0.73510   0.11112   0.34300   0.01267  Uiso   1.00
C200   C     0.65750   0.06853   0.11790   0.01267  Uiso   1.00
C201   C     0.13930   0.88387   0.11801   0.01267  Uiso   1.00
C202   C     0.68700   0.86534   0.77168   0.01267  Uiso   1.00
C203   C     0.61600   0.16210   0.14630   0.01267  Uiso   1.00
C204   C     0.20950   0.83281   0.28866   0.01267  Uiso   1.00
C205   C     0.61220   0.20260   0.16960   0.01267  Uiso   1.00
C206   C     0.25930   0.83065   0.17015   0.01267  Uiso   1.00
C207   C     0.71390   0.23537   0.16660   0.01267  Uiso   1.00
C208   C     0.80760   0.73030   0.68394   0.01267  Uiso   1.00
C209   C     0.50000   0.93088   0.06419   0.01267  Uiso   1.00
C210   C     0.76730   0.65740   0.88828   0.01267  Uiso   1.00
C211   C     0.90370   0.71100   0.61300   0.01267  Uiso   1.00
C212   C     0.25820   0.86678   0.13438   0.01267  Uiso   1.00
C213   C     0.82620   0.65710   0.47700   0.01267  Uiso   1.00
C214   C     0.09750   0.88872   0.33881   0.01267  Uiso   1.00
C215   C     0.35450   0.62528   0.37451   0.01267  Uiso   1.00
C216   C     0.81890   0.39762   0.16670   0.01267  Uiso   1.00
C217   C     0.73060   0.45130   0.38660   0.01267  Uiso   1.00
C218   C     0.68320   0.95050   0.95069   0.01267  Uiso   1.00
C219   C     0.83700   0.90020   0.97352   0.01267  Uiso   1.00
C220   C     0.68790   0.31667   0.26920   0.01267  Uiso   1.00
C221   C     0.73280   0.32063   0.17080   0.01267  Uiso   1.00
C222   C     0.77530   0.68400   0.84635   0.01267  Uiso   1.00
C223   C     0.81480   0.16440   0.28510   0.01267  Uiso   1.00
C224   C     0.68890   0.74050   0.79570   0.01267  Uiso   1.00
C225   C     0.77020   0.36520   0.33160   0.01267  Uiso   1.00
C226   C     0.35100   0.65871   0.34109   0.01267  Uiso   1.00
C227   C     0.80730   0.65430   0.55870   0.01267  Uiso   1.00
C228   C     0.78330   0.83490   0.76369   0.01267  Uiso   1.00
C229   C     0.74480   0.61680   0.54830   0.01267  Uiso   1.00
C230   C     0.02720   0.60809   0.05370   0.01267  Uiso   1.00
C231   C     0.25560   0.93112   0.06923   0.01267  Uiso   1.00
C232   C     0.70240   0.27613   0.24030   0.01267  Uiso   1.00
C233   C     0.33390   0.89122   0.34001   0.01267  Uiso   1.00
C234   C     0.88010   0.70250   0.77870   0.01267  Uiso   1.00
C235   C     0.80870   0.22653   0.13599   0.01267  Uiso   1.00
C236   C     0.63950   0.05640   0.39020   0.01267  Uiso   1.00
C237   C     0.80730   0.35780   0.18910   0.01267  Uiso   1.00
C238   C     0.64760   0.48180   0.32100   0.01267  Uiso   1.00
C239   C     0.83180   0.52410   0.09540   0.01267  Uiso   1.00
C240   C     0.62630   0.18330   0.32150   0.01267  Uiso   1.00
C241   C     0.81100   0.04852   0.04970   0.01267  Uiso   1.00
C242   C     0.83930   0.67910   0.51950   0.01267  Uiso   1.00
C243   C     0.15630   0.62729   0.07336   0.01267  Uiso   1.00
C244   C     0.97960   0.94321   0.38836   0.01267  Uiso   1.00
C245   C     0.78180   0.80500   0.72218   0.01267  Uiso   1.00
C246   C     0.85230   0.60660   0.94370   0.01267  Uiso   1.00
C247   C     0.79150   0.95720   0.50200   0.01267  Uiso   1.00
C248   C     0.13680   0.91696   0.08578   0.01267  Uiso   1.00
C249   C     0.69300   0.93700   0.90507   0.01267  Uiso   1.00
C250   C     0.71430   0.15176   0.11850   0.01267  Uiso   1.00
C251   C     0.72460   0.15399   0.31680   0.01267  Uiso   1.00
C252   C     0.23660   0.60899   0.38902   0.01267  Uiso   1.00
C253   C     0.48220   0.60874   0.39363   0.01267  Uiso   1.00
C254   C     0.67880   0.83271   0.60021   0.01267  Uiso   1.00
C255   C     0.39910   0.66010   0.10964   0.01267  Uiso   1.00
C256   C     0.21410   0.87194   0.32276   0.01267  Uiso   1.00
N9     N     0.73490   0.93898   0.46654   0.01267  Uiso   1.00
N10    N     0.75510   0.93235   0.98432   0.01267  Uiso   1.00
N11    N     0.71710   0.53027   0.38379   0.01267  Uiso   1.00
N12    N     0.76960   0.61420   0.47023   0.01267  Uiso   1.00
N13    N     0.73730   0.02736   0.38480   0.01267  Uiso   1.00
N14    N     0.75870   0.61349   0.97202   0.01267  Uiso   1.00
N15    N     0.76490   0.53133   0.05937   0.01267  Uiso   1.00
N16    N     0.74630   0.01490   0.06901   0.01267  Uiso   1.00
O25    O     0.92330   0.62469   0.06860   0.01267  Uiso   1.00
O26    O     0.09970   0.81771   0.27351   0.01267  Uiso   1.00
O27    O     0.58750   0.62537   0.37829   0.01267  Uiso   1.00
O28    O     0.62780   0.62952   0.06956   0.01267  Uiso   1.00
O29    O     0.17660   0.72194   0.17869   0.01267  Uiso   1.00
O30    O     0.90420   0.91784   0.08190   0.01267  Uiso   1.00
O31    O     0.86930   0.92917   0.36985   0.01267  Uiso   1.00
O32    O     0.34520   0.72336   0.27721   0.01267  Uiso   1.00
O33    O     0.57450   0.93192   0.37263   0.01267  Uiso   1.00
O34    O     0.47400   0.97602   0.42072   0.01267  Uiso   1.00
O35    O     0.37080   0.81810   0.18525   0.01267  Uiso   1.00
O36    O     0.12240   0.72127   0.27200   0.01267  Uiso   1.00
O37    O     0.01310   0.96955   0.04266   0.01267  Uiso   1.00
O38    O     0.60870   0.91648   0.08169   0.01267  Uiso   1.00
O39    O     0.14870   0.81633   0.18136   0.01267  Uiso   1.00
O40    O     0.49340   0.95724   0.03188   0.01267  Uiso   1.00
O41    O     0.48650   0.58104   0.42402   0.01267  Uiso   1.00
O42    O     0.32000   0.81932   0.27814   0.01267  Uiso   1.00
O43    O     0.39770   0.72330   0.18350   0.01267  Uiso   1.00
O44    O     0.99490   0.57444   0.41638   0.01267  Uiso   1.00
O45    O     0.50810   0.58014   0.02541   0.01267  Uiso   1.00
O46    O     0.99090   0.97215   0.42068   0.01267  Uiso   1.00
O47    O     0.02270   0.57770   0.02382   0.01267  Uiso   1.00
O48    O     0.88510   0.62364   0.37475   0.01267  Uiso   1.00
