data_image0
_cell_length_a       9.67
_cell_length_b       15.618
_cell_length_c       22.563
_cell_angle_alpha    90
_cell_angle_beta     90.82
_cell_angle_gamma    90

_symmetry_space_group_name_H-M    "P 1"
_symmetry_int_tables_number       1

loop_
  _symmetry_equiv_pos_as_xyz
  'x, y, z'

loop_
  _atom_site_label
  _atom_site_occupancy
  _atom_site_fract_x
  _atom_site_fract_y
  _atom_site_fract_z
  _atom_site_thermal_displace_type
  _atom_site_B_iso_or_equiv
  _atom_site_type_symbol
  Fe1      1.0000 0.50957  0.10349  0.20052  Biso   1.000  Fe
  Fe2      1.0000 0.77591  0.22710  0.27903  Biso   1.000  Fe
  Fe3      1.0000 0.72582  0.38969  0.15461  Biso   1.000  Fe
  Fe4      1.0000 0.38981  0.43868  0.08407  Biso   1.000  Fe
  Fe5      1.0000 0.21619  0.96978  0.25668  Biso   1.000  Fe
  P1       1.0000 0.27460  0.00770  0.11797  Biso   1.000  P
  P2       1.0000 0.79480  0.18660  0.14414  Biso   1.000  P
  P3       1.0000 0.49510  0.31460  0.20677  Biso   1.000  P
  P4       1.0000 0.67930  0.41530  0.01439  Biso   1.000  P
  P5       1.0000 0.53890  0.90493  0.24384  Biso   1.000  P
  P6       1.0000 0.95350  0.05910  0.32322  Biso   1.000  P
  O1       1.0000 0.38290  0.07560  0.13440  Biso   1.000  O
  O2       1.0000 0.58320  0.98490  0.20810  Biso   1.000  O
  F1       1.0000 0.63240  0.13620  0.26860  Biso   1.000  F
  O3       1.0000 0.65490  0.13880  0.14300  Biso   1.000  O
  O4       1.0000 0.43470  0.22470  0.20280  Biso   1.000  O
  F2       1.0000 0.35330  0.07050  0.25730  Biso   1.000  F
  F3       1.0000 0.68780  0.26380  0.35110  Biso   1.000  F
  O5       1.0000 0.89820  0.15180  0.32630  Biso   1.000  O
  O6       1.0000 0.86400  0.18640  0.20500  Biso   1.000  O
  O7       1.0000 0.59280  0.82550  0.21050  Biso   1.000  O
  O8       1.0000 0.64870  0.31310  0.22950  Biso   1.000  O
  O9       1.0000 0.59610  0.90670  0.30760  Biso   1.000  O
  O10      1.0000 0.74850  0.43750  0.07580  Biso   1.000  O
  O11      1.0000 0.83400  0.99770  0.30650  Biso   1.000  O
  O12      1.0000 0.77940  0.27590  0.11820  Biso   1.000  O
  O13      1.0000 0.50970  0.35810  0.14480  Biso   1.000  O
  O14      1.0000 0.01030  0.03810  0.38580  Biso   1.000  O
  O15      1.0000 0.52310  0.40430  0.02390  Biso   1.000  O
  O16      1.0000 0.71460  0.49100  0.97360  Biso   1.000  O
  F4       1.0000 0.24330  0.95530  0.34620  Biso   1.000  F
  O17      1.0000 0.38090  0.89760  0.24640  Biso   1.000  O
  O18      1.0000 0.18150  0.98690  0.17070  Biso   1.000  O
  O19      1.0000 0.40660  0.36810  0.24800  Biso   1.000  O
  O20      1.0000 0.06940  0.05360  0.27720  Biso   1.000  O
  O21      1.0000 0.33860  0.92820  0.09180  Biso   1.000  O
  O22      1.0000 0.18070  0.04540  0.06670  Biso   1.000  O
  H1       1.0000 0.14270  0.08910  0.07830  Biso   1.000  H
  O23      1.0000 0.89140  0.13370  0.10140  Biso   1.000  O
  H2       1.0000 0.85670  0.13270  0.06800  Biso   1.000  H
  O24      1.0000 0.73860  0.33340  0.98740  Biso   1.000  O
  H3       1.0000 0.72550  0.29310  0.00990  Biso   1.000  H
  Fe6      1.0000 0.99043  0.60349  0.29948  Biso   1.000  Fe
  Fe7      1.0000 0.72409  0.72710  0.22097  Biso   1.000  Fe
  Fe8      1.0000 0.77418  0.88969  0.34539  Biso   1.000  Fe
  Fe9      1.0000 0.11019  0.93868  0.41593  Biso   1.000  Fe
  Fe10     1.0000 0.28381  0.46978  0.24332  Biso   1.000  Fe
  P7       1.0000 0.22540  0.50770  0.38203  Biso   1.000  P
  P8       1.0000 0.70520  0.68660  0.35586  Biso   1.000  P
  P9       1.0000 0.00490  0.81460  0.29323  Biso   1.000  P
  P10      1.0000 0.82070  0.91530  0.48561  Biso   1.000  P
  P11      1.0000 0.96110  0.40493  0.25616  Biso   1.000  P
  P12      1.0000 0.54650  0.55910  0.17678  Biso   1.000  P
  O25      1.0000 0.11710  0.57560  0.36560  Biso   1.000  O
  O26      1.0000 0.91680  0.48490  0.29190  Biso   1.000  O
  F5       1.0000 0.86760  0.63620  0.23140  Biso   1.000  F
  O27      1.0000 0.84510  0.63880  0.35700  Biso   1.000  O
  O28      1.0000 0.06530  0.72470  0.29720  Biso   1.000  O
  F6       1.0000 0.14670  0.57050  0.24270  Biso   1.000  F
  F7       1.0000 0.81220  0.76380  0.14890  Biso   1.000  F
  O29      1.0000 0.60180  0.65180  0.17370  Biso   1.000  O
  O30      1.0000 0.63600  0.68640  0.29500  Biso   1.000  O
  O31      1.0000 0.90720  0.32550  0.28950  Biso   1.000  O
  O32      1.0000 0.85130  0.81310  0.27050  Biso   1.000  O
  O33      1.0000 0.90390  0.40670  0.19240  Biso   1.000  O
  O34      1.0000 0.75150  0.93750  0.42420  Biso   1.000  O
  O35      1.0000 0.66600  0.49770  0.19350  Biso   1.000  O
  O36      1.0000 0.72060  0.77590  0.38180  Biso   1.000  O
  O37      1.0000 0.99030  0.85810  0.35520  Biso   1.000  O
  O38      1.0000 0.48970  0.53810  0.11420  Biso   1.000  O
  O39      1.0000 0.97690  0.90430  0.47610  Biso   1.000  O
  O40      1.0000 0.78540  0.99100  0.52640  Biso   1.000  O
  F8       1.0000 0.25670  0.45530  0.15380  Biso   1.000  F
  O41      1.0000 0.11910  0.39760  0.25360  Biso   1.000  O
  O42      1.0000 0.31850  0.48690  0.32930  Biso   1.000  O
  O43      1.0000 0.09340  0.86810  0.25200  Biso   1.000  O
  O44      1.0000 0.43060  0.55360  0.22280  Biso   1.000  O
  O45      1.0000 0.16140  0.42820  0.40820  Biso   1.000  O
  O46      1.0000 0.31930  0.54540  0.43330  Biso   1.000  O
  H4       1.0000 0.35730  0.58910  0.42170  Biso   1.000  H
  O47      1.0000 0.60860  0.63370  0.39860  Biso   1.000  O
  H5       1.0000 0.64330  0.63270  0.43200  Biso   1.000  H
  O48      1.0000 0.76140  0.83340  0.51260  Biso   1.000  O
  H6       1.0000 0.77450  0.79310  0.49010  Biso   1.000  H
  Fe11     1.0000 0.49043  0.89651  0.79948  Biso   1.000  Fe
  Fe12     1.0000 0.22409  0.77290  0.72097  Biso   1.000  Fe
  Fe13     1.0000 0.27418  0.61031  0.84539  Biso   1.000  Fe
  Fe14     1.0000 0.61019  0.56132  0.91593  Biso   1.000  Fe
  Fe15     1.0000 0.78381  0.03022  0.74332  Biso   1.000  Fe
  P13      1.0000 0.72540  0.99230  0.88203  Biso   1.000  P
  P14      1.0000 0.20520  0.81340  0.85586  Biso   1.000  P
  P15      1.0000 0.50490  0.68540  0.79323  Biso   1.000  P
  P16      1.0000 0.32070  0.58470  0.98561  Biso   1.000  P
  P17      1.0000 0.46110  0.09507  0.75616  Biso   1.000  P
  P18      1.0000 0.04650  0.94090  0.67678  Biso   1.000  P
  O49      1.0000 0.61710  0.92440  0.86560  Biso   1.000  O
  O50      1.0000 0.41680  0.01510  0.79190  Biso   1.000  O
  F9       1.0000 0.36760  0.86380  0.73140  Biso   1.000  F
  O51      1.0000 0.34510  0.86120  0.85700  Biso   1.000  O
  O52      1.0000 0.56530  0.77530  0.79720  Biso   1.000  O
  F10      1.0000 0.64670  0.92950  0.74270  Biso   1.000  F
  F11      1.0000 0.31220  0.73620  0.64890  Biso   1.000  F
  O53      1.0000 0.10180  0.84820  0.67370  Biso   1.000  O
  O54      1.0000 0.13600  0.81360  0.79500  Biso   1.000  O
  O55      1.0000 0.40720  0.17450  0.78950  Biso   1.000  O
  O56      1.0000 0.35130  0.68690  0.77050  Biso   1.000  O
  O57      1.0000 0.40390  0.09330  0.69240  Biso   1.000  O
  O58      1.0000 0.25150  0.56250  0.92420  Biso   1.000  O
  O59      1.0000 0.16600  0.00230  0.69350  Biso   1.000  O
  O60      1.0000 0.22060  0.72410  0.88180  Biso   1.000  O
  O61      1.0000 0.49030  0.64190  0.85520  Biso   1.000  O
  O62      1.0000 0.98970  0.96190  0.61420  Biso   1.000  O
  O63      1.0000 0.47690  0.59570  0.97610  Biso   1.000  O
  O64      1.0000 0.28540  0.50900  0.02640  Biso   1.000  O
  F12      1.0000 0.75670  0.04470  0.65380  Biso   1.000  F
  O65      1.0000 0.61910  0.10240  0.75360  Biso   1.000  O
  O66      1.0000 0.81850  0.01310  0.82930  Biso   1.000  O
  O67      1.0000 0.59340  0.63190  0.75200  Biso   1.000  O
  O68      1.0000 0.93060  0.94640  0.72280  Biso   1.000  O
  O69      1.0000 0.66140  0.07180  0.90820  Biso   1.000  O
  O70      1.0000 0.81930  0.95460  0.93330  Biso   1.000  O
  H7       1.0000 0.85730  0.91090  0.92170  Biso   1.000  H
  O71      1.0000 0.10860  0.86630  0.89860  Biso   1.000  O
  H8       1.0000 0.14330  0.86730  0.93200  Biso   1.000  H
  O72      1.0000 0.26140  0.66660  0.01260  Biso   1.000  O
  H9       1.0000 0.27450  0.70690  0.99010  Biso   1.000  H
  Fe16     1.0000 0.00957  0.39651  0.70052  Biso   1.000  Fe
  Fe17     1.0000 0.27591  0.27290  0.77903  Biso   1.000  Fe
  Fe18     1.0000 0.22582  0.11031  0.65461  Biso   1.000  Fe
  Fe19     1.0000 0.88981  0.06132  0.58407  Biso   1.000  Fe
  Fe20     1.0000 0.71619  0.53022  0.75668  Biso   1.000  Fe
  P19      1.0000 0.77460  0.49230  0.61797  Biso   1.000  P
  P20      1.0000 0.29480  0.31340  0.64414  Biso   1.000  P
  P21      1.0000 0.99510  0.18540  0.70677  Biso   1.000  P
  P22      1.0000 0.17930  0.08470  0.51439  Biso   1.000  P
  P23      1.0000 0.03890  0.59507  0.74384  Biso   1.000  P
  P24      1.0000 0.45350  0.44090  0.82322  Biso   1.000  P
  O73      1.0000 0.88290  0.42440  0.63440  Biso   1.000  O
  O74      1.0000 0.08320  0.51510  0.70810  Biso   1.000  O
  F13      1.0000 0.13240  0.36380  0.76860  Biso   1.000  F
  O75      1.0000 0.15490  0.36120  0.64300  Biso   1.000  O
  O76      1.0000 0.93470  0.27530  0.70280  Biso   1.000  O
  F14      1.0000 0.85330  0.42950  0.75730  Biso   1.000  F
  F15      1.0000 0.18780  0.23620  0.85110  Biso   1.000  F
  O77      1.0000 0.39820  0.34820  0.82630  Biso   1.000  O
  O78      1.0000 0.36400  0.31360  0.70500  Biso   1.000  O
  O79      1.0000 0.09280  0.67450  0.71050  Biso   1.000  O
  O80      1.0000 0.14870  0.18690  0.72950  Biso   1.000  O
  O81      1.0000 0.09610  0.59330  0.80760  Biso   1.000  O
  O82      1.0000 0.24850  0.06250  0.57580  Biso   1.000  O
  O83      1.0000 0.33400  0.50230  0.80650  Biso   1.000  O
  O84      1.0000 0.27940  0.22410  0.61820  Biso   1.000  O
  O85      1.0000 0.00970  0.14190  0.64480  Biso   1.000  O
  O86      1.0000 0.51030  0.46190  0.88580  Biso   1.000  O
  O87      1.0000 0.02310  0.09570  0.52390  Biso   1.000  O
  O88      1.0000 0.21460  0.00900  0.47360  Biso   1.000  O
  F16      1.0000 0.74330  0.54470  0.84620  Biso   1.000  F
  O89      1.0000 0.88090  0.60240  0.74640  Biso   1.000  O
  O90      1.0000 0.68150  0.51310  0.67070  Biso   1.000  O
  O91      1.0000 0.90660  0.13190  0.74800  Biso   1.000  O
  O92      1.0000 0.56940  0.44640  0.77720  Biso   1.000  O
  O93      1.0000 0.83860  0.57180  0.59180  Biso   1.000  O
  O94      1.0000 0.68070  0.45460  0.56670  Biso   1.000  O
  H10      1.0000 0.64270  0.41090  0.57830  Biso   1.000  H
  O95      1.0000 0.39140  0.36630  0.60140  Biso   1.000  O
  H11      1.0000 0.35670  0.36730  0.56800  Biso   1.000  H
  O96      1.0000 0.23860  0.16660  0.48740  Biso   1.000  O
  H12      1.0000 0.22550  0.20690  0.50990  Biso   1.000  H
