data_GOTDIE_clean
_audit_creation_date              2015-10-16
_audit_creation_method            'Materials Studio'
_symmetry_space_group_name_H-M    'P1'
_symmetry_Int_Tables_number       1
_symmetry_cell_setting            triclinic
loop_
_symmetry_equiv_pos_as_xyz
  x,y,z
_cell_length_a                    9.1561
_cell_length_b                    28.1078
_cell_length_c                    28.1078
_cell_angle_alpha                 88.4798
_cell_angle_beta                  80.6262
_cell_angle_gamma                 80.6260
loop_
_atom_site_label
_atom_site_type_symbol
_atom_site_fract_x
_atom_site_fract_y
_atom_site_fract_z
_atom_site_U_iso_or_equiv
_atom_site_adp_type
_atom_site_occupancy
Cd1    Cd    0.00000   0.00000   0.50000   0.01267  Uiso   1.00
Cd2    Cd    0.00000   0.00000   0.00000   0.01267  Uiso   1.00
Cd3    Cd    0.00000   0.50000   0.00000   0.01267  Uiso   1.00
Cd4    Cd    0.50000   0.50000   0.50000   0.01267  Uiso   1.00
Co1    Co    0.92002   0.73159   0.51361   0.01267  Uiso   1.00
Co2    Co    0.65161   0.01361   0.26841   0.01267  Uiso   1.00
Co3    Co    0.66522   0.76841   0.98639   0.01267  Uiso   1.00
Co4    Co    0.07998   0.26841   0.48639   0.01267  Uiso   1.00
Co5    Co    0.33478   0.23159   0.01361   0.01267  Uiso   1.00
Co6    Co    0.43363   0.48639   0.23159   0.01267  Uiso   1.00
Co7    Co    0.34839   0.98639   0.73159   0.01267  Uiso   1.00
Co8    Co    0.56637   0.51361   0.76841   0.01267  Uiso   1.00
H1     H     0.57040   0.29680   0.31080   0.01267  Uiso   1.00
H2     H     0.00550   0.53210   0.88470   0.01267  Uiso   1.00
H3     H     0.74290   0.05750   0.07370   0.01267  Uiso   1.00
H4     H     0.75000   0.44740   0.54560   0.01267  Uiso   1.00
H5     H     0.38130   0.32630   0.65630   0.01267  Uiso   1.00
H6     H     0.47470   0.35080   0.86040   0.01267  Uiso   1.00
H7     H     0.75700   0.94740   0.04560   0.01267  Uiso   1.00
H8     H     0.32520   0.68980   0.52020   0.01267  Uiso   1.00
H9     H     0.66580   0.87610   0.06190   0.01267  Uiso   1.00
H10    H     0.33230   0.47460   0.60420   0.01267  Uiso   1.00
H11    H     0.53590   0.39330   0.08610   0.01267  Uiso   1.00
H12    H     0.06350   0.60420   0.02540   0.01267  Uiso   1.00
H13    H     0.33890   0.19700   0.23980   0.01267  Uiso   1.00
H14    H     0.52530   0.64920   0.13960   0.01267  Uiso   1.00
H15    H     0.07080   0.41390   0.39330   0.01267  Uiso   1.00
H16    H     0.59990   0.35580   0.70280   0.01267  Uiso   1.00
H17    H     0.28460   0.79140   0.94980   0.01267  Uiso   1.00
H18    H     0.71740   0.33400   0.11220   0.01267  Uiso   1.00
H19    H     0.18590   0.14920   0.63960   0.01267  Uiso   1.00
H20    H     0.07770   0.03210   0.38470   0.01267  Uiso   1.00
H21    H     0.49540   0.06840   0.85800   0.01267  Uiso   1.00
H22    H     0.51440   0.28450   0.59370   0.01267  Uiso   1.00
H23    H     0.51530   0.10670   0.41390   0.01267  Uiso   1.00
H24    H     0.05140   0.61220   0.66600   0.01267  Uiso   1.00
H25    H     0.07730   0.11730   0.31290   0.01267  Uiso   1.00
H26    H     0.98500   0.97980   0.68980   0.01267  Uiso   1.00
H27    H     0.99250   0.61730   0.81290   0.01267  Uiso   1.00
H28    H     0.07600   0.44980   0.20860   0.01267  Uiso   1.00
H29    H     0.43620   0.64200   0.06840   0.01267  Uiso   1.00
H30    H     0.19460   0.81290   0.88270   0.01267  Uiso   1.00
H31    H     0.89190   0.59370   0.21550   0.01267  Uiso   1.00
H32    H     0.10380   0.62390   0.43810   0.01267  Uiso   1.00
H33    H     0.47420   0.29140   0.44980   0.01267  Uiso   1.00
H34    H     0.78910   0.16200   0.31180   0.01267  Uiso   1.00
H35    H     0.42130   0.23980   0.30300   0.01267  Uiso   1.00
H36    H     0.56380   0.35800   0.93160   0.01267  Uiso   1.00
H37    H     0.87050   0.64380   0.34880   0.01267  Uiso   1.00
H38    H     0.19960   0.42630   0.05750   0.01267  Uiso   1.00
H39    H     0.89910   0.31180   0.33800   0.01267  Uiso   1.00
H40    H     0.04890   0.18820   0.16200   0.01267  Uiso   1.00
H41    H     0.03760   0.34370   0.82630   0.01267  Uiso   1.00
H42    H     0.53590   0.73980   0.80300   0.01267  Uiso   1.00
H43    H     0.28770   0.97740   0.28800   0.01267  Uiso   1.00
H44    H     0.23440   0.05020   0.29140   0.01267  Uiso   1.00
H45    H     0.51430   0.84880   0.35620   0.01267  Uiso   1.00
H46    H     0.08890   0.97460   0.10420   0.01267  Uiso   1.00
H47    H     0.21090   0.83800   0.68820   0.01267  Uiso   1.00
H48    H     0.95570   0.20280   0.64420   0.01267  Uiso   1.00
H49    H     0.15850   0.14420   0.79720   0.01267  Uiso   1.00
H50    H     0.01970   0.99330   0.18350   0.01267  Uiso   1.00
H51    H     0.92400   0.55020   0.79140   0.01267  Uiso   1.00
H52    H     0.37410   0.44250   0.42630   0.01267  Uiso   1.00
H53    H     0.27230   0.06190   0.62390   0.01267  Uiso   1.00
H54    H     0.84540   0.47980   0.18980   0.01267  Uiso   1.00
H55    H     0.01500   0.02020   0.31020   0.01267  Uiso   1.00
H56    H     0.17450   0.63960   0.35080   0.01267  Uiso   1.00
H57    H     0.39020   0.68710   0.61730   0.01267  Uiso   1.00
H58    H     0.88120   0.68920   0.79680   0.01267  Uiso   1.00
H59    H     0.25000   0.55260   0.45440   0.01267  Uiso   1.00
H60    H     0.33070   0.91880   0.84660   0.01267  Uiso   1.00
H61    H     0.46240   0.61530   0.53210   0.01267  Uiso   1.00
H62    H     0.89020   0.11530   0.03210   0.01267  Uiso   1.00
H63    H     0.80260   0.95440   0.44740   0.01267  Uiso   1.00
H64    H     0.35340   0.14200   0.56840   0.01267  Uiso   1.00
H65    H     0.19740   0.04560   0.55260   0.01267  Uiso   1.00
H66    H     0.05310   0.52260   0.21200   0.01267  Uiso   1.00
H67    H     0.66110   0.80300   0.76020   0.01267  Uiso   1.00
H68    H     0.33510   0.13960   0.85080   0.01267  Uiso   1.00
H69    H     0.92230   0.96790   0.61530   0.01267  Uiso   1.00
H70    H     0.64660   0.85800   0.43160   0.01267  Uiso   1.00
H71    H     0.03520   0.81020   0.97980   0.01267  Uiso   1.00
H72    H     0.70440   0.54560   0.05260   0.01267  Uiso   1.00
H73    H     0.10980   0.88470   0.96790   0.01267  Uiso   1.00
H74    H     0.62590   0.55750   0.57370   0.01267  Uiso   1.00
H75    H     0.42430   0.28800   0.52260   0.01267  Uiso   1.00
H76    H     0.37800   0.08610   0.10670   0.01267  Uiso   1.00
H77    H     0.17730   0.15340   0.41880   0.01267  Uiso   1.00
H78    H     0.76560   0.94980   0.70860   0.01267  Uiso   1.00
H79    H     0.20110   0.90630   0.28450   0.01267  Uiso   1.00
H80    H     0.92270   0.88270   0.68710   0.01267  Uiso   1.00
H81    H     0.98700   0.31650   0.99330   0.01267  Uiso   1.00
H82    H     0.46410   0.60670   0.91390   0.01267  Uiso   1.00
H83    H     0.75050   0.65340   0.91880   0.01267  Uiso   1.00
H84    H     0.73490   0.21200   0.97740   0.01267  Uiso   1.00
H85    H     0.10090   0.68820   0.66200   0.01267  Uiso   1.00
H86    H     0.11880   0.31080   0.20320   0.01267  Uiso   1.00
H87    H     0.57570   0.71200   0.47740   0.01267  Uiso   1.00
H88    H     0.60980   0.31290   0.38270   0.01267  Uiso   1.00
H89    H     0.59610   0.58120   0.65340   0.01267  Uiso   1.00
H90    H     0.96240   0.65630   0.17370   0.01267  Uiso   1.00
H91    H     0.52580   0.70860   0.55020   0.01267  Uiso   1.00
H92    H     0.79680   0.18350   0.50670   0.01267  Uiso   1.00
H93    H     0.94860   0.38780   0.33400   0.01267  Uiso   1.00
H94    H     0.66930   0.08120   0.15340   0.01267  Uiso   1.00
H95    H     0.82270   0.84660   0.58120   0.01267  Uiso   1.00
H96    H     0.17040   0.11220   0.16600   0.01267  Uiso   1.00
H97    H     0.71540   0.20860   0.05020   0.01267  Uiso   1.00
H98    H     0.46410   0.26020   0.19700   0.01267  Uiso   1.00
H99    H     0.20320   0.81650   0.49330   0.01267  Uiso   1.00
H100   H     0.57870   0.76020   0.69700   0.01267  Uiso   1.00
H101   H     0.50460   0.93160   0.14200   0.01267  Uiso   1.00
H102   H     0.54190   0.56190   0.12390   0.01267  Uiso   1.00
H103   H     0.53760   0.38470   0.46790   0.01267  Uiso   1.00
H104   H     0.25710   0.94250   0.92630   0.01267  Uiso   1.00
H105   H     0.93650   0.39580   0.97460   0.01267  Uiso   1.00
H106   H     0.27570   0.30300   0.26020   0.01267  Uiso   1.00
H107   H     0.48560   0.71550   0.40630   0.01267  Uiso   1.00
H108   H     0.70760   0.15630   0.67370   0.01267  Uiso   1.00
H109   H     0.13280   0.18920   0.29680   0.01267  Uiso   1.00
H110   H     0.26510   0.78800   0.02260   0.01267  Uiso   1.00
H111   H     0.80540   0.18710   0.11730   0.01267  Uiso   1.00
H112   H     0.81660   0.92630   0.55750   0.01267  Uiso   1.00
H113   H     0.21930   0.65120   0.14380   0.01267  Uiso   1.00
H114   H     0.84150   0.85580   0.20280   0.01267  Uiso   1.00
H115   H     0.91110   0.02540   0.89580   0.01267  Uiso   1.00
H116   H     0.23710   0.66200   0.81180   0.01267  Uiso   1.00
H117   H     0.86390   0.17370   0.84370   0.01267  Uiso   1.00
H118   H     0.36310   0.85620   0.15120   0.01267  Uiso   1.00
H119   H     0.33640   0.83400   0.61220   0.01267  Uiso   1.00
H120   H     0.89620   0.37610   0.56190   0.01267  Uiso   1.00
H121   H     0.67480   0.31020   0.47980   0.01267  Uiso   1.00
H122   H     0.10810   0.40630   0.78450   0.01267  Uiso   1.00
H123   H     0.61870   0.67370   0.34370   0.01267  Uiso   1.00
H124   H     0.96480   0.18980   0.02020   0.01267  Uiso   1.00
H125   H     0.92920   0.58610   0.60670   0.01267  Uiso   1.00
H126   H     0.28260   0.66600   0.88780   0.01267  Uiso   1.00
H127   H     0.79890   0.09370   0.71550   0.01267  Uiso   1.00
H128   H     0.29240   0.84370   0.32630   0.01267  Uiso   1.00
H129   H     0.82960   0.88780   0.83400   0.01267  Uiso   1.00
H130   H     0.66770   0.52540   0.39580   0.01267  Uiso   1.00
H131   H     0.80690   0.10420   0.52540   0.01267  Uiso   1.00
H132   H     0.13610   0.82630   0.15630   0.01267  Uiso   1.00
H133   H     0.33420   0.12390   0.93810   0.01267  Uiso   1.00
H134   H     0.78070   0.34880   0.85620   0.01267  Uiso   1.00
H135   H     0.69730   0.70280   0.14420   0.01267  Uiso   1.00
H136   H     0.42960   0.70320   0.68920   0.01267  Uiso   1.00
H137   H     0.24300   0.05260   0.95440   0.01267  Uiso   1.00
H138   H     0.32200   0.79680   0.81080   0.01267  Uiso   1.00
H139   H     0.40010   0.64420   0.29720   0.01267  Uiso   1.00
H140   H     0.86720   0.81080   0.70320   0.01267  Uiso   1.00
H141   H     0.12950   0.35620   0.65120   0.01267  Uiso   1.00
H142   H     0.29560   0.45440   0.94740   0.01267  Uiso   1.00
H143   H     0.95110   0.81180   0.83800   0.01267  Uiso   1.00
H144   H     0.94690   0.47740   0.78800   0.01267  Uiso   1.00
H145   H     0.40390   0.41880   0.34660   0.01267  Uiso   1.00
H146   H     0.92180   0.43160   0.64200   0.01267  Uiso   1.00
H147   H     0.48570   0.15120   0.64380   0.01267  Uiso   1.00
H148   H     0.81410   0.85080   0.36040   0.01267  Uiso   1.00
H149   H     0.98030   0.00670   0.81650   0.01267  Uiso   1.00
H150   H     0.04430   0.79720   0.35580   0.01267  Uiso   1.00
H151   H     0.99450   0.46790   0.11530   0.01267  Uiso   1.00
H152   H     0.19310   0.89580   0.47460   0.01267  Uiso   1.00
H153   H     0.24950   0.34660   0.08120   0.01267  Uiso   1.00
H154   H     0.80040   0.57370   0.94250   0.01267  Uiso   1.00
H155   H     0.69650   0.50670   0.31650   0.01267  Uiso   1.00
H156   H     0.76290   0.33800   0.18820   0.01267  Uiso   1.00
H157   H     0.18340   0.07370   0.44250   0.01267  Uiso   1.00
H158   H     0.72430   0.69700   0.73980   0.01267  Uiso   1.00
H159   H     0.30350   0.49330   0.68350   0.01267  Uiso   1.00
H160   H     0.30270   0.29720   0.85580   0.01267  Uiso   1.00
H161   H     0.01300   0.68350   0.00670   0.01267  Uiso   1.00
H162   H     0.82550   0.36040   0.64920   0.01267  Uiso   1.00
H163   H     0.07820   0.56840   0.35800   0.01267  Uiso   1.00
H164   H     0.15460   0.52020   0.81020   0.01267  Uiso   1.00
H165   H     0.67800   0.20320   0.18920   0.01267  Uiso   1.00
H166   H     0.48470   0.89330   0.58610   0.01267  Uiso   1.00
H167   H     0.72770   0.93810   0.37610   0.01267  Uiso   1.00
H168   H     0.63690   0.14380   0.84880   0.01267  Uiso   1.00
H169   H     0.10740   0.78450   0.09370   0.01267  Uiso   1.00
H170   H     0.45810   0.43810   0.87610   0.01267  Uiso   1.00
H171   H     0.71230   0.02260   0.71200   0.01267  Uiso   1.00
H172   H     0.89260   0.21550   0.90630   0.01267  Uiso   1.00
H173   H     0.66490   0.86040   0.14920   0.01267  Uiso   1.00
H174   H     0.00750   0.38270   0.18710   0.01267  Uiso   1.00
H175   H     0.66360   0.16600   0.38780   0.01267  Uiso   1.00
H176   H     0.62200   0.91390   0.89330   0.01267  Uiso   1.00
C1     C     0.60950   0.38280   0.48800   0.01267  Uiso   1.00
C2     C     0.15120   0.03300   0.58100   0.01267  Uiso   1.00
C3     C     0.34220   0.85900   0.63260   0.01267  Uiso   1.00
C4     C     0.18610   0.35520   0.05860   0.01267  Uiso   1.00
C5     C     0.16520   0.16830   0.61330   0.01267  Uiso   1.00
C6     C     0.91340   0.45030   0.80290   0.01267  Uiso   1.00
C7     C     0.30660   0.63790   0.82290   0.01267  Uiso   1.00
C8     C     0.77560   0.76950   0.07410   0.01267  Uiso   1.00
C9     C     0.18660   0.50540   0.83740   0.01267  Uiso   1.00
C10    C     0.15380   0.40360   0.04460   0.01267  Uiso   1.00
C11    C     0.51220   0.24860   0.16700   0.01267  Uiso   1.00
C12    C     0.45020   0.95440   0.32480   0.01267  Uiso   1.00
C13    C     0.99710   0.61400   0.00380   0.01267  Uiso   1.00
C14    C     0.62520   0.39880   0.20740   0.01267  Uiso   1.00
C15    C     0.73480   0.53300   0.08100   0.01267  Uiso   1.00
C16    C     0.81340   0.49460   0.16260   0.01267  Uiso   1.00
C17    C     0.80380   0.09420   0.24300   0.01267  Uiso   1.00
C18    C     0.10200   0.09640   0.45540   0.01267  Uiso   1.00
C19    C     0.84880   0.96700   0.41900   0.01267  Uiso   1.00
C20    C     0.44060   0.60580   0.88300   0.01267  Uiso   1.00
C21    C     0.08190   0.38010   0.20610   0.01267  Uiso   1.00
C22    C     0.57220   0.74860   0.66700   0.01267  Uiso   1.00
C23    C     0.33960   0.84260   0.12420   0.01267  Uiso   1.00
C24    C     0.23490   0.19500   0.53440   0.01267  Uiso   1.00
C25    C     0.03230   0.33830   0.00770   0.01267  Uiso   1.00
C26    C     0.71630   0.19710   0.95030   0.01267  Uiso   1.00
C27    C     0.16810   0.11990   0.29390   0.01267  Uiso   1.00
C28    C     0.98880   0.59190   0.19850   0.01267  Uiso   1.00
C29    C     0.09990   0.14480   0.44140   0.01267  Uiso   1.00
C30    C     0.19630   0.16230   0.28310   0.01267  Uiso   1.00
C31    C     0.54130   0.55860   0.64480   0.01267  Uiso   1.00
C32    C     0.66110   0.22000   0.07980   0.01267  Uiso   1.00
C33    C     0.01330   0.82170   0.53950   0.01267  Uiso   1.00
C34    C     0.34560   0.29900   0.88340   0.01267  Uiso   1.00
C35    C     0.49790   0.66450   0.07150   0.01267  Uiso   1.00
C36    C     0.79660   0.33480   0.52300   0.01267  Uiso   1.00
C37    C     0.33990   0.20000   0.48780   0.01267  Uiso   1.00
C38    C     0.46010   0.01220   0.20000   0.01267  Uiso   1.00
C39    C     0.88510   0.11400   0.50380   0.01267  Uiso   1.00
C40    C     0.58370   0.42290   0.73030   0.01267  Uiso   1.00
C41    C     0.53620   0.12420   0.65740   0.01267  Uiso   1.00
C42    C     0.34230   0.32320   0.62820   0.01267  Uiso   1.00
C43    C     0.48190   0.13930   0.02890   0.01267  Uiso   1.00
C44    C     0.66550   0.12820   0.67680   0.01267  Uiso   1.00
C45    C     0.99910   0.00380   0.88600   0.01267  Uiso   1.00
C46    C     0.00660   0.23030   0.57710   0.01267  Uiso   1.00
C47    C     0.97600   0.29260   0.39880   0.01267  Uiso   1.00
C48    C     0.75870   0.87660   0.04280   0.01267  Uiso   1.00
C49    C     0.81580   0.91900   0.03300   0.01267  Uiso   1.00
C50    C     0.50210   0.33550   0.92850   0.01267  Uiso   1.00
C51    C     0.36370   0.30290   0.54970   0.01267  Uiso   1.00
C52    C     0.00770   0.01200   0.38280   0.01267  Uiso   1.00
C53    C     0.62120   0.52890   0.86070   0.01267  Uiso   1.00
C54    C     0.66620   0.35900   0.13260   0.01267  Uiso   1.00
C55    C     0.81270   0.19850   0.90810   0.01267  Uiso   1.00
C56    C     0.74090   0.92020   0.72000   0.01267  Uiso   1.00
C57    C     0.71200   0.20610   0.11990   0.01267  Uiso   1.00
C58    C     0.80160   0.04460   0.09640   0.01267  Uiso   1.00
C59    C     0.26740   0.86210   0.67710   0.01267  Uiso   1.00
C60    C     0.02800   0.20100   0.61660   0.01267  Uiso   1.00
C61    C     0.64460   0.38340   0.70100   0.01267  Uiso   1.00
C62    C     0.14170   0.33770   0.21690   0.01267  Uiso   1.00
C63    C     0.66660   0.04970   0.69710   0.01267  Uiso   1.00
C64    C     0.37060   0.50770   0.66170   0.01267  Uiso   1.00
C65    C     0.23070   0.53440   0.30500   0.01267  Uiso   1.00
C66    C     0.01120   0.40810   0.80150   0.01267  Uiso   1.00
C67    C     0.89800   0.90360   0.54460   0.01267  Uiso   1.00
C68    C     0.18730   0.80150   0.09190   0.01267  Uiso   1.00
C69    C     0.25910   0.07980   0.28000   0.01267  Uiso   1.00
C70    C     0.23690   0.07710   0.76970   0.01267  Uiso   1.00
C71    C     0.47230   0.70000   0.98780   0.01267  Uiso   1.00
C72    C     0.17230   0.48780   0.30000   0.01267  Uiso   1.00
C73    C     0.87450   0.67830   0.96050   0.01267  Uiso   1.00
C74    C     0.39050   0.61720   0.51200   0.01267  Uiso   1.00
C75    C     0.10200   0.25700   0.09420   0.01267  Uiso   1.00
C76    C     0.42940   0.89420   0.61700   0.01267  Uiso   1.00
C77    C     0.87050   0.82290   0.86210   0.01267  Uiso   1.00
C78    C     0.90010   0.85520   0.55860   0.01267  Uiso   1.00
C79    C     0.90250   0.48800   0.11720   0.01267  Uiso   1.00
C80    C     0.53800   0.29390   0.38010   0.01267  Uiso   1.00
C81    C     0.20340   0.66520   0.47700   0.01267  Uiso   1.00
C82    C     0.63530   0.54280   0.12340   0.01267  Uiso   1.00
C83    C     0.91810   0.61990   0.79390   0.01267  Uiso   1.00
C84    C     0.56800   0.06950   0.35110   0.01267  Uiso   1.00
C85    C     0.12550   0.32170   0.03950   0.01267  Uiso   1.00
C86    C     0.22940   0.54560   0.17520   0.01267  Uiso   1.00
C87    C     0.02400   0.16260   0.00540   0.01267  Uiso   1.00
C88    C     0.76510   0.80500   0.46560   0.01267  Uiso   1.00
C89    C     0.19850   0.04280   0.62340   0.01267  Uiso   1.00
C90    C     0.37880   0.47110   0.13930   0.01267  Uiso   1.00
C91    C     0.59540   0.17520   0.95440   0.01267  Uiso   1.00
C92    C     0.51080   0.97110   0.63930   0.01267  Uiso   1.00
C93    C     0.28370   0.80290   0.04970   0.01267  Uiso   1.00
C94    C     0.44260   0.45540   0.40360   0.01267  Uiso   1.00
C95    C     0.26860   0.89880   0.70740   0.01267  Uiso   1.00
C96    C     0.36250   0.14890   0.06950   0.01267  Uiso   1.00
C97    C     0.02400   0.70740   0.60120   0.01267  Uiso   1.00
C98    C     0.72080   0.09190   0.69850   0.01267  Uiso   1.00
C99    C     0.22900   0.11660   0.79900   0.01267  Uiso   1.00
C100   C     0.27920   0.90810   0.30150   0.01267  Uiso   1.00
C101   C     0.65770   0.67680   0.37180   0.01267  Uiso   1.00
C102   C     0.73390   0.83550   0.42850   0.01267  Uiso   1.00
C103   C     0.08090   0.35110   0.43050   0.01267  Uiso   1.00
C104   C     0.30800   0.66260   0.50540   0.01267  Uiso   1.00
C105   C     0.38340   0.08170   0.24990   0.01267  Uiso   1.00
C106   C     0.46200   0.70610   0.61990   0.01267  Uiso   1.00
C107   C     0.16240   0.57150   0.33550   0.01267  Uiso   1.00
C108   C     0.96770   0.66170   0.99230   0.01267  Uiso   1.00
C109   C     0.18420   0.08100   0.96700   0.01267  Uiso   1.00
C110   C     0.47940   0.71690   0.66230   0.01267  Uiso   1.00
C111   C     0.54510   0.57410   0.23050   0.01267  Uiso   1.00
C112   C     0.46380   0.87580   0.34260   0.01267  Uiso   1.00
C113   C     0.85830   0.66230   0.78310   0.01267  Uiso   1.00
C114   C     0.36470   0.45720   0.87660   0.01267  Uiso   1.00
C115   C     0.84620   0.59640   0.95540   0.01267  Uiso   1.00
C116   C     0.63750   0.85110   0.93050   0.01267  Uiso   1.00
C117   C     0.57060   0.10580   0.38300   0.01267  Uiso   1.00
C118   C     0.55320   0.66830   0.11330   0.01267  Uiso   1.00
C119   C     0.04000   0.99230   0.83830   0.01267  Uiso   1.00
C120   C     0.83190   0.88010   0.70610   0.01267  Uiso   1.00
C121   C     0.11890   0.42020   0.22000   0.01267  Uiso   1.00
C122   C     0.75530   0.05860   0.14480   0.01267  Uiso   1.00
C123   C     0.77500   0.67520   0.45440   0.01267  Uiso   1.00
C124   C     0.20120   0.13260   0.14100   0.01267  Uiso   1.00
C125   C     0.35900   0.59420   0.74300   0.01267  Uiso   1.00
C126   C     0.76930   0.46560   0.69500   0.01267  Uiso   1.00
C127   C     0.79370   0.17680   0.87180   0.01267  Uiso   1.00
C128   C     0.08660   0.54970   0.19710   0.01267  Uiso   1.00
C129   C     0.98670   0.17830   0.46050   0.01267  Uiso   1.00
C130   C     0.63630   0.69710   0.45030   0.01267  Uiso   1.00
C131   C     0.73220   0.41900   0.53300   0.01267  Uiso   1.00
C132   C     0.02940   0.99460   0.66260   0.01267  Uiso   1.00
C133   C     0.28800   0.79390   0.88010   0.01267  Uiso   1.00
C134   C     0.19620   0.90580   0.75700   0.01267  Uiso   1.00
C135   C     0.45490   0.42590   0.76950   0.01267  Uiso   1.00
C136   C     0.18220   0.62420   0.15740   0.01267  Uiso   1.00
C137   C     0.69340   0.36210   0.17710   0.01267  Uiso   1.00
C138   C     0.00290   0.38600   0.99620   0.01267  Uiso   1.00
C139   C     0.97050   0.37180   0.82320   0.01267  Uiso   1.00
C140   C     0.33450   0.87180   0.32320   0.01267  Uiso   1.00
C141   C     0.99340   0.76970   0.42290   0.01267  Uiso   1.00
C142   C     0.41630   0.57710   0.26970   0.01267  Uiso   1.00
C143   C     0.51810   0.86070   0.97110   0.01267  Uiso   1.00
C144   C     0.22500   0.32480   0.54560   0.01267  Uiso   1.00
C145   C     0.12950   0.17710   0.13790   0.01267  Uiso   1.00
C146   C     0.97480   0.36740   0.35900   0.01267  Uiso   1.00
C147   C     0.44680   0.33170   0.88670   0.01267  Uiso   1.00
C148   C     0.26780   0.58100   0.46700   0.01267  Uiso   1.00
C149   C     0.81390   0.64480   0.94140   0.01267  Uiso   1.00
C150   C     0.35860   0.78310   0.83770   0.01267  Uiso   1.00
C151   C     0.00090   0.99620   0.11400   0.01267  Uiso   1.00
C152   C     0.66010   0.80000   0.51220   0.01267  Uiso   1.00
C153   C     0.46510   0.74990   0.91830   0.01267  Uiso   1.00
C154   C     0.20630   0.82320   0.12820   0.01267  Uiso   1.00
C155   C     0.19360   0.34260   0.62420   0.01267  Uiso   1.00
C156   C     0.19840   0.95540   0.90360   0.01267  Uiso   1.00
C157   C     0.66650   0.88670   0.16830   0.01267  Uiso   1.00
C158   C     0.45870   0.44140   0.35520   0.01267  Uiso   1.00
C159   C     0.95360   0.61700   0.60580   0.01267  Uiso   1.00
C160   C     0.36670   0.24990   0.41830   0.01267  Uiso   1.00
C161   C     0.02520   0.63260   0.64100   0.01267  Uiso   1.00
C162   C     0.95320   0.24300   0.40580   0.01267  Uiso   1.00
C163   C     0.91910   0.64890   0.56950   0.01267  Uiso   1.00
C164   C     0.84560   0.83480   0.02300   0.01267  Uiso   1.00
C165   C     0.22440   0.23050   0.92590   0.01267  Uiso   1.00
C166   C     0.63330   0.75010   0.58170   0.01267  Uiso   1.00
C167   C     0.61110   0.50380   0.38600   0.01267  Uiso   1.00
C168   C     0.17810   0.62340   0.45720   0.01267  Uiso   1.00
C169   C     0.54980   0.04560   0.67520   0.01267  Uiso   1.00
C170   C     0.77060   0.45440   0.82480   0.01267  Uiso   1.00
C171   C     0.51140   0.56950   0.85110   0.01267  Uiso   1.00
C172   C     0.43200   0.93050   0.64890   0.01267  Uiso   1.00
C173   C     0.53570   0.69500   0.03440   0.01267  Uiso   1.00
C174   C     0.48780   0.75140   0.83300   0.01267  Uiso   1.00
C175   C     0.56940   0.92850   0.16450   0.01267  Uiso   1.00
C176   C     0.53490   0.25010   0.08170   0.01267  Uiso   1.00
C177   C     0.41930   0.30150   0.59190   0.01267  Uiso   1.00
C178   C     0.97600   0.83740   0.99460   0.01267  Uiso   1.00
C179   C     0.67920   0.83300   0.74860   0.01267  Uiso   1.00
C180   C     0.55940   0.39420   0.11700   0.01267  Uiso   1.00
C181   C     0.15440   0.16520   0.97700   0.01267  Uiso   1.00
C182   C     0.73140   0.10120   0.29260   0.01267  Uiso   1.00
C183   C     0.33350   0.11330   0.83170   0.01267  Uiso   1.00
C184   C     0.01970   0.88280   0.98800   0.01267  Uiso   1.00
C185   C     0.64100   0.40580   0.25700   0.01267  Uiso   1.00
C186   C     0.84990   0.63930   0.52890   0.01267  Uiso   1.00
C187   C     0.33380   0.64100   0.86740   0.01267  Uiso   1.00
C188   C     0.12170   0.83830   0.50770   0.01267  Uiso   1.00
C189   C     0.38890   0.49620   0.61400   0.01267  Uiso   1.00
C190   C     0.24130   0.12340   0.95720   0.01267  Uiso   1.00
C191   C     0.64140   0.21690   0.16230   0.01267  Uiso   1.00
C192   C     0.78500   0.58170   0.74990   0.01267  Uiso   1.00
C193   C     0.83760   0.42850   0.66450   0.01267  Uiso   1.00
C194   C     0.04640   0.38300   0.39420   0.01267  Uiso   1.00
C195   C     0.96000   0.00770   0.16170   0.01267  Uiso   1.00
C196   C     0.67640   0.88300   0.89420   0.01267  Uiso   1.00
C197   C     0.94450   0.32290   0.36210   0.01267  Uiso   1.00
C198   C     0.81780   0.37580   0.84260   0.01267  Uiso   1.00
C199   C     0.97200   0.79900   0.38340   0.01267  Uiso   1.00
C200   C     0.52770   0.30000   0.01220   0.01267  Uiso   1.00
C201   C     0.80370   0.83770   0.71690   0.01267  Uiso   1.00
C202   C     0.48860   0.43050   0.14890   0.01267  Uiso   1.00
C203   C     0.05550   0.67710   0.63790   0.01267  Uiso   1.00
C204   C     0.88110   0.57980   0.78000   0.01267  Uiso   1.00
C205   C     0.68600   0.73030   0.07710   0.01267  Uiso   1.00
C206   C     0.83480   0.83170   0.38670   0.01267  Uiso   1.00
C207   C     0.42990   0.03440   0.80500   0.01267  Uiso   1.00
C208   C     0.55740   0.54460   0.59640   0.01267  Uiso   1.00
C209   C     0.44720   0.53950   0.67830   0.01267  Uiso   1.00
C210   C     0.40460   0.82480   0.04560   0.01267  Uiso   1.00
C211   C     0.15030   0.07410   0.73050   0.01267  Uiso   1.00
C212   C     0.43060   0.07150   0.83550   0.01267  Uiso   1.00
C213   C     0.65440   0.70100   0.11660   0.01267  Uiso   1.00
C214   C     0.23920   0.33300   0.24860   0.01267  Uiso   1.00
C215   C     0.73260   0.13790   0.32290   0.01267  Uiso   1.00
C216   C     0.31960   0.47700   0.83480   0.01267  Uiso   1.00
C217   C     0.76310   0.92290   0.23030   0.01267  Uiso   1.00
C218   C     0.09750   0.51200   0.88280   0.01267  Uiso   1.00
C219   C     0.24470   0.94140   0.85520   0.01267  Uiso   1.00
C220   C     0.22150   0.61330   0.33170   0.01267  Uiso   1.00
C221   C     0.26610   0.16450   0.57150   0.01267  Uiso   1.00
C222   C     0.11490   0.88600   0.49620   0.01267  Uiso   1.00
C223   C     0.55280   0.46050   0.32170   0.01267  Uiso   1.00
C224   C     0.57010   0.96560   0.19500   0.01267  Uiso   1.00
C225   C     0.80150   0.95720   0.37660   0.01267  Uiso   1.00
C226   C     0.87830   0.16170   0.49230   0.01267  Uiso   1.00
C227   C     0.68040   0.52300   0.16520   0.01267  Uiso   1.00
C228   C     0.26520   0.46700   0.91900   0.01267  Uiso   1.00
C229   C     0.42780   0.25140   0.33300   0.01267  Uiso   1.00
C230   C     0.79880   0.86740   0.85900   0.01267  Uiso   1.00
C231   C     0.69200   0.33740   0.49460   0.01267  Uiso   1.00
C232   C     0.33340   0.95030   0.30290   0.01267  Uiso   1.00
C233   C     0.32080   0.16700   0.25140   0.01267  Uiso   1.00
C234   C     0.83260   0.79260   0.89880   0.01267  Uiso   1.00
C235   C     0.04680   0.75700   0.59420   0.01267  Uiso   1.00
C236   C     0.65780   0.14100   0.36740   0.01267  Uiso   1.00
C237   C     0.21500   0.41830   0.25010   0.01267  Uiso   1.00
C238   C     0.89800   0.74300   0.90580   0.01267  Uiso   1.00
C239   C     0.31400   0.26970   0.92290   0.01267  Uiso   1.00
C240   C     0.77850   0.38670   0.66830   0.01267  Uiso   1.00
C241   C     0.82190   0.37660   0.54280   0.01267  Uiso   1.00
C242   C     0.98030   0.11720   0.01200   0.01267  Uiso   1.00
C243   C     0.80640   0.65740   0.37580   0.01267  Uiso   1.00
C244   C     0.46090   0.28000   0.42020   0.01267  Uiso   1.00
C245   C     0.62940   0.49230   0.33830   0.01267  Uiso   1.00
C246   C     0.99230   0.98800   0.61720   0.01267  Uiso   1.00
C247   C     0.88080   0.26950   0.57410   0.01267  Uiso   1.00
C248   C     0.13140   0.02300   0.66520   0.01267  Uiso   1.00
C249   C     0.02950   0.62820   0.17680   0.01267  Uiso   1.00
C250   C     0.33890   0.78000   0.92020   0.01267  Uiso   1.00
C251   C     0.16500   0.96050   0.82170   0.01267  Uiso   1.00
C252   C     0.11920   0.73050   0.42590   0.01267  Uiso   1.00
C253   C     0.84970   0.92590   0.26950   0.01267  Uiso   1.00
C254   C     0.58070   0.69850   0.40810   0.01267  Uiso   1.00
C255   C     0.82770   0.51220   0.70000   0.01267  Uiso   1.00
C256   C     0.53990   0.98780   0.80000   0.01267  Uiso   1.00
C257   C     0.83500   0.03950   0.17830   0.01267  Uiso   1.00
C258   C     0.48920   0.02890   0.36070   0.01267  Uiso   1.00
C259   C     0.15010   0.36070   0.47110   0.01267  Uiso   1.00
C260   C     0.16740   0.20740   0.10120   0.01267  Uiso   1.00
C261   C     0.37480   0.60120   0.79260   0.01267  Uiso   1.00
C262   C     0.53910   0.72000   0.57980   0.01267  Uiso   1.00
C263   C     0.76080   0.66700   0.75140   0.01267  Uiso   1.00
C264   C     0.77100   0.88340   0.20100   0.01267  Uiso   1.00
C265   C     0.32360   0.11700   0.10580   0.01267  Uiso   1.00
C266   C     0.61660   0.91830   0.75010   0.01267  Uiso   1.00
C267   C     0.86860   0.97700   0.33480   0.01267  Uiso   1.00
C268   C     0.46430   0.30500   0.96560   0.01267  Uiso   1.00
C269   C     0.35540   0.61660   0.29900   0.01267  Uiso   1.00
C270   C     0.97060   0.00540   0.33740   0.01267  Uiso   1.00
C271   C     0.66040   0.15740   0.87580   0.01267  Uiso   1.00
C272   C     0.52060   0.28310   0.33770   0.01267  Uiso   1.00
N1     N     0.35140   0.53840   0.27340   0.01267  Uiso   1.00
N2     N     0.51540   0.96020   0.76500   0.01267  Uiso   1.00
N3     N     0.48460   0.03980   0.23500   0.01267  Uiso   1.00
N4     N     0.57790   0.53000   0.21000   0.01267  Uiso   1.00
N5     N     0.16370   0.32340   0.50480   0.01267  Uiso   1.00
N6     N     0.88980   0.77340   0.46160   0.01267  Uiso   1.00
N7     N     0.25940   0.46020   0.26500   0.01267  Uiso   1.00
N8     N     0.34020   0.23640   0.37520   0.01267  Uiso   1.00
N9     N     0.11020   0.22660   0.53840   0.01267  Uiso   1.00
N10    N     0.64860   0.46160   0.72660   0.01267  Uiso   1.00
N11    N     0.51380   0.91620   0.34220   0.01267  Uiso   1.00
N12    N     0.99620   0.08210   0.48550   0.01267  Uiso   1.00
N13    N     0.56460   0.45060   0.27280   0.01267  Uiso   1.00
N14    N     0.10790   0.71000   0.47000   0.01267  Uiso   1.00
N15    N     0.83630   0.67660   0.49520   0.01267  Uiso   1.00
N16    N     0.72780   0.41620   0.84220   0.01267  Uiso   1.00
N17    N     0.14400   0.34220   0.58380   0.01267  Uiso   1.00
N18    N     0.98480   0.22720   0.45060   0.01267  Uiso   1.00
N19    N     0.48170   0.51450   0.58210   0.01267  Uiso   1.00
N20    N     0.42340   0.12480   0.23640   0.01267  Uiso   1.00
N21    N     0.37380   0.57790   0.49210   0.01267  Uiso   1.00
N22    N     0.01520   0.77280   0.54940   0.01267  Uiso   1.00
N23    N     0.86590   0.50790   0.07790   0.01267  Uiso   1.00
N24    N     0.05620   0.07790   0.99210   0.01267  Uiso   1.00
N25    N     0.49190   0.17660   0.99520   0.01267  Uiso   1.00
N26    N     0.66320   0.96160   0.22660   0.01267  Uiso   1.00
N27    N     0.21210   0.21000   0.97000   0.01267  Uiso   1.00
N28    N     0.71540   0.80890   0.93290   0.01267  Uiso   1.00
N29    N     0.81790   0.97000   0.29000   0.01267  Uiso   1.00
N30    N     0.52440   0.73500   0.96020   0.01267  Uiso   1.00
N31    N     0.95720   0.69110   0.56710   0.01267  Uiso   1.00
N32    N     0.04830   0.00790   0.57790   0.01267  Uiso   1.00
N33    N     0.89210   0.29000   0.53000   0.01267  Uiso   1.00
N34    N     0.48710   0.00480   0.67660   0.01267  Uiso   1.00
N35    N     0.50810   0.82340   0.00480   0.01267  Uiso   1.00
N36    N     0.00380   0.91790   0.51450   0.01267  Uiso   1.00
N37    N     0.43540   0.54940   0.72720   0.01267  Uiso   1.00
N38    N     0.18210   0.03000   0.71000   0.01267  Uiso   1.00
N39    N     0.28460   0.19110   0.06710   0.01267  Uiso   1.00
N40    N     0.42210   0.47000   0.79000   0.01267  Uiso   1.00
N41    N     0.33150   0.50480   0.17660   0.01267  Uiso   1.00
N42    N     0.51830   0.48550   0.41790   0.01267  Uiso   1.00
N43    N     0.47560   0.26500   0.03980   0.01267  Uiso   1.00
N44    N     0.35170   0.93290   0.69110   0.01267  Uiso   1.00
N45    N     0.13410   0.49210   0.92210   0.01267  Uiso   1.00
N46    N     0.66850   0.49520   0.82340   0.01267  Uiso   1.00
N47    N     0.94380   0.92210   0.00790   0.01267  Uiso   1.00
N48    N     0.45180   0.26360   0.12480   0.01267  Uiso   1.00
N49    N     0.78790   0.79000   0.03000   0.01267  Uiso   1.00
N50    N     0.65980   0.76360   0.62480   0.01267  Uiso   1.00
N51    N     0.57000   0.15780   0.91620   0.01267  Uiso   1.00
N52    N     0.51290   0.99520   0.32340   0.01267  Uiso   1.00
N53    N     0.52430   0.43290   0.19110   0.01267  Uiso   1.00
N54    N     0.62480   0.72660   0.03840   0.01267  Uiso   1.00
N55    N     0.47570   0.56710   0.80890   0.01267  Uiso   1.00
N56    N     0.95170   0.99210   0.42210   0.01267  Uiso   1.00
N57    N     0.27220   0.58380   0.15780   0.01267  Uiso   1.00
N58    N     0.16260   0.27280   0.04940   0.01267  Uiso   1.00
N59    N     0.54820   0.73640   0.87520   0.01267  Uiso   1.00
N60    N     0.78800   0.04940   0.22720   0.01267  Uiso   1.00
N61    N     0.28040   0.23500   0.46020   0.01267  Uiso   1.00
N62    N     0.28460   0.37520   0.26360   0.01267  Uiso   1.00
N63    N     0.71960   0.76500   0.53980   0.01267  Uiso   1.00
N64    N     0.92170   0.01450   0.08210   0.01267  Uiso   1.00
N65    N     0.62620   0.42210   0.50790   0.01267  Uiso   1.00
N66    N     0.93620   0.58210   0.98550   0.01267  Uiso   1.00
N67    N     0.43000   0.84220   0.08380   0.01267  Uiso   1.00
N68    N     0.07830   0.98550   0.91790   0.01267  Uiso   1.00
N69    N     0.74060   0.53980   0.73500   0.01267  Uiso   1.00
N70    N     0.83740   0.72720   0.95060   0.01267  Uiso   1.00
N71    N     0.37520   0.27340   0.96160   0.01267  Uiso   1.00
N72    N     0.64830   0.06710   0.30890   0.01267  Uiso   1.00
N73    N     0.04280   0.30890   0.43290   0.01267  Uiso   1.00
N74    N     0.85600   0.65780   0.41620   0.01267  Uiso   1.00
N75    N     0.57660   0.87520   0.76360   0.01267  Uiso   1.00
N76    N     0.71540   0.62480   0.73640   0.01267  Uiso   1.00
N77    N     0.06380   0.41790   0.01450   0.01267  Uiso   1.00
N78    N     0.48620   0.08380   0.65780   0.01267  Uiso   1.00
N79    N     0.33680   0.03840   0.77340   0.01267  Uiso   1.00
N80    N     0.21200   0.95060   0.77280   0.01267  Uiso   1.00
Cl1    Cl    0.21520   0.51850   0.02770   0.01267  Uiso   1.00
Cl2    Cl    0.24290   0.97230   0.01850   0.01267  Uiso   1.00
Cl3    Cl    0.73370   0.52770   0.48150   0.01267  Uiso   1.00
Cl4    Cl    0.26630   0.47230   0.51850   0.01267  Uiso   1.00
Cl5    Cl    0.73860   0.01850   0.52770   0.01267  Uiso   1.00
Cl6    Cl    0.75710   0.02770   0.98150   0.01267  Uiso   1.00
Cl7    Cl    0.26140   0.98150   0.47230   0.01267  Uiso   1.00
Cl8    Cl    0.78480   0.48150   0.97230   0.01267  Uiso   1.00
O1     O     0.20190   0.39970   0.47510   0.01267  Uiso   1.00
O2     O     0.82760   0.78150   0.10930   0.01267  Uiso   1.00
O3     O     0.93690   0.89070   0.28150   0.01267  Uiso   1.00
O4     O     0.57670   0.10030   0.02490   0.01267  Uiso   1.00
O5     O     0.78160   0.28150   0.60930   0.01267  Uiso   1.00
O6     O     0.27980   0.62300   0.72100   0.01267  Uiso   1.00
O7     O     0.06340   0.47810   0.32730   0.01267  Uiso   1.00
O8     O     0.39840   0.02490   0.39970   0.01267  Uiso   1.00
O9     O     0.60160   0.97510   0.60030   0.01267  Uiso   1.00
O10    O     0.36880   0.02190   0.17270   0.01267  Uiso   1.00
O11    O     0.67700   0.52490   0.89970   0.01267  Uiso   1.00
O12    O     0.09720   0.77900   0.62300   0.01267  Uiso   1.00
O13    O     0.63120   0.97810   0.82730   0.01267  Uiso   1.00
O14    O     0.93660   0.52190   0.67270   0.01267  Uiso   1.00
O15    O     0.42330   0.89970   0.97510   0.01267  Uiso   1.00
O16    O     0.06310   0.10930   0.71850   0.01267  Uiso   1.00
O17    O     0.12380   0.87700   0.77900   0.01267  Uiso   1.00
O18    O     0.45850   0.17270   0.47810   0.01267  Uiso   1.00
O19    O     0.60930   0.32730   0.02190   0.01267  Uiso   1.00
O20    O     0.32300   0.47510   0.10030   0.01267  Uiso   1.00
O21    O     0.79810   0.60030   0.52490   0.01267  Uiso   1.00
O22    O     0.39090   0.39070   0.78150   0.01267  Uiso   1.00
O23    O     0.54150   0.82730   0.52190   0.01267  Uiso   1.00
O24    O     0.72020   0.37700   0.27900   0.01267  Uiso   1.00
O25    O     0.87620   0.12300   0.22100   0.01267  Uiso   1.00
O26    O     0.60910   0.60930   0.21850   0.01267  Uiso   1.00
O27    O     0.21840   0.71850   0.39070   0.01267  Uiso   1.00
O28    O     0.90280   0.22100   0.37700   0.01267  Uiso   1.00
O29    O     0.39070   0.67270   0.97810   0.01267  Uiso   1.00
O30    O     0.17240   0.21850   0.89070   0.01267  Uiso   1.00
O31    O     0.99920   0.72100   0.87700   0.01267  Uiso   1.00
O32    O     0.00080   0.27900   0.12300   0.01267  Uiso   1.00
