data_image0
_cell_length_a       5.1242
_cell_length_b       25.0641
_cell_length_c       27.1877
_cell_angle_alpha    90
_cell_angle_beta     90.94
_cell_angle_gamma    90

_symmetry_space_group_name_H-M    "P 1"
_symmetry_int_tables_number       1

loop_
  _symmetry_equiv_pos_as_xyz
  'x, y, z'

loop_
  _atom_site_label
  _atom_site_occupancy
  _atom_site_fract_x
  _atom_site_fract_y
  _atom_site_fract_z
  _atom_site_thermal_displace_type
  _atom_site_B_iso_or_equiv
  _atom_site_type_symbol
  Zn1      1.0000 0.40363  0.28725  0.36119  Biso   1.000  Zn
  Zn2      1.0000 0.89710  0.10867  0.37489  Biso   1.000  Zn
  Zn3      1.0000 0.26554  0.06007  0.28323  Biso   1.000  Zn
  Zn4      1.0000 0.82779  0.96038  0.21156  Biso   1.000  Zn
  Zn5      1.0000 0.73319  0.00086  0.43441  Biso   1.000  Zn
  P1       1.0000 0.39160  0.16511  0.34126  Biso   1.000  P
  P2       1.0000 0.30320  0.01981  0.17576  Biso   1.000  P
  P3       1.0000 0.58180  0.85701  0.16108  Biso   1.000  P
  P4       1.0000 0.78920  0.00071  0.32035  Biso   1.000  P
  P5       1.0000 0.78680  0.93658  0.53235  Biso   1.000  P
  O1       1.0000 0.50110  0.22043  0.33139  Biso   1.000  O
  O2       1.0000 0.41160  0.13206  0.29357  Biso   1.000  O
  O3       1.0000 0.55080  0.13641  0.38256  Biso   1.000  O
  O4       1.0000 0.10900  0.16812  0.35783  Biso   1.000  O
  O5       1.0000 0.19310  0.05720  0.21401  Biso   1.000  O
  O6       1.0000 0.26390  0.04670  0.12375  Biso   1.000  O
  H1       1.0000 0.20210  0.07070  0.10960  Biso   1.000  H
  O7       1.0000 0.15540  0.96652  0.17479  Biso   1.000  O
  O8       1.0000 0.59570  0.01209  0.18117  Biso   1.000  O
  O9       1.0000 0.43280  0.89680  0.12550  Biso   1.000  O
  H2       1.0000 0.48080  0.91690  0.09830  Biso   1.000  H
  O10      1.0000 0.79580  0.83325  0.13000  Biso   1.000  O
  O11      1.0000 0.38800  0.81499  0.17841  Biso   1.000  O
  O12      1.0000 0.68690  0.88768  0.20539  Biso   1.000  O
  O13      1.0000 0.91570  0.96677  0.28088  Biso   1.000  O
  O14      1.0000 0.83520  0.97331  0.37056  Biso   1.000  O
  O15      1.0000 0.93480  0.05642  0.32112  Biso   1.000  O
  O16      1.0000 0.50050  0.00890  0.31201  Biso   1.000  O
  O17      1.0000 0.85520  0.94658  0.47932  Biso   1.000  O
  O18      1.0000 0.64770  0.88050  0.53427  Biso   1.000  O
  O19      1.0000 0.04730  0.93166  0.56298  Biso   1.000  O
  O20      1.0000 0.62200  0.97958  0.55552  Biso   1.000  O
  N1       1.0000 0.29270  0.27560  0.43210  Biso   1.000  N
  N2       1.0000 0.89330  0.27980  0.59790  Biso   1.000  N
  N3       1.0000 0.00900  0.22424  0.65836  Biso   1.000  N
  H3       1.0000 0.00830  0.20510  0.68230  Biso   1.000  H
  N4       1.0000 0.27110  0.33180  0.73270  Biso   1.000  N
  H4       1.0000 0.15390  0.34560  0.75410  Biso   1.000  H
  N5       1.0000 0.74600  0.09380  0.62570  Biso   1.000  N
  H5       1.0000 0.86180  0.07130  0.62200  Biso   1.000  H
  C1       1.0000 0.08520  0.24680  0.44390  Biso   1.000  C
  H6       1.0000 0.97890  0.23390  0.41850  Biso   1.000  H
  C2       1.0000 0.01950  0.23510  0.49110  Biso   1.000  C
  H7       1.0000 0.87610  0.21350  0.49720  Biso   1.000  H
  C3       1.0000 0.16520  0.25530  0.52950  Biso   1.000  C
  C4       1.0000 0.37710  0.28570  0.51870  Biso   1.000  C
  H8       1.0000 0.48190  0.29980  0.54370  Biso   1.000  H
  C5       1.0000 0.43530  0.29540  0.46930  Biso   1.000  C
  H9       1.0000 0.57900  0.31660  0.46220  Biso   1.000  H
  C6       1.0000 0.08470  0.24670  0.58100  Biso   1.000  C
  C7       1.0000 0.85240  0.26510  0.64430  Biso   1.000  C
  C8       1.0000 0.16360  0.21180  0.61900  Biso   1.000  C
  C9       1.0000 0.65380  0.28890  0.67560  Biso   1.000  C
  C10      1.0000 0.49690  0.33110  0.65760  Biso   1.000  C
  H10      1.0000 0.52090  0.34460  0.62610  Biso   1.000  H
  C11      1.0000 0.30950  0.35190  0.68720  Biso   1.000  C
  H11      1.0000 0.20720  0.38020  0.67590  Biso   1.000  H
  C12      1.0000 0.41910  0.29220  0.75060  Biso   1.000  C
  H12      1.0000 0.38970  0.27960  0.78230  Biso   1.000  H
  C13      1.0000 0.61400  0.26940  0.72340  Biso   1.000  C
  H13      1.0000 0.71650  0.24200  0.73620  Biso   1.000  H
  C14      1.0000 0.36200  0.17060  0.62090  Biso   1.000  C
  C15      1.0000 0.43670  0.14710  0.66550  Biso   1.000  C
  H14      1.0000 0.35440  0.15710  0.69430  Biso   1.000  H
  C16      1.0000 0.63140  0.10910  0.66720  Biso   1.000  C
  H15      1.0000 0.68290  0.09420  0.69720  Biso   1.000  H
  C17      1.0000 0.67510  0.11390  0.58210  Biso   1.000  C
  H16      1.0000 0.75630  0.10200  0.55380  Biso   1.000  H
  C18      1.0000 0.48290  0.15230  0.57850  Biso   1.000  C
  H17      1.0000 0.43400  0.16590  0.54780  Biso   1.000  H
  Zn6      1.0000 0.09637  0.78725  0.13881  Biso   1.000  Zn
  Zn7      1.0000 0.60290  0.60867  0.12511  Biso   1.000  Zn
  Zn8      1.0000 0.23446  0.56007  0.21677  Biso   1.000  Zn
  Zn9      1.0000 0.67221  0.46038  0.28844  Biso   1.000  Zn
  Zn10     1.0000 0.76681  0.50086  0.06559  Biso   1.000  Zn
  P6       1.0000 0.10840  0.66511  0.15874  Biso   1.000  P
  P7       1.0000 0.19680  0.51981  0.32424  Biso   1.000  P
  P8       1.0000 0.91820  0.35701  0.33892  Biso   1.000  P
  P9       1.0000 0.71080  0.50071  0.17965  Biso   1.000  P
  P10      1.0000 0.71320  0.43658  0.96765  Biso   1.000  P
  O21      1.0000 0.99890  0.72043  0.16861  Biso   1.000  O
  O22      1.0000 0.08840  0.63206  0.20643  Biso   1.000  O
  O23      1.0000 0.94920  0.63641  0.11744  Biso   1.000  O
  O24      1.0000 0.39100  0.66812  0.14217  Biso   1.000  O
  O25      1.0000 0.30690  0.55720  0.28599  Biso   1.000  O
  O26      1.0000 0.23610  0.54670  0.37625  Biso   1.000  O
  H18      1.0000 0.29790  0.57070  0.39040  Biso   1.000  H
  O27      1.0000 0.34460  0.46652  0.32521  Biso   1.000  O
  O28      1.0000 0.90430  0.51209  0.31883  Biso   1.000  O
  O29      1.0000 0.06720  0.39680  0.37450  Biso   1.000  O
  H19      1.0000 0.01920  0.41690  0.40170  Biso   1.000  H
  O30      1.0000 0.70420  0.33325  0.37000  Biso   1.000  O
  O31      1.0000 0.11200  0.31499  0.32159  Biso   1.000  O
  O32      1.0000 0.81310  0.38768  0.29461  Biso   1.000  O
  O33      1.0000 0.58430  0.46677  0.21912  Biso   1.000  O
  O34      1.0000 0.66480  0.47331  0.12944  Biso   1.000  O
  O35      1.0000 0.56520  0.55642  0.17888  Biso   1.000  O
  O36      1.0000 0.99950  0.50890  0.18799  Biso   1.000  O
  O37      1.0000 0.64480  0.44658  0.02068  Biso   1.000  O
  O38      1.0000 0.85230  0.38050  0.96573  Biso   1.000  O
  O39      1.0000 0.45270  0.43166  0.93702  Biso   1.000  O
  O40      1.0000 0.87800  0.47958  0.94448  Biso   1.000  O
  N6       1.0000 0.20730  0.77560  0.06790  Biso   1.000  N
  N7       1.0000 0.60670  0.77980  0.90210  Biso   1.000  N
  N8       1.0000 0.49100  0.72424  0.84164  Biso   1.000  N
  H20      1.0000 0.49170  0.70510  0.81770  Biso   1.000  H
  N9       1.0000 0.22890  0.83180  0.76730  Biso   1.000  N
  H21      1.0000 0.34610  0.84560  0.74590  Biso   1.000  H
  N10      1.0000 0.75400  0.59380  0.87430  Biso   1.000  N
  H22      1.0000 0.63820  0.57130  0.87800  Biso   1.000  H
  C19      1.0000 0.41480  0.74680  0.05610  Biso   1.000  C
  H23      1.0000 0.52110  0.73390  0.08150  Biso   1.000  H
  C20      1.0000 0.48050  0.73510  0.00890  Biso   1.000  C
  H24      1.0000 0.62390  0.71350  0.00280  Biso   1.000  H
  C21      1.0000 0.33480  0.75530  0.97050  Biso   1.000  C
  C22      1.0000 0.12290  0.78570  0.98130  Biso   1.000  C
  H25      1.0000 0.01810  0.79980  0.95630  Biso   1.000  H
  C23      1.0000 0.06470  0.79540  0.03070  Biso   1.000  C
  H26      1.0000 0.92100  0.81660  0.03780  Biso   1.000  H
  C24      1.0000 0.41530  0.74670  0.91900  Biso   1.000  C
  C25      1.0000 0.64760  0.76510  0.85570  Biso   1.000  C
  C26      1.0000 0.33640  0.71180  0.88100  Biso   1.000  C
  C27      1.0000 0.84620  0.78890  0.82440  Biso   1.000  C
  C28      1.0000 0.00310  0.83110  0.84240  Biso   1.000  C
  H27      1.0000 0.97910  0.84460  0.87390  Biso   1.000  H
  C29      1.0000 0.19050  0.85190  0.81280  Biso   1.000  C
  H28      1.0000 0.29280  0.88020  0.82410  Biso   1.000  H
  C30      1.0000 0.08090  0.79220  0.74940  Biso   1.000  C
  H29      1.0000 0.11030  0.77960  0.71770  Biso   1.000  H
  C31      1.0000 0.88600  0.76940  0.77660  Biso   1.000  C
  H30      1.0000 0.78350  0.74200  0.76380  Biso   1.000  H
  C32      1.0000 0.13800  0.67060  0.87910  Biso   1.000  C
  C33      1.0000 0.06330  0.64710  0.83450  Biso   1.000  C
  H31      1.0000 0.14560  0.65710  0.80570  Biso   1.000  H
  C34      1.0000 0.86860  0.60910  0.83280  Biso   1.000  C
  H32      1.0000 0.81710  0.59420  0.80280  Biso   1.000  H
  C35      1.0000 0.82490  0.61390  0.91790  Biso   1.000  C
  H33      1.0000 0.74370  0.60200  0.94620  Biso   1.000  H
  C36      1.0000 0.01710  0.65230  0.92150  Biso   1.000  C
  H34      1.0000 0.06600  0.66590  0.95220  Biso   1.000  H
  Zn11     1.0000 0.59637  0.71275  0.63881  Biso   1.000  Zn
  Zn12     1.0000 0.10290  0.89133  0.62511  Biso   1.000  Zn
  Zn13     1.0000 0.73446  0.93993  0.71677  Biso   1.000  Zn
  Zn14     1.0000 0.17221  0.03962  0.78844  Biso   1.000  Zn
  Zn15     1.0000 0.26681  0.99914  0.56559  Biso   1.000  Zn
  P11      1.0000 0.60840  0.83489  0.65874  Biso   1.000  P
  P12      1.0000 0.69680  0.98019  0.82424  Biso   1.000  P
  P13      1.0000 0.41820  0.14299  0.83892  Biso   1.000  P
  P14      1.0000 0.21080  0.99929  0.67965  Biso   1.000  P
  P15      1.0000 0.21320  0.06342  0.46765  Biso   1.000  P
  O41      1.0000 0.49890  0.77957  0.66861  Biso   1.000  O
  O42      1.0000 0.58840  0.86794  0.70643  Biso   1.000  O
  O43      1.0000 0.44920  0.86359  0.61744  Biso   1.000  O
  O44      1.0000 0.89100  0.83188  0.64217  Biso   1.000  O
  O45      1.0000 0.80690  0.94280  0.78599  Biso   1.000  O
  O46      1.0000 0.73610  0.95330  0.87625  Biso   1.000  O
  H35      1.0000 0.79790  0.92930  0.89040  Biso   1.000  H
  O47      1.0000 0.84460  0.03348  0.82521  Biso   1.000  O
  O48      1.0000 0.40430  0.98791  0.81883  Biso   1.000  O
  O49      1.0000 0.56720  0.10320  0.87450  Biso   1.000  O
  H36      1.0000 0.51920  0.08310  0.90170  Biso   1.000  H
  O50      1.0000 0.20420  0.16675  0.87000  Biso   1.000  O
  O51      1.0000 0.61200  0.18501  0.82159  Biso   1.000  O
  O52      1.0000 0.31310  0.11232  0.79461  Biso   1.000  O
  O53      1.0000 0.08430  0.03323  0.71912  Biso   1.000  O
  O54      1.0000 0.16480  0.02669  0.62944  Biso   1.000  O
  O55      1.0000 0.06520  0.94358  0.67888  Biso   1.000  O
  O56      1.0000 0.49950  0.99110  0.68799  Biso   1.000  O
  O57      1.0000 0.14480  0.05342  0.52068  Biso   1.000  O
  O58      1.0000 0.35230  0.11950  0.46573  Biso   1.000  O
  O59      1.0000 0.95270  0.06834  0.43702  Biso   1.000  O
  O60      1.0000 0.37800  0.02042  0.44448  Biso   1.000  O
  N11      1.0000 0.70730  0.72440  0.56790  Biso   1.000  N
  N12      1.0000 0.10670  0.72020  0.40210  Biso   1.000  N
  N13      1.0000 0.99100  0.77576  0.34164  Biso   1.000  N
  H37      1.0000 0.99170  0.79490  0.31770  Biso   1.000  H
  N14      1.0000 0.72890  0.66820  0.26730  Biso   1.000  N
  H38      1.0000 0.84610  0.65440  0.24590  Biso   1.000  H
  N15      1.0000 0.25400  0.90620  0.37430  Biso   1.000  N
  H39      1.0000 0.13820  0.92870  0.37800  Biso   1.000  H
  C37      1.0000 0.91480  0.75320  0.55610  Biso   1.000  C
  H40      1.0000 0.02110  0.76610  0.58150  Biso   1.000  H
  C38      1.0000 0.98050  0.76490  0.50890  Biso   1.000  C
  H41      1.0000 0.12390  0.78650  0.50280  Biso   1.000  H
  C39      1.0000 0.83480  0.74470  0.47050  Biso   1.000  C
  C40      1.0000 0.62290  0.71430  0.48130  Biso   1.000  C
  H42      1.0000 0.51810  0.70020  0.45630  Biso   1.000  H
  C41      1.0000 0.56470  0.70460  0.53070  Biso   1.000  C
  H43      1.0000 0.42100  0.68340  0.53780  Biso   1.000  H
  C42      1.0000 0.91530  0.75330  0.41900  Biso   1.000  C
  C43      1.0000 0.14760  0.73490  0.35570  Biso   1.000  C
  C44      1.0000 0.83640  0.78820  0.38100  Biso   1.000  C
  C45      1.0000 0.34620  0.71110  0.32440  Biso   1.000  C
  C46      1.0000 0.50310  0.66890  0.34240  Biso   1.000  C
  H44      1.0000 0.47910  0.65540  0.37390  Biso   1.000  H
  C47      1.0000 0.69050  0.64810  0.31280  Biso   1.000  C
  H45      1.0000 0.79280  0.61980  0.32410  Biso   1.000  H
  C48      1.0000 0.58090  0.70780  0.24940  Biso   1.000  C
  H46      1.0000 0.61030  0.72040  0.21770  Biso   1.000  H
  C49      1.0000 0.38600  0.73060  0.27660  Biso   1.000  C
  H47      1.0000 0.28350  0.75800  0.26380  Biso   1.000  H
  C50      1.0000 0.63800  0.82940  0.37910  Biso   1.000  C
  C51      1.0000 0.56330  0.85290  0.33450  Biso   1.000  C
  H48      1.0000 0.64560  0.84290  0.30570  Biso   1.000  H
  C52      1.0000 0.36860  0.89090  0.33280  Biso   1.000  C
  H49      1.0000 0.31710  0.90580  0.30280  Biso   1.000  H
  C53      1.0000 0.32490  0.88610  0.41790  Biso   1.000  C
  H50      1.0000 0.24370  0.89800  0.44620  Biso   1.000  H
  C54      1.0000 0.51710  0.84770  0.42150  Biso   1.000  C
  H51      1.0000 0.56600  0.83410  0.45220  Biso   1.000  H
  Zn16     1.0000 0.90363  0.21275  0.86119  Biso   1.000  Zn
  Zn17     1.0000 0.39710  0.39133  0.87489  Biso   1.000  Zn
  Zn18     1.0000 0.76554  0.43993  0.78323  Biso   1.000  Zn
  Zn19     1.0000 0.32779  0.53962  0.71156  Biso   1.000  Zn
  Zn20     1.0000 0.23319  0.49914  0.93441  Biso   1.000  Zn
  P16      1.0000 0.89160  0.33489  0.84126  Biso   1.000  P
  P17      1.0000 0.80320  0.48019  0.67576  Biso   1.000  P
  P18      1.0000 0.08180  0.64299  0.66108  Biso   1.000  P
  P19      1.0000 0.28920  0.49929  0.82035  Biso   1.000  P
  P20      1.0000 0.28680  0.56342  0.03235  Biso   1.000  P
  O61      1.0000 0.00110  0.27957  0.83139  Biso   1.000  O
  O62      1.0000 0.91160  0.36794  0.79357  Biso   1.000  O
  O63      1.0000 0.05080  0.36359  0.88256  Biso   1.000  O
  O64      1.0000 0.60900  0.33188  0.85783  Biso   1.000  O
  O65      1.0000 0.69310  0.44280  0.71401  Biso   1.000  O
  O66      1.0000 0.76390  0.45330  0.62375  Biso   1.000  O
  H52      1.0000 0.70210  0.42930  0.60960  Biso   1.000  H
  O67      1.0000 0.65540  0.53348  0.67479  Biso   1.000  O
  O68      1.0000 0.09570  0.48791  0.68117  Biso   1.000  O
  O69      1.0000 0.93280  0.60320  0.62550  Biso   1.000  O
  H53      1.0000 0.98080  0.58310  0.59830  Biso   1.000  H
  O70      1.0000 0.29580  0.66675  0.63000  Biso   1.000  O
  O71      1.0000 0.88800  0.68501  0.67841  Biso   1.000  O
  O72      1.0000 0.18690  0.61232  0.70539  Biso   1.000  O
  O73      1.0000 0.41570  0.53323  0.78088  Biso   1.000  O
  O74      1.0000 0.33520  0.52669  0.87056  Biso   1.000  O
  O75      1.0000 0.43480  0.44358  0.82112  Biso   1.000  O
  O76      1.0000 0.00050  0.49110  0.81201  Biso   1.000  O
  O77      1.0000 0.35520  0.55342  0.97932  Biso   1.000  O
  O78      1.0000 0.14770  0.61950  0.03427  Biso   1.000  O
  O79      1.0000 0.54730  0.56834  0.06298  Biso   1.000  O
  O80      1.0000 0.12200  0.52042  0.05552  Biso   1.000  O
  N16      1.0000 0.79270  0.22440  0.93210  Biso   1.000  N
  N17      1.0000 0.39330  0.22020  0.09790  Biso   1.000  N
  N18      1.0000 0.50900  0.27576  0.15836  Biso   1.000  N
  H54      1.0000 0.50830  0.29490  0.18230  Biso   1.000  H
  N19      1.0000 0.77110  0.16820  0.23270  Biso   1.000  N
  H55      1.0000 0.65390  0.15440  0.25410  Biso   1.000  H
  N20      1.0000 0.24600  0.40620  0.12570  Biso   1.000  N
  H56      1.0000 0.36180  0.42870  0.12200  Biso   1.000  H
  C55      1.0000 0.58520  0.25320  0.94390  Biso   1.000  C
  H57      1.0000 0.47890  0.26610  0.91850  Biso   1.000  H
  C56      1.0000 0.51950  0.26490  0.99110  Biso   1.000  C
  H58      1.0000 0.37610  0.28650  0.99720  Biso   1.000  H
  C57      1.0000 0.66520  0.24470  0.02950  Biso   1.000  C
  C58      1.0000 0.87710  0.21430  0.01870  Biso   1.000  C
  H59      1.0000 0.98190  0.20020  0.04370  Biso   1.000  H
  C59      1.0000 0.93530  0.20460  0.96930  Biso   1.000  C
  H60      1.0000 0.07900  0.18340  0.96220  Biso   1.000  H
  C60      1.0000 0.58470  0.25330  0.08100  Biso   1.000  C
  C61      1.0000 0.35240  0.23490  0.14430  Biso   1.000  C
  C62      1.0000 0.66360  0.28820  0.11900  Biso   1.000  C
  C63      1.0000 0.15380  0.21110  0.17560  Biso   1.000  C
  C64      1.0000 0.99690  0.16890  0.15760  Biso   1.000  C
  H61      1.0000 0.02090  0.15540  0.12610  Biso   1.000  H
  C65      1.0000 0.80950  0.14810  0.18720  Biso   1.000  C
  H62      1.0000 0.70720  0.11980  0.17590  Biso   1.000  H
  C66      1.0000 0.91910  0.20780  0.25060  Biso   1.000  C
  H63      1.0000 0.88970  0.22040  0.28230  Biso   1.000  H
  C67      1.0000 0.11400  0.23060  0.22340  Biso   1.000  C
  H64      1.0000 0.21650  0.25800  0.23620  Biso   1.000  H
  C68      1.0000 0.86200  0.32940  0.12090  Biso   1.000  C
  C69      1.0000 0.93670  0.35290  0.16550  Biso   1.000  C
  H65      1.0000 0.85440  0.34290  0.19430  Biso   1.000  H
  C70      1.0000 0.13140  0.39090  0.16720  Biso   1.000  C
  H66      1.0000 0.18290  0.40580  0.19720  Biso   1.000  H
  C71      1.0000 0.17510  0.38610  0.08210  Biso   1.000  C
  H67      1.0000 0.25630  0.39800  0.05380  Biso   1.000  H
  C72      1.0000 0.98290  0.34770  0.07850  Biso   1.000  C
  H68      1.0000 0.93400  0.33410  0.04780  Biso   1.000  H
