data_image0
_cell_length_a       28.105
_cell_length_b       28.105
_cell_length_c       14.598
_cell_angle_alpha    90
_cell_angle_beta     90
_cell_angle_gamma    120

_symmetry_space_group_name_H-M    "P 1"
_symmetry_int_tables_number       1

loop_
  _symmetry_equiv_pos_as_xyz
  'x, y, z'

loop_
  _atom_site_label
  _atom_site_occupancy
  _atom_site_fract_x
  _atom_site_fract_y
  _atom_site_fract_z
  _atom_site_thermal_displace_type
  _atom_site_B_iso_or_equiv
  _atom_site_type_symbol
  C1       1.0000 0.35980  0.25240  0.87660  Biso   1.000  C
  C2       1.0000 0.34500  0.28770  0.82430  Biso   1.000  C
  C3       1.0000 0.38100  0.32070  0.75700  Biso   1.000  C
  H1       1.0000 0.41300  0.31980  0.74550  Biso   1.000  H
  C4       1.0000 0.36890  0.35560  0.70630  Biso   1.000  C
  C5       1.0000 0.32140  0.35730  0.72380  Biso   1.000  C
  H2       1.0000 0.31280  0.38010  0.69020  Biso   1.000  H
  C6       1.0000 0.28670  0.32360  0.79320  Biso   1.000  C
  C7       1.0000 0.29780  0.29080  0.84130  Biso   1.000  C
  H3       1.0000 0.27380  0.26930  0.88730  Biso   1.000  H
  C8       1.0000 0.23510  0.32750  0.81390  Biso   1.000  C
  C9       1.0000 0.39790  0.42370  0.59070  Biso   1.000  C
  H4       1.0000 0.38680  0.44390  0.63080  Biso   1.000  H
  H5       1.0000 0.36920  0.40410  0.54580  Biso   1.000  H
  C10      1.0000 0.45200  0.46280  0.54340  Biso   1.000  C
  H6       1.0000 0.45720  0.48670  0.71580  Biso   1.000  H
  C11      1.0000 0.38890  0.52780  0.80400  Biso   1.000  C
  H7       1.0000 0.36460  0.49490  0.77530  Biso   1.000  H
  C12      1.0000 0.37640  0.54130  0.88850  Biso   1.000  C
  C13      1.0000 0.31970  0.50180  0.93240  Biso   1.000  C
  O1       1.0000 0.32100  0.21530  0.92460  Biso   1.000  O
  O2       1.0000 0.40615  0.25889  0.87050  Biso   1.000  O
  O3       1.0000 0.20614  0.29967  0.87860  Biso   1.000  O
  O4       1.0000 0.22570  0.35760  0.76200  Biso   1.000  O
  O5       1.0000 0.40762  0.38633  0.64220  Biso   1.000  O
  O6       1.0000 0.29080  0.45980  0.88170  Biso   1.000  O
  O7       1.0000 0.30714  0.50780  0.00360  Biso   1.000  O
  C14      1.0000 0.74760  0.10740  0.87660  Biso   1.000  C
  C15      1.0000 0.71230  0.05730  0.82430  Biso   1.000  C
  C16      1.0000 0.67930  0.06030  0.75700  Biso   1.000  C
  H8       1.0000 0.68020  0.09320  0.74550  Biso   1.000  H
  C17      1.0000 0.64440  0.01330  0.70630  Biso   1.000  C
  C18      1.0000 0.64270  0.96410  0.72380  Biso   1.000  C
  H9       1.0000 0.61990  0.93270  0.69020  Biso   1.000  H
  C19      1.0000 0.67640  0.96310  0.79320  Biso   1.000  C
  C20      1.0000 0.70920  0.00700  0.84130  Biso   1.000  C
  H10      1.0000 0.73070  0.00450  0.88730  Biso   1.000  H
  C21      1.0000 0.67250  0.90760  0.81390  Biso   1.000  C
  C22      1.0000 0.57630  0.97420  0.59070  Biso   1.000  C
  H11      1.0000 0.55610  0.94290  0.63080  Biso   1.000  H
  H12      1.0000 0.59590  0.96510  0.54580  Biso   1.000  H
  C23      1.0000 0.53720  0.98920  0.54340  Biso   1.000  C
  H13      1.0000 0.51330  0.97050  0.71580  Biso   1.000  H
  C24      1.0000 0.47220  0.86110  0.80400  Biso   1.000  C
  H14      1.0000 0.50510  0.86970  0.77530  Biso   1.000  H
  C25      1.0000 0.45870  0.83510  0.88850  Biso   1.000  C
  C26      1.0000 0.49820  0.81790  0.93240  Biso   1.000  C
  O8       1.0000 0.78470  0.10570  0.92460  Biso   1.000  O
  O9       1.0000 0.74111  0.14726  0.87050  Biso   1.000  O
  O10      1.0000 0.70033  0.90647  0.87860  Biso   1.000  O
  O11      1.0000 0.64240  0.86810  0.76200  Biso   1.000  O
  O12      1.0000 0.61367  0.02129  0.64220  Biso   1.000  O
  O13      1.0000 0.54020  0.83100  0.88170  Biso   1.000  O
  O14      1.0000 0.49220  0.79934  0.00360  Biso   1.000  O
  C27      1.0000 0.89260  0.64020  0.87660  Biso   1.000  C
  C28      1.0000 0.94270  0.65500  0.82430  Biso   1.000  C
  C29      1.0000 0.93970  0.61900  0.75700  Biso   1.000  C
  H15      1.0000 0.90680  0.58700  0.74550  Biso   1.000  H
  C30      1.0000 0.98670  0.63110  0.70630  Biso   1.000  C
  C31      1.0000 0.03590  0.67860  0.72380  Biso   1.000  C
  H16      1.0000 0.06730  0.68720  0.69020  Biso   1.000  H
  C32      1.0000 0.03690  0.71330  0.79320  Biso   1.000  C
  C33      1.0000 0.99300  0.70220  0.84130  Biso   1.000  C
  H17      1.0000 0.99550  0.72620  0.88730  Biso   1.000  H
  C34      1.0000 0.09240  0.76490  0.81390  Biso   1.000  C
  C35      1.0000 0.02580  0.60210  0.59070  Biso   1.000  C
  H18      1.0000 0.05710  0.61320  0.63080  Biso   1.000  H
  H19      1.0000 0.03490  0.63080  0.54580  Biso   1.000  H
  C36      1.0000 0.01080  0.54800  0.54340  Biso   1.000  C
  H20      1.0000 0.02950  0.54280  0.71580  Biso   1.000  H
  C37      1.0000 0.13890  0.61110  0.80400  Biso   1.000  C
  H21      1.0000 0.13030  0.63540  0.77530  Biso   1.000  H
  C38      1.0000 0.16490  0.62360  0.88850  Biso   1.000  C
  C39      1.0000 0.18210  0.68030  0.93240  Biso   1.000  C
  O15      1.0000 0.89430  0.67900  0.92460  Biso   1.000  O
  O16      1.0000 0.85274  0.59385  0.87050  Biso   1.000  O
  O17      1.0000 0.09353  0.79386  0.87860  Biso   1.000  O
  O18      1.0000 0.13190  0.77430  0.76200  Biso   1.000  O
  O19      1.0000 0.97871  0.59238  0.64220  Biso   1.000  O
  O20      1.0000 0.16900  0.70920  0.88170  Biso   1.000  O
  O21      1.0000 0.20066  0.69286  0.00360  Biso   1.000  O
  C40      1.0000 0.25240  0.35980  0.12340  Biso   1.000  C
  C41      1.0000 0.28770  0.34500  0.17570  Biso   1.000  C
  C42      1.0000 0.32070  0.38100  0.24300  Biso   1.000  C
  H22      1.0000 0.31980  0.41300  0.25450  Biso   1.000  H
  C43      1.0000 0.35560  0.36890  0.29370  Biso   1.000  C
  C44      1.0000 0.35730  0.32140  0.27620  Biso   1.000  C
  H23      1.0000 0.38010  0.31280  0.30980  Biso   1.000  H
  C45      1.0000 0.32360  0.28670  0.20680  Biso   1.000  C
  C46      1.0000 0.29080  0.29780  0.15870  Biso   1.000  C
  H24      1.0000 0.26930  0.27380  0.11270  Biso   1.000  H
  C47      1.0000 0.32750  0.23510  0.18610  Biso   1.000  C
  C48      1.0000 0.42370  0.39790  0.40930  Biso   1.000  C
  H25      1.0000 0.44390  0.38680  0.36920  Biso   1.000  H
  H26      1.0000 0.40410  0.36920  0.45420  Biso   1.000  H
  C49      1.0000 0.46280  0.45200  0.45660  Biso   1.000  C
  H27      1.0000 0.48670  0.45720  0.28420  Biso   1.000  H
  C50      1.0000 0.52780  0.38890  0.19600  Biso   1.000  C
  H28      1.0000 0.49490  0.36460  0.22470  Biso   1.000  H
  C51      1.0000 0.54130  0.37640  0.11150  Biso   1.000  C
  C52      1.0000 0.50180  0.31970  0.06760  Biso   1.000  C
  O22      1.0000 0.21530  0.32100  0.07540  Biso   1.000  O
  O23      1.0000 0.25889  0.40615  0.12950  Biso   1.000  O
  O24      1.0000 0.29967  0.20614  0.12140  Biso   1.000  O
  O25      1.0000 0.35760  0.22570  0.23800  Biso   1.000  O
  O26      1.0000 0.38633  0.40762  0.35780  Biso   1.000  O
  O27      1.0000 0.45980  0.29080  0.11830  Biso   1.000  O
  O28      1.0000 0.50780  0.30714  0.99640  Biso   1.000  O
  C53      1.0000 0.10740  0.74760  0.12340  Biso   1.000  C
  C54      1.0000 0.05730  0.71230  0.17570  Biso   1.000  C
  C55      1.0000 0.06030  0.67930  0.24300  Biso   1.000  C
  H29      1.0000 0.09320  0.68020  0.25450  Biso   1.000  H
  C56      1.0000 0.01330  0.64440  0.29370  Biso   1.000  C
  C57      1.0000 0.96410  0.64270  0.27620  Biso   1.000  C
  H30      1.0000 0.93270  0.61990  0.30980  Biso   1.000  H
  C58      1.0000 0.96310  0.67640  0.20680  Biso   1.000  C
  C59      1.0000 0.00700  0.70920  0.15870  Biso   1.000  C
  H31      1.0000 0.00450  0.73070  0.11270  Biso   1.000  H
  C60      1.0000 0.90760  0.67250  0.18610  Biso   1.000  C
  C61      1.0000 0.97420  0.57630  0.40930  Biso   1.000  C
  H32      1.0000 0.94290  0.55610  0.36920  Biso   1.000  H
  H33      1.0000 0.96510  0.59590  0.45420  Biso   1.000  H
  C62      1.0000 0.98920  0.53720  0.45660  Biso   1.000  C
  H34      1.0000 0.97050  0.51330  0.28420  Biso   1.000  H
  C63      1.0000 0.86110  0.47220  0.19600  Biso   1.000  C
  H35      1.0000 0.86970  0.50510  0.22470  Biso   1.000  H
  C64      1.0000 0.83510  0.45870  0.11150  Biso   1.000  C
  C65      1.0000 0.81790  0.49820  0.06760  Biso   1.000  C
  O29      1.0000 0.10570  0.78470  0.07540  Biso   1.000  O
  O30      1.0000 0.14726  0.74111  0.12950  Biso   1.000  O
  O31      1.0000 0.90647  0.70033  0.12140  Biso   1.000  O
  O32      1.0000 0.86810  0.64240  0.23800  Biso   1.000  O
  O33      1.0000 0.02129  0.61367  0.35780  Biso   1.000  O
  O34      1.0000 0.83100  0.54020  0.11830  Biso   1.000  O
  O35      1.0000 0.79934  0.49220  0.99640  Biso   1.000  O
  C66      1.0000 0.64020  0.89260  0.12340  Biso   1.000  C
  C67      1.0000 0.65500  0.94270  0.17570  Biso   1.000  C
  C68      1.0000 0.61900  0.93970  0.24300  Biso   1.000  C
  H36      1.0000 0.58700  0.90680  0.25450  Biso   1.000  H
  C69      1.0000 0.63110  0.98670  0.29370  Biso   1.000  C
  C70      1.0000 0.67860  0.03590  0.27620  Biso   1.000  C
  H37      1.0000 0.68720  0.06730  0.30980  Biso   1.000  H
  C71      1.0000 0.71330  0.03690  0.20680  Biso   1.000  C
  C72      1.0000 0.70220  0.99300  0.15870  Biso   1.000  C
  H38      1.0000 0.72620  0.99550  0.11270  Biso   1.000  H
  C73      1.0000 0.76490  0.09240  0.18610  Biso   1.000  C
  C74      1.0000 0.60210  0.02580  0.40930  Biso   1.000  C
  H39      1.0000 0.61320  0.05710  0.36920  Biso   1.000  H
  H40      1.0000 0.63080  0.03490  0.45420  Biso   1.000  H
  C75      1.0000 0.54800  0.01080  0.45660  Biso   1.000  C
  H41      1.0000 0.54280  0.02950  0.28420  Biso   1.000  H
  C76      1.0000 0.61110  0.13890  0.19600  Biso   1.000  C
  H42      1.0000 0.63540  0.13030  0.22470  Biso   1.000  H
  C77      1.0000 0.62360  0.16490  0.11150  Biso   1.000  C
  C78      1.0000 0.68030  0.18210  0.06760  Biso   1.000  C
  O36      1.0000 0.67900  0.89430  0.07540  Biso   1.000  O
  O37      1.0000 0.59385  0.85274  0.12950  Biso   1.000  O
  O38      1.0000 0.79386  0.09353  0.12140  Biso   1.000  O
  O39      1.0000 0.77430  0.13190  0.23800  Biso   1.000  O
  O40      1.0000 0.59238  0.97871  0.35780  Biso   1.000  O
  O41      1.0000 0.70920  0.16900  0.11830  Biso   1.000  O
  O42      1.0000 0.69286  0.20066  0.99640  Biso   1.000  O
  C79      1.0000 0.64020  0.74760  0.12340  Biso   1.000  C
  C80      1.0000 0.65500  0.71230  0.17570  Biso   1.000  C
  C81      1.0000 0.61900  0.67930  0.24300  Biso   1.000  C
  H43      1.0000 0.58700  0.68020  0.25450  Biso   1.000  H
  C82      1.0000 0.63110  0.64440  0.29370  Biso   1.000  C
  C83      1.0000 0.67860  0.64270  0.27620  Biso   1.000  C
  H44      1.0000 0.68720  0.61990  0.30980  Biso   1.000  H
  C84      1.0000 0.71330  0.67640  0.20680  Biso   1.000  C
  C85      1.0000 0.70220  0.70920  0.15870  Biso   1.000  C
  H45      1.0000 0.72620  0.73070  0.11270  Biso   1.000  H
  C86      1.0000 0.76490  0.67250  0.18610  Biso   1.000  C
  C87      1.0000 0.60210  0.57630  0.40930  Biso   1.000  C
  H46      1.0000 0.61320  0.55610  0.36920  Biso   1.000  H
  H47      1.0000 0.63080  0.59590  0.45420  Biso   1.000  H
  C88      1.0000 0.54800  0.53720  0.45660  Biso   1.000  C
  H48      1.0000 0.54280  0.51330  0.28420  Biso   1.000  H
  C89      1.0000 0.61110  0.47220  0.19600  Biso   1.000  C
  H49      1.0000 0.63540  0.50510  0.22470  Biso   1.000  H
  C90      1.0000 0.62360  0.45870  0.11150  Biso   1.000  C
  C91      1.0000 0.68030  0.49820  0.06760  Biso   1.000  C
  O43      1.0000 0.67900  0.78470  0.07540  Biso   1.000  O
  O44      1.0000 0.59385  0.74111  0.12950  Biso   1.000  O
  O45      1.0000 0.79386  0.70033  0.12140  Biso   1.000  O
  O46      1.0000 0.77430  0.64240  0.23800  Biso   1.000  O
  O47      1.0000 0.59238  0.61367  0.35780  Biso   1.000  O
  O48      1.0000 0.70920  0.54020  0.11830  Biso   1.000  O
  O49      1.0000 0.69286  0.49220  0.99640  Biso   1.000  O
  C92      1.0000 0.25240  0.89260  0.12340  Biso   1.000  C
  C93      1.0000 0.28770  0.94270  0.17570  Biso   1.000  C
  C94      1.0000 0.32070  0.93970  0.24300  Biso   1.000  C
  H50      1.0000 0.31980  0.90680  0.25450  Biso   1.000  H
  C95      1.0000 0.35560  0.98670  0.29370  Biso   1.000  C
  C96      1.0000 0.35730  0.03590  0.27620  Biso   1.000  C
  H51      1.0000 0.38010  0.06730  0.30980  Biso   1.000  H
  C97      1.0000 0.32360  0.03690  0.20680  Biso   1.000  C
  C98      1.0000 0.29080  0.99300  0.15870  Biso   1.000  C
  H52      1.0000 0.26930  0.99550  0.11270  Biso   1.000  H
  C99      1.0000 0.32750  0.09240  0.18610  Biso   1.000  C
  C100     1.0000 0.42370  0.02580  0.40930  Biso   1.000  C
  H53      1.0000 0.44390  0.05710  0.36920  Biso   1.000  H
  H54      1.0000 0.40410  0.03490  0.45420  Biso   1.000  H
  C101     1.0000 0.46280  0.01080  0.45660  Biso   1.000  C
  H55      1.0000 0.48670  0.02950  0.28420  Biso   1.000  H
  C102     1.0000 0.52780  0.13890  0.19600  Biso   1.000  C
  H56      1.0000 0.49490  0.13030  0.22470  Biso   1.000  H
  C103     1.0000 0.54130  0.16490  0.11150  Biso   1.000  C
  C104     1.0000 0.50180  0.18210  0.06760  Biso   1.000  C
  O50      1.0000 0.21530  0.89430  0.07540  Biso   1.000  O
  O51      1.0000 0.25889  0.85274  0.12950  Biso   1.000  O
  O52      1.0000 0.29967  0.09353  0.12140  Biso   1.000  O
  O53      1.0000 0.35760  0.13190  0.23800  Biso   1.000  O
  O54      1.0000 0.38633  0.97871  0.35780  Biso   1.000  O
  O55      1.0000 0.45980  0.16900  0.11830  Biso   1.000  O
  O56      1.0000 0.50780  0.20066  0.99640  Biso   1.000  O
  C105     1.0000 0.10740  0.35980  0.12340  Biso   1.000  C
  C106     1.0000 0.05730  0.34500  0.17570  Biso   1.000  C
  C107     1.0000 0.06030  0.38100  0.24300  Biso   1.000  C
  H57      1.0000 0.09320  0.41300  0.25450  Biso   1.000  H
  C108     1.0000 0.01330  0.36890  0.29370  Biso   1.000  C
  C109     1.0000 0.96410  0.32140  0.27620  Biso   1.000  C
  H58      1.0000 0.93270  0.31280  0.30980  Biso   1.000  H
  C110     1.0000 0.96310  0.28670  0.20680  Biso   1.000  C
  C111     1.0000 0.00700  0.29780  0.15870  Biso   1.000  C
  H59      1.0000 0.00450  0.27380  0.11270  Biso   1.000  H
  C112     1.0000 0.90760  0.23510  0.18610  Biso   1.000  C
  C113     1.0000 0.97420  0.39790  0.40930  Biso   1.000  C
  H60      1.0000 0.94290  0.38680  0.36920  Biso   1.000  H
  H61      1.0000 0.96510  0.36920  0.45420  Biso   1.000  H
  C114     1.0000 0.98920  0.45200  0.45660  Biso   1.000  C
  H62      1.0000 0.97050  0.45720  0.28420  Biso   1.000  H
  C115     1.0000 0.86110  0.38890  0.19600  Biso   1.000  C
  H63      1.0000 0.86970  0.36460  0.22470  Biso   1.000  H
  C116     1.0000 0.83510  0.37640  0.11150  Biso   1.000  C
  C117     1.0000 0.81790  0.31970  0.06760  Biso   1.000  C
  O57      1.0000 0.10570  0.32100  0.07540  Biso   1.000  O
  O58      1.0000 0.14726  0.40615  0.12950  Biso   1.000  O
  O59      1.0000 0.90647  0.20614  0.12140  Biso   1.000  O
  O60      1.0000 0.86810  0.22570  0.23800  Biso   1.000  O
  O61      1.0000 0.02129  0.40762  0.35780  Biso   1.000  O
  O62      1.0000 0.83100  0.29080  0.11830  Biso   1.000  O
  O63      1.0000 0.79934  0.30714  0.99640  Biso   1.000  O
  C118     1.0000 0.74760  0.64020  0.87660  Biso   1.000  C
  C119     1.0000 0.71230  0.65500  0.82430  Biso   1.000  C
  C120     1.0000 0.67930  0.61900  0.75700  Biso   1.000  C
  H64      1.0000 0.68020  0.58700  0.74550  Biso   1.000  H
  C121     1.0000 0.64440  0.63110  0.70630  Biso   1.000  C
  C122     1.0000 0.64270  0.67860  0.72380  Biso   1.000  C
  H65      1.0000 0.61990  0.68720  0.69020  Biso   1.000  H
  C123     1.0000 0.67640  0.71330  0.79320  Biso   1.000  C
  C124     1.0000 0.70920  0.70220  0.84130  Biso   1.000  C
  H66      1.0000 0.73070  0.72620  0.88730  Biso   1.000  H
  C125     1.0000 0.67250  0.76490  0.81390  Biso   1.000  C
  C126     1.0000 0.57630  0.60210  0.59070  Biso   1.000  C
  H67      1.0000 0.55610  0.61320  0.63080  Biso   1.000  H
  H68      1.0000 0.59590  0.63080  0.54580  Biso   1.000  H
  C127     1.0000 0.53720  0.54800  0.54340  Biso   1.000  C
  H69      1.0000 0.51330  0.54280  0.71580  Biso   1.000  H
  C128     1.0000 0.47220  0.61110  0.80400  Biso   1.000  C
  H70      1.0000 0.50510  0.63540  0.77530  Biso   1.000  H
  C129     1.0000 0.45870  0.62360  0.88850  Biso   1.000  C
  C130     1.0000 0.49820  0.68030  0.93240  Biso   1.000  C
  O64      1.0000 0.78470  0.67900  0.92460  Biso   1.000  O
  O65      1.0000 0.74111  0.59385  0.87050  Biso   1.000  O
  O66      1.0000 0.70033  0.79386  0.87860  Biso   1.000  O
  O67      1.0000 0.64240  0.77430  0.76200  Biso   1.000  O
  O68      1.0000 0.61367  0.59238  0.64220  Biso   1.000  O
  O69      1.0000 0.54020  0.70920  0.88170  Biso   1.000  O
  O70      1.0000 0.49220  0.69286  0.00360  Biso   1.000  O
  C131     1.0000 0.89260  0.25240  0.87660  Biso   1.000  C
  C132     1.0000 0.94270  0.28770  0.82430  Biso   1.000  C
  C133     1.0000 0.93970  0.32070  0.75700  Biso   1.000  C
  H71      1.0000 0.90680  0.31980  0.74550  Biso   1.000  H
  C134     1.0000 0.98670  0.35560  0.70630  Biso   1.000  C
  C135     1.0000 0.03590  0.35730  0.72380  Biso   1.000  C
  H72      1.0000 0.06730  0.38010  0.69020  Biso   1.000  H
  C136     1.0000 0.03690  0.32360  0.79320  Biso   1.000  C
  C137     1.0000 0.99300  0.29080  0.84130  Biso   1.000  C
  H73      1.0000 0.99550  0.26930  0.88730  Biso   1.000  H
  C138     1.0000 0.09240  0.32750  0.81390  Biso   1.000  C
  C139     1.0000 0.02580  0.42370  0.59070  Biso   1.000  C
  H74      1.0000 0.05710  0.44390  0.63080  Biso   1.000  H
  H75      1.0000 0.03490  0.40410  0.54580  Biso   1.000  H
  C140     1.0000 0.01080  0.46280  0.54340  Biso   1.000  C
  H76      1.0000 0.02950  0.48670  0.71580  Biso   1.000  H
  C141     1.0000 0.13890  0.52780  0.80400  Biso   1.000  C
  H77      1.0000 0.13030  0.49490  0.77530  Biso   1.000  H
  C142     1.0000 0.16490  0.54130  0.88850  Biso   1.000  C
  C143     1.0000 0.18210  0.50180  0.93240  Biso   1.000  C
  O71      1.0000 0.89430  0.21530  0.92460  Biso   1.000  O
  O72      1.0000 0.85274  0.25889  0.87050  Biso   1.000  O
  O73      1.0000 0.09353  0.29967  0.87860  Biso   1.000  O
  O74      1.0000 0.13190  0.35760  0.76200  Biso   1.000  O
  O75      1.0000 0.97871  0.38633  0.64220  Biso   1.000  O
  O76      1.0000 0.16900  0.45980  0.88170  Biso   1.000  O
  O77      1.0000 0.20066  0.50780  0.00360  Biso   1.000  O
  C144     1.0000 0.35980  0.10740  0.87660  Biso   1.000  C
  C145     1.0000 0.34500  0.05730  0.82430  Biso   1.000  C
  C146     1.0000 0.38100  0.06030  0.75700  Biso   1.000  C
  H78      1.0000 0.41300  0.09320  0.74550  Biso   1.000  H
  C147     1.0000 0.36890  0.01330  0.70630  Biso   1.000  C
  C148     1.0000 0.32140  0.96410  0.72380  Biso   1.000  C
  H79      1.0000 0.31280  0.93270  0.69020  Biso   1.000  H
  C149     1.0000 0.28670  0.96310  0.79320  Biso   1.000  C
  C150     1.0000 0.29780  0.00700  0.84130  Biso   1.000  C
  H80      1.0000 0.27380  0.00450  0.88730  Biso   1.000  H
  C151     1.0000 0.23510  0.90760  0.81390  Biso   1.000  C
  C152     1.0000 0.39790  0.97420  0.59070  Biso   1.000  C
  H81      1.0000 0.38680  0.94290  0.63080  Biso   1.000  H
  H82      1.0000 0.36920  0.96510  0.54580  Biso   1.000  H
  C153     1.0000 0.45200  0.98920  0.54340  Biso   1.000  C
  H83      1.0000 0.45720  0.97050  0.71580  Biso   1.000  H
  C154     1.0000 0.38890  0.86110  0.80400  Biso   1.000  C
  H84      1.0000 0.36460  0.86970  0.77530  Biso   1.000  H
  C155     1.0000 0.37640  0.83510  0.88850  Biso   1.000  C
  C156     1.0000 0.31970  0.81790  0.93240  Biso   1.000  C
  O78      1.0000 0.32100  0.10570  0.92460  Biso   1.000  O
  O79      1.0000 0.40615  0.14726  0.87050  Biso   1.000  O
  O80      1.0000 0.20614  0.90647  0.87860  Biso   1.000  O
  O81      1.0000 0.22570  0.86810  0.76200  Biso   1.000  O
  O82      1.0000 0.40762  0.02129  0.64220  Biso   1.000  O
  O83      1.0000 0.29080  0.83100  0.88170  Biso   1.000  O
  O84      1.0000 0.30714  0.79934  0.00360  Biso   1.000  O
  Mn1      1.0000 0.31173  0.15586  0.02518  Biso   1.000  Mn
  Mn2      1.0000 0.45173  0.22586  0.93261  Biso   1.000  Mn
  Mn3      1.0000 0.42118  0.21059  0.18607  Biso   1.000  Mn
  O85      1.0000 0.39823  0.19911  0.04790  Biso   1.000  O
  Mn4      1.0000 0.84414  0.15587  0.02518  Biso   1.000  Mn
  Mn5      1.0000 0.77414  0.22587  0.93261  Biso   1.000  Mn
  Mn6      1.0000 0.78941  0.21059  0.18607  Biso   1.000  Mn
  O86      1.0000 0.80089  0.19912  0.04790  Biso   1.000  O
  Mn7      1.0000 0.84413  0.68827  0.02518  Biso   1.000  Mn
  Mn8      1.0000 0.77413  0.54827  0.93261  Biso   1.000  Mn
  Mn9      1.0000 0.78941  0.57882  0.18607  Biso   1.000  Mn
  O87      1.0000 0.80088  0.60177  0.04790  Biso   1.000  O
  Mn10     1.0000 0.15586  0.31173  0.97482  Biso   1.000  Mn
  Mn11     1.0000 0.22586  0.45173  0.06739  Biso   1.000  Mn
  Mn12     1.0000 0.21059  0.42118  0.81393  Biso   1.000  Mn
  O88      1.0000 0.19911  0.39823  0.95210  Biso   1.000  O
  Mn13     1.0000 0.15587  0.84414  0.97482  Biso   1.000  Mn
  Mn14     1.0000 0.22587  0.77414  0.06739  Biso   1.000  Mn
  Mn15     1.0000 0.21059  0.78941  0.81393  Biso   1.000  Mn
  O89      1.0000 0.19912  0.80089  0.95210  Biso   1.000  O
  Mn16     1.0000 0.68827  0.84413  0.97482  Biso   1.000  Mn
  Mn17     1.0000 0.54827  0.77413  0.06739  Biso   1.000  Mn
  Mn18     1.0000 0.57882  0.78941  0.81393  Biso   1.000  Mn
  O90      1.0000 0.60177  0.80088  0.95210  Biso   1.000  O
  C157     1.0000 0.48931  0.51069  0.58710  Biso   1.000  C
  C158     1.0000 0.47885  0.52115  0.68350  Biso   1.000  C
  C159     1.0000 0.43697  0.56303  0.76460  Biso   1.000  C
  C160     1.0000 0.41116  0.58884  0.93140  Biso   1.000  C
  H85      1.0000 0.40270  0.59730  0.98850  Biso   1.000  H
  O91      1.0000 0.44945  0.55055  0.67760  Biso   1.000  O
  C161     1.0000 0.48931  0.97862  0.58710  Biso   1.000  C
  C162     1.0000 0.47885  0.95770  0.68350  Biso   1.000  C
  C163     1.0000 0.43697  0.87394  0.76460  Biso   1.000  C
  C164     1.0000 0.41116  0.82232  0.93140  Biso   1.000  C
  H86      1.0000 0.40270  0.80540  0.98850  Biso   1.000  H
  O92      1.0000 0.44945  0.89890  0.67760  Biso   1.000  O
  C165     1.0000 0.02138  0.51069  0.58710  Biso   1.000  C
  C166     1.0000 0.04230  0.52115  0.68350  Biso   1.000  C
  C167     1.0000 0.12606  0.56303  0.76460  Biso   1.000  C
  C168     1.0000 0.17768  0.58884  0.93140  Biso   1.000  C
  H87      1.0000 0.19460  0.59730  0.98850  Biso   1.000  H
  O93      1.0000 0.10110  0.55055  0.67760  Biso   1.000  O
  C169     1.0000 0.51069  0.48931  0.41290  Biso   1.000  C
  C170     1.0000 0.52115  0.47885  0.31650  Biso   1.000  C
  C171     1.0000 0.56303  0.43697  0.23540  Biso   1.000  C
  C172     1.0000 0.58884  0.41116  0.06860  Biso   1.000  C
  H88      1.0000 0.59730  0.40270  0.01150  Biso   1.000  H
  O94      1.0000 0.55055  0.44945  0.32240  Biso   1.000  O
  C173     1.0000 0.97862  0.48931  0.41290  Biso   1.000  C
  C174     1.0000 0.95770  0.47885  0.31650  Biso   1.000  C
  C175     1.0000 0.87394  0.43697  0.23540  Biso   1.000  C
  C176     1.0000 0.82232  0.41116  0.06860  Biso   1.000  C
  H89      1.0000 0.80540  0.40270  0.01150  Biso   1.000  H
  O95      1.0000 0.89890  0.44945  0.32240  Biso   1.000  O
  C177     1.0000 0.51069  0.02138  0.41290  Biso   1.000  C
  C178     1.0000 0.52115  0.04230  0.31650  Biso   1.000  C
  C179     1.0000 0.56303  0.12606  0.23540  Biso   1.000  C
  C180     1.0000 0.58884  0.17768  0.06860  Biso   1.000  C
  H90      1.0000 0.59730  0.19460  0.01150  Biso   1.000  H
  O96      1.0000 0.55055  0.10110  0.32240  Biso   1.000  O
