data_image0
_cell_length_a       16.0685
_cell_length_b       14.6258
_cell_length_c       9.3457
_cell_angle_alpha    90
_cell_angle_beta     117.798
_cell_angle_gamma    90

_symmetry_space_group_name_H-M    "P 1"
_symmetry_int_tables_number       1

loop_
  _symmetry_equiv_pos_as_xyz
  'x, y, z'

loop_
  _atom_site_label
  _atom_site_occupancy
  _atom_site_fract_x
  _atom_site_fract_y
  _atom_site_fract_z
  _atom_site_thermal_displace_type
  _atom_site_B_iso_or_equiv
  _atom_site_type_symbol
  O1       1.0000 0.60729  0.94682  0.98070  Biso   1.000  O
  O2       1.0000 0.60016  0.03281  0.17100  Biso   1.000  O
  C1       1.0000 0.63410  0.96890  0.12420  Biso   1.000  C
  C2       1.0000 0.71560  0.91560  0.25190  Biso   1.000  C
  C3       1.0000 0.74170  0.83150  0.21550  Biso   1.000  C
  H1       1.0000 0.71180  0.80990  0.10980  Biso   1.000  H
  C4       1.0000 0.81200  0.77960  0.33560  Biso   1.000  C
  H2       1.0000 0.82810  0.72300  0.31010  Biso   1.000  H
  C5       1.0000 0.85860  0.81190  0.49440  Biso   1.000  C
  C6       1.0000 0.83270  0.89670  0.52890  Biso   1.000  C
  H3       1.0000 0.86390  0.91960  0.63370  Biso   1.000  H
  C7       1.0000 0.76150  0.94740  0.40970  Biso   1.000  C
  H4       1.0000 0.74420  0.00330  0.43560  Biso   1.000  H
  C8       1.0000 0.93410  0.75870  0.62710  Biso   1.000  C
  C9       1.0000 0.93590  0.66370  0.62640  Biso   1.000  C
  H5       1.0000 0.89090  0.63260  0.53690  Biso   1.000  H
  O3       1.0000 0.10729  0.44682  0.98070  Biso   1.000  O
  O4       1.0000 0.10016  0.53281  0.17100  Biso   1.000  O
  C10      1.0000 0.13410  0.46890  0.12420  Biso   1.000  C
  C11      1.0000 0.21560  0.41560  0.25190  Biso   1.000  C
  C12      1.0000 0.24170  0.33150  0.21550  Biso   1.000  C
  H6       1.0000 0.21180  0.30990  0.10980  Biso   1.000  H
  C13      1.0000 0.31200  0.27960  0.33560  Biso   1.000  C
  H7       1.0000 0.32810  0.22300  0.31010  Biso   1.000  H
  C14      1.0000 0.35860  0.31190  0.49440  Biso   1.000  C
  C15      1.0000 0.33270  0.39670  0.52890  Biso   1.000  C
  H8       1.0000 0.36390  0.41960  0.63370  Biso   1.000  H
  C16      1.0000 0.26150  0.44740  0.40970  Biso   1.000  C
  H9       1.0000 0.24420  0.50330  0.43560  Biso   1.000  H
  C17      1.0000 0.43410  0.25870  0.62710  Biso   1.000  C
  C18      1.0000 0.43590  0.16370  0.62640  Biso   1.000  C
  H10      1.0000 0.39090  0.13260  0.53690  Biso   1.000  H
  O5       1.0000 0.39271  0.94682  0.51930  Biso   1.000  O
  O6       1.0000 0.39984  0.03281  0.32900  Biso   1.000  O
  C19      1.0000 0.36590  0.96890  0.37580  Biso   1.000  C
  C20      1.0000 0.28440  0.91560  0.24810  Biso   1.000  C
  C21      1.0000 0.25830  0.83150  0.28450  Biso   1.000  C
  H11      1.0000 0.28820  0.80990  0.39020  Biso   1.000  H
  C22      1.0000 0.18800  0.77960  0.16440  Biso   1.000  C
  H12      1.0000 0.17190  0.72300  0.18990  Biso   1.000  H
  C23      1.0000 0.14140  0.81190  0.00560  Biso   1.000  C
  C24      1.0000 0.16730  0.89670  0.97110  Biso   1.000  C
  H13      1.0000 0.13610  0.91960  0.86630  Biso   1.000  H
  C25      1.0000 0.23850  0.94740  0.09030  Biso   1.000  C
  H14      1.0000 0.25580  0.00330  0.06440  Biso   1.000  H
  C26      1.0000 0.06590  0.75870  0.87290  Biso   1.000  C
  C27      1.0000 0.06410  0.66370  0.87360  Biso   1.000  C
  H15      1.0000 0.10910  0.63260  0.96310  Biso   1.000  H
  O7       1.0000 0.89271  0.44682  0.51930  Biso   1.000  O
  O8       1.0000 0.89984  0.53281  0.32900  Biso   1.000  O
  C28      1.0000 0.86590  0.46890  0.37580  Biso   1.000  C
  C29      1.0000 0.78440  0.41560  0.24810  Biso   1.000  C
  C30      1.0000 0.75830  0.33150  0.28450  Biso   1.000  C
  H16      1.0000 0.78820  0.30990  0.39020  Biso   1.000  H
  C31      1.0000 0.68800  0.27960  0.16440  Biso   1.000  C
  H17      1.0000 0.67190  0.22300  0.18990  Biso   1.000  H
  C32      1.0000 0.64140  0.31190  0.00560  Biso   1.000  C
  C33      1.0000 0.66730  0.39670  0.97110  Biso   1.000  C
  H18      1.0000 0.63610  0.41960  0.86630  Biso   1.000  H
  C34      1.0000 0.73850  0.44740  0.09030  Biso   1.000  C
  H19      1.0000 0.75580  0.50330  0.06440  Biso   1.000  H
  C35      1.0000 0.56590  0.25870  0.87290  Biso   1.000  C
  C36      1.0000 0.56410  0.16370  0.87360  Biso   1.000  C
  H20      1.0000 0.60910  0.13260  0.96310  Biso   1.000  H
  O9       1.0000 0.39271  0.05318  0.01930  Biso   1.000  O
  O10      1.0000 0.39984  0.96719  0.82900  Biso   1.000  O
  C37      1.0000 0.36590  0.03110  0.87580  Biso   1.000  C
  C38      1.0000 0.28440  0.08440  0.74810  Biso   1.000  C
  C39      1.0000 0.25830  0.16850  0.78450  Biso   1.000  C
  H21      1.0000 0.28820  0.19010  0.89020  Biso   1.000  H
  C40      1.0000 0.18800  0.22040  0.66440  Biso   1.000  C
  H22      1.0000 0.17190  0.27700  0.68990  Biso   1.000  H
  C41      1.0000 0.14140  0.18810  0.50560  Biso   1.000  C
  C42      1.0000 0.16730  0.10330  0.47110  Biso   1.000  C
  H23      1.0000 0.13610  0.08040  0.36630  Biso   1.000  H
  C43      1.0000 0.23850  0.05260  0.59030  Biso   1.000  C
  H24      1.0000 0.25580  0.99670  0.56440  Biso   1.000  H
  C44      1.0000 0.06590  0.24130  0.37290  Biso   1.000  C
  C45      1.0000 0.06410  0.33630  0.37360  Biso   1.000  C
  H25      1.0000 0.10910  0.36740  0.46310  Biso   1.000  H
  O11      1.0000 0.89271  0.55318  0.01930  Biso   1.000  O
  O12      1.0000 0.89984  0.46719  0.82900  Biso   1.000  O
  C46      1.0000 0.86590  0.53110  0.87580  Biso   1.000  C
  C47      1.0000 0.78440  0.58440  0.74810  Biso   1.000  C
  C48      1.0000 0.75830  0.66850  0.78450  Biso   1.000  C
  H26      1.0000 0.78820  0.69010  0.89020  Biso   1.000  H
  C49      1.0000 0.68800  0.72040  0.66440  Biso   1.000  C
  H27      1.0000 0.67190  0.77700  0.68990  Biso   1.000  H
  C50      1.0000 0.64140  0.68810  0.50560  Biso   1.000  C
  C51      1.0000 0.66730  0.60330  0.47110  Biso   1.000  C
  H28      1.0000 0.63610  0.58040  0.36630  Biso   1.000  H
  C52      1.0000 0.73850  0.55260  0.59030  Biso   1.000  C
  H29      1.0000 0.75580  0.49670  0.56440  Biso   1.000  H
  C53      1.0000 0.56590  0.74130  0.37290  Biso   1.000  C
  C54      1.0000 0.56410  0.83630  0.37360  Biso   1.000  C
  H30      1.0000 0.60910  0.86740  0.46310  Biso   1.000  H
  O13      1.0000 0.60729  0.05318  0.48070  Biso   1.000  O
  O14      1.0000 0.60016  0.96719  0.67100  Biso   1.000  O
  C55      1.0000 0.63410  0.03110  0.62420  Biso   1.000  C
  C56      1.0000 0.71560  0.08440  0.75190  Biso   1.000  C
  C57      1.0000 0.74170  0.16850  0.71550  Biso   1.000  C
  H31      1.0000 0.71180  0.19010  0.60980  Biso   1.000  H
  C58      1.0000 0.81200  0.22040  0.83560  Biso   1.000  C
  H32      1.0000 0.82810  0.27700  0.81010  Biso   1.000  H
  C59      1.0000 0.85860  0.18810  0.99440  Biso   1.000  C
  C60      1.0000 0.83270  0.10330  0.02890  Biso   1.000  C
  H33      1.0000 0.86390  0.08040  0.13370  Biso   1.000  H
  C61      1.0000 0.76150  0.05260  0.90970  Biso   1.000  C
  H34      1.0000 0.74420  0.99670  0.93560  Biso   1.000  H
  C62      1.0000 0.93410  0.24130  0.12710  Biso   1.000  C
  C63      1.0000 0.93590  0.33630  0.12640  Biso   1.000  C
  H35      1.0000 0.89090  0.36740  0.03690  Biso   1.000  H
  O15      1.0000 0.10729  0.55318  0.48070  Biso   1.000  O
  O16      1.0000 0.10016  0.46719  0.67100  Biso   1.000  O
  C64      1.0000 0.13410  0.53110  0.62420  Biso   1.000  C
  C65      1.0000 0.21560  0.58440  0.75190  Biso   1.000  C
  C66      1.0000 0.24170  0.66850  0.71550  Biso   1.000  C
  H36      1.0000 0.21180  0.69010  0.60980  Biso   1.000  H
  C67      1.0000 0.31200  0.72040  0.83560  Biso   1.000  C
  H37      1.0000 0.32810  0.77700  0.81010  Biso   1.000  H
  C68      1.0000 0.35860  0.68810  0.99440  Biso   1.000  C
  C69      1.0000 0.33270  0.60330  0.02890  Biso   1.000  C
  H38      1.0000 0.36390  0.58040  0.13370  Biso   1.000  H
  C70      1.0000 0.26150  0.55260  0.90970  Biso   1.000  C
  H39      1.0000 0.24420  0.49670  0.93560  Biso   1.000  H
  C71      1.0000 0.43410  0.74130  0.12710  Biso   1.000  C
  C72      1.0000 0.43590  0.83630  0.12640  Biso   1.000  C
  H40      1.0000 0.39090  0.86740  0.03690  Biso   1.000  H
  Mg1      1.0000 0.50000  0.95728  0.75000  Biso   1.000  Mg
  Mg2      1.0000 0.00000  0.45728  0.75000  Biso   1.000  Mg
  Mg3      1.0000 0.50000  0.04272  0.25000  Biso   1.000  Mg
  Mg4      1.0000 0.00000  0.54272  0.25000  Biso   1.000  Mg
  N1       1.0000 0.00000  0.80620  0.75000  Biso   1.000  N
  N2       1.0000 0.00000  0.61580  0.75000  Biso   1.000  N
  N3       1.0000 0.50000  0.30620  0.75000  Biso   1.000  N
  N4       1.0000 0.50000  0.11580  0.75000  Biso   1.000  N
  N5       1.0000 0.00000  0.19380  0.25000  Biso   1.000  N
  N6       1.0000 0.00000  0.38420  0.25000  Biso   1.000  N
  N7       1.0000 0.50000  0.69380  0.25000  Biso   1.000  N
  N8       1.0000 0.50000  0.88420  0.25000  Biso   1.000  N
