data_GOXGAD_clean
_audit_creation_date              2015-10-16
_audit_creation_method            'Materials Studio'
_symmetry_space_group_name_H-M    'P1'
_symmetry_Int_Tables_number       1
_symmetry_cell_setting            triclinic
loop_
_symmetry_equiv_pos_as_xyz
  x,y,z
_cell_length_a                    7.9896
_cell_length_b                    10.0831
_cell_length_c                    15.0367
_cell_angle_alpha                 79.4624
_cell_angle_beta                  74.5933
_cell_angle_gamma                 66.6600
loop_
_atom_site_label
_atom_site_type_symbol
_atom_site_fract_x
_atom_site_fract_y
_atom_site_fract_z
_atom_site_U_iso_or_equiv
_atom_site_adp_type
_atom_site_occupancy
Cd1    Cd    0.33012   0.21901   0.53237   0.01267  Uiso   1.00
Cd2    Cd    0.08150   0.78099   0.46763   0.01267  Uiso   1.00
Cd3    Cd    0.51744   0.89817   0.25371   0.01267  Uiso   1.00
Cd4    Cd    0.66932   0.10183   0.74629   0.01267  Uiso   1.00
H1     H     0.56650   0.25320   0.00400   0.01267  Uiso   1.00
H2     H     0.80010   0.51530   0.74630   0.01267  Uiso   1.00
H3     H     0.98010   0.08540   0.19080   0.01267  Uiso   1.00
H4     H     0.20710   0.34080   0.99120   0.01267  Uiso   1.00
H5     H     0.14310   0.59910   0.75850   0.01267  Uiso   1.00
H6     H     0.82370   0.74680   0.99600   0.01267  Uiso   1.00
H7     H     0.06170   0.48470   0.25370   0.01267  Uiso   1.00
H8     H     0.30920   0.71280   0.91380   0.01267  Uiso   1.00
H9     H     0.93580   0.28720   0.08620   0.01267  Uiso   1.00
H10    H     0.50070   0.40090   0.24150   0.01267  Uiso   1.00
H11    H     0.53910   0.65920   0.00880   0.01267  Uiso   1.00
H12    H     0.25630   0.91460   0.80920   0.01267  Uiso   1.00
C1     C     0.07640   0.28300   0.30520   0.01267  Uiso   1.00
C2     C     0.51700   0.41480   0.17740   0.01267  Uiso   1.00
C3     C     0.82090   0.71980   0.61360   0.01267  Uiso   1.00
C4     C     0.96850   0.69470   0.87010   0.01267  Uiso   1.00
C5     C     0.99830   0.16530   0.20310   0.01267  Uiso   1.00
C6     C     0.97150   0.28560   0.14060   0.01267  Uiso   1.00
C7     C     0.05410   0.16090   0.28750   0.01267  Uiso   1.00
C8     C     0.20100   0.45620   0.86660   0.01267  Uiso   1.00
C9     C     0.52380   0.66260   0.18200   0.01267  Uiso   1.00
C10    C     0.15430   0.28020   0.38640   0.01267  Uiso   1.00
C11    C     0.56470   0.59320   0.84060   0.01267  Uiso   1.00
C12    C     0.36670   0.83470   0.79690   0.01267  Uiso   1.00
C13    C     0.00640   0.54460   0.01200   0.01267  Uiso   1.00
C14    C     0.52690   0.16410   0.17550   0.01267  Uiso   1.00
C15    C     0.14950   0.43060   0.96120   0.01267  Uiso   1.00
C16    C     0.39770   0.71440   0.85940   0.01267  Uiso   1.00
C17    C     0.50250   0.83910   0.71250   0.01267  Uiso   1.00
C18    C     0.99850   0.40680   0.15940   0.01267  Uiso   1.00
C19    C     0.36840   0.33740   0.81800   0.01267  Uiso   1.00
C20    C     0.04740   0.40340   0.24100   0.01267  Uiso   1.00
C21    C     0.56300   0.45540   0.98800   0.01267  Uiso   1.00
C22    C     0.66460   0.71700   0.69480   0.01267  Uiso   1.00
C23    C     0.54130   0.56940   0.03880   0.01267  Uiso   1.00
C24    C     0.10920   0.58520   0.82260   0.01267  Uiso   1.00
C25    C     0.07880   0.03120   0.34820   0.01267  Uiso   1.00
C26    C     0.91950   0.67270   0.96350   0.01267  Uiso   1.00
C27    C     0.69180   0.59660   0.75900   0.01267  Uiso   1.00
C28    C     0.45820   0.96880   0.65180   0.01267  Uiso   1.00
C29    C     0.86650   0.83590   0.82450   0.01267  Uiso   1.00
C30    C     0.52380   0.54380   0.13340   0.01267  Uiso   1.00
C31    C     0.55570   0.32730   0.03650   0.01267  Uiso   1.00
C32    C     0.53330   0.30530   0.12990   0.01267  Uiso   1.00
O1     O     0.42240   0.21470   0.85870   0.01267  Uiso   1.00
O2     O     0.92440   0.87190   0.73770   0.01267  Uiso   1.00
O3     O     0.95620   0.53880   0.10380   0.01267  Uiso   1.00
O4     O     0.59880   0.46120   0.89620   0.01267  Uiso   1.00
O5     O     0.79600   0.83360   0.56060   0.01267  Uiso   1.00
O6     O     0.47930   0.08160   0.66300   0.01267  Uiso   1.00
O7     O     0.55470   0.63380   0.26540   0.01267  Uiso   1.00
O8     O     0.22390   0.91840   0.33700   0.01267  Uiso   1.00
O9     O     0.94130   0.02340   0.41420   0.01267  Uiso   1.00
O10    O     0.50160   0.08130   0.13110   0.01267  Uiso   1.00
O11    O     0.53400   0.12810   0.26230   0.01267  Uiso   1.00
O12    O     0.45390   0.36620   0.73460   0.01267  Uiso   1.00
O13    O     0.49580   0.78530   0.14130   0.01267  Uiso   1.00
O14    O     0.17010   0.38950   0.40290   0.01267  Uiso   1.00
O15    O     0.37890   0.97660   0.58580   0.01267  Uiso   1.00
O16    O     0.96250   0.61050   0.59710   0.01267  Uiso   1.00
O17    O     0.19020   0.16640   0.43940   0.01267  Uiso   1.00
O18    O     0.71400   0.91870   0.86890   0.01267  Uiso   1.00
