data_image0
_cell_length_a       8.8246
_cell_length_b       11.7336
_cell_length_c       8.3258
_cell_angle_alpha    90
_cell_angle_beta     90
_cell_angle_gamma    90

_symmetry_space_group_name_H-M    "P 1"
_symmetry_int_tables_number       1

loop_
  _symmetry_equiv_pos_as_xyz
  'x, y, z'

loop_
  _atom_site_label
  _atom_site_occupancy
  _atom_site_fract_x
  _atom_site_fract_y
  _atom_site_fract_z
  _atom_site_thermal_displace_type
  _atom_site_B_iso_or_equiv
  _atom_site_type_symbol
  O1       1.0000 0.58295  0.32212  0.58916  Biso   1.000  O
  O2       1.0000 0.23851  0.09409  0.38752  Biso   1.000  O
  O3       1.0000 0.41520  0.31665  0.39495  Biso   1.000  O
  C1       1.0000 0.46995  0.28163  0.52333  Biso   1.000  C
  H1       1.0000 0.42430  0.21720  0.56750  Biso   1.000  H
  O4       1.0000 0.91705  0.67788  0.58916  Biso   1.000  O
  O5       1.0000 0.26149  0.90591  0.38752  Biso   1.000  O
  O6       1.0000 0.08480  0.68335  0.39495  Biso   1.000  O
  C2       1.0000 0.03005  0.71837  0.52333  Biso   1.000  C
  H2       1.0000 0.07570  0.78280  0.56750  Biso   1.000  H
  O7       1.0000 0.91705  0.82212  0.91084  Biso   1.000  O
  O8       1.0000 0.26149  0.59409  0.11248  Biso   1.000  O
  O9       1.0000 0.08480  0.81665  0.10505  Biso   1.000  O
  C3       1.0000 0.03005  0.78163  0.97667  Biso   1.000  C
  H3       1.0000 0.07570  0.71720  0.93250  Biso   1.000  H
  O10      1.0000 0.58295  0.17788  0.91084  Biso   1.000  O
  O11      1.0000 0.23851  0.40591  0.11248  Biso   1.000  O
  O12      1.0000 0.41520  0.18335  0.10505  Biso   1.000  O
  C4       1.0000 0.46995  0.21837  0.97667  Biso   1.000  C
  H4       1.0000 0.42430  0.28280  0.93250  Biso   1.000  H
  O13      1.0000 0.41705  0.67788  0.41084  Biso   1.000  O
  O14      1.0000 0.76149  0.90591  0.61248  Biso   1.000  O
  O15      1.0000 0.58480  0.68335  0.60505  Biso   1.000  O
  C5       1.0000 0.53005  0.71837  0.47667  Biso   1.000  C
  H5       1.0000 0.57570  0.78280  0.43250  Biso   1.000  H
  O16      1.0000 0.08295  0.32212  0.41084  Biso   1.000  O
  O17      1.0000 0.73851  0.09409  0.61248  Biso   1.000  O
  O18      1.0000 0.91520  0.31665  0.60505  Biso   1.000  O
  C6       1.0000 0.96995  0.28163  0.47667  Biso   1.000  C
  H6       1.0000 0.92430  0.21720  0.43250  Biso   1.000  H
  O19      1.0000 0.08295  0.17788  0.08916  Biso   1.000  O
  O20      1.0000 0.73851  0.40591  0.88752  Biso   1.000  O
  O21      1.0000 0.91520  0.18335  0.89495  Biso   1.000  O
  C7       1.0000 0.96995  0.21837  0.02333  Biso   1.000  C
  H7       1.0000 0.92430  0.28280  0.06750  Biso   1.000  H
  O22      1.0000 0.41705  0.82212  0.08916  Biso   1.000  O
  O23      1.0000 0.76149  0.59409  0.88752  Biso   1.000  O
  O24      1.0000 0.58480  0.81665  0.89495  Biso   1.000  O
  C8       1.0000 0.53005  0.78163  0.02333  Biso   1.000  C
  H8       1.0000 0.57570  0.71720  0.06750  Biso   1.000  H
  Fe1      1.0000 0.23846  0.25000  0.25000  Biso   1.000  Fe
  Fe2      1.0000 0.26154  0.75000  0.25000  Biso   1.000  Fe
  Fe3      1.0000 0.76154  0.75000  0.75000  Biso   1.000  Fe
  Fe4      1.0000 0.73846  0.25000  0.75000  Biso   1.000  Fe
  C9       1.0000 0.25000  0.00000  0.31910  Biso   1.000  C
  H9       1.0000 0.25000  0.00000  0.20740  Biso   1.000  H
  C10      1.0000 0.25000  0.50000  0.18090  Biso   1.000  C
  H10      1.0000 0.25000  0.50000  0.29260  Biso   1.000  H
  C11      1.0000 0.75000  0.00000  0.68090  Biso   1.000  C
  H11      1.0000 0.75000  0.00000  0.79260  Biso   1.000  H
  C12      1.0000 0.75000  0.50000  0.81910  Biso   1.000  C
  H12      1.0000 0.75000  0.50000  0.70740  Biso   1.000  H
