data_GOYXEZ_clean
_audit_creation_date              2015-10-16
_audit_creation_method            'Materials Studio'
_symmetry_space_group_name_H-M    'P1'
_symmetry_Int_Tables_number       1
_symmetry_cell_setting            triclinic
loop_
_symmetry_equiv_pos_as_xyz
  x,y,z
_cell_length_a                    9.5250
_cell_length_b                    12.0404
_cell_length_c                    16.8650
_cell_angle_alpha                 96.5422
_cell_angle_beta                  90.0000
_cell_angle_gamma                 113.3000
loop_
_atom_site_label
_atom_site_type_symbol
_atom_site_fract_x
_atom_site_fract_y
_atom_site_fract_z
_atom_site_U_iso_or_equiv
_atom_site_adp_type
_atom_site_occupancy
Eu1    Eu    0.29584   0.99100   0.56575   0.01267  Uiso   1.00
Eu2    Eu    0.70416   0.00900   0.43425   0.01267  Uiso   1.00
Eu3    Eu    0.69516   0.99100   0.06575   0.01267  Uiso   1.00
Eu4    Eu    0.30484   0.00900   0.93425   0.01267  Uiso   1.00
Ag1    Ag    0.72087   0.68268   0.91641   0.01267  Uiso   1.00
Ag2    Ag    0.27913   0.31732   0.08359   0.01267  Uiso   1.00
Ag3    Ag    0.03819   0.31732   0.58359   0.01267  Uiso   1.00
Ag4    Ag    0.96181   0.68268   0.41641   0.01267  Uiso   1.00
H1     H     0.50710   0.37160   0.61730   0.01267  Uiso   1.00
H2     H     0.43060   0.42140   0.36990   0.01267  Uiso   1.00
H3     H     0.49290   0.62840   0.38270   0.01267  Uiso   1.00
H4     H     0.46650   0.70700   0.81950   0.01267  Uiso   1.00
H5     H     0.53350   0.29300   0.18050   0.01267  Uiso   1.00
H6     H     0.00920   0.57860   0.13010   0.01267  Uiso   1.00
H7     H     0.24050   0.70700   0.31950   0.01267  Uiso   1.00
H8     H     0.86450   0.37160   0.11730   0.01267  Uiso   1.00
H9     H     0.94810   0.69840   0.05150   0.01267  Uiso   1.00
H10    H     0.86550   0.89820   0.66750   0.01267  Uiso   1.00
H11    H     0.24970   0.30160   0.44850   0.01267  Uiso   1.00
H12    H     0.61830   0.19120   0.77930   0.01267  Uiso   1.00
H13    H     0.03270   0.89820   0.16750   0.01267  Uiso   1.00
H14    H     0.75950   0.29300   0.68050   0.01267  Uiso   1.00
H15    H     0.38170   0.80880   0.22070   0.01267  Uiso   1.00
H16    H     0.57290   0.19120   0.27930   0.01267  Uiso   1.00
H17    H     0.89190   0.80120   0.77280   0.01267  Uiso   1.00
H18    H     0.56940   0.57860   0.63010   0.01267  Uiso   1.00
H19    H     0.82560   0.41620   0.45720   0.01267  Uiso   1.00
H20    H     0.13550   0.62840   0.88270   0.01267  Uiso   1.00
H21    H     0.05190   0.30160   0.94850   0.01267  Uiso   1.00
H22    H     0.59060   0.41620   0.95720   0.01267  Uiso   1.00
H23    H     0.13450   0.10180   0.33250   0.01267  Uiso   1.00
H24    H     0.75030   0.69840   0.55150   0.01267  Uiso   1.00
H25    H     0.10810   0.19880   0.22720   0.01267  Uiso   1.00
H26    H     0.17440   0.58380   0.54280   0.01267  Uiso   1.00
H27    H     0.96730   0.10180   0.83250   0.01267  Uiso   1.00
H28    H     0.90930   0.80120   0.27280   0.01267  Uiso   1.00
H29    H     0.99080   0.42140   0.86990   0.01267  Uiso   1.00
H30    H     0.09070   0.19880   0.72720   0.01267  Uiso   1.00
H31    H     0.42710   0.80880   0.72070   0.01267  Uiso   1.00
H32    H     0.40940   0.58380   0.04280   0.01267  Uiso   1.00
C1     C     0.77810   0.07060   0.25550   0.01267  Uiso   1.00
C2     C     0.64400   0.87080   0.68490   0.01267  Uiso   1.00
C3     C     0.72900   0.61560   0.54780   0.01267  Uiso   1.00
C4     C     0.52360   0.80940   0.73020   0.01267  Uiso   1.00
C5     C     0.96640   0.93060   0.48830   0.01267  Uiso   1.00
C6     C     0.32080   0.94260   0.12150   0.01267  Uiso   1.00
C7     C     0.28580   0.80940   0.23020   0.01267  Uiso   1.00
C8     C     0.32340   0.55080   0.00780   0.01267  Uiso   1.00
C9     C     0.20280   0.19720   0.23830   0.01267  Uiso   1.00
C10    C     0.27100   0.38440   0.45220   0.01267  Uiso   1.00
C11    C     0.96420   0.93060   0.98830   0.01267  Uiso   1.00
C12    C     0.45130   0.25140   0.21030   0.01267  Uiso   1.00
C13    C     0.47640   0.19060   0.26980   0.01267  Uiso   1.00
C14    C     0.70920   0.37280   0.03640   0.01267  Uiso   1.00
C15    C     0.03580   0.06940   0.01170   0.01267  Uiso   1.00
C16    C     0.22190   0.92940   0.74450   0.01267  Uiso   1.00
C17    C     0.29080   0.62720   0.96360   0.01267  Uiso   1.00
C18    C     0.61930   0.54380   0.59430   0.01267  Uiso   1.00
C19    C     0.21660   0.13660   0.30080   0.01267  Uiso   1.00
C20    C     0.08000   0.86340   0.19920   0.01267  Uiso   1.00
C21    C     0.71420   0.19060   0.76980   0.01267  Uiso   1.00
C22    C     0.78340   0.86340   0.69920   0.01267  Uiso   1.00
C23    C     0.80010   0.25140   0.71030   0.01267  Uiso   1.00
C24    C     0.07550   0.45620   0.90570   0.01267  Uiso   1.00
C25    C     0.19990   0.74860   0.28970   0.01267  Uiso   1.00
C26    C     0.37820   0.05740   0.37850   0.01267  Uiso   1.00
C27    C     0.00560   0.80280   0.26170   0.01267  Uiso   1.00
C28    C     0.03360   0.06940   0.51170   0.01267  Uiso   1.00
C29    C     0.37260   0.76120   0.47540   0.01267  Uiso   1.00
C30    C     0.67920   0.05740   0.87850   0.01267  Uiso   1.00
C31    C     0.29250   0.07060   0.75550   0.01267  Uiso   1.00
C32    C     0.61140   0.23880   0.02460   0.01267  Uiso   1.00
C33    C     0.67660   0.44920   0.99220   0.01267  Uiso   1.00
C34    C     0.54870   0.74860   0.78970   0.01267  Uiso   1.00
C35    C     0.33640   0.62720   0.46360   0.01267  Uiso   1.00
C36    C     0.35600   0.12920   0.31510   0.01267  Uiso   1.00
C37    C     0.77260   0.44920   0.49220   0.01267  Uiso   1.00
C38    C     0.22680   0.87080   0.18490   0.01267  Uiso   1.00
C39    C     0.99440   0.19720   0.73830   0.01267  Uiso   1.00
C40    C     0.92450   0.54380   0.09430   0.01267  Uiso   1.00
C41    C     0.41620   0.57860   0.41230   0.01267  Uiso   1.00
C42    C     0.38860   0.76120   0.97540   0.01267  Uiso   1.00
C43    C     0.22740   0.55080   0.50780   0.01267  Uiso   1.00
C44    C     0.88660   0.61560   0.04780   0.01267  Uiso   1.00
C45    C     0.16240   0.57860   0.91230   0.01267  Uiso   1.00
C46    C     0.38070   0.45620   0.40570   0.01267  Uiso   1.00
C47    C     0.58380   0.42140   0.58770   0.01267  Uiso   1.00
C48    C     0.11340   0.38440   0.95220   0.01267  Uiso   1.00
C49    C     0.70750   0.92940   0.24450   0.01267  Uiso   1.00
C50    C     0.62180   0.94260   0.62150   0.01267  Uiso   1.00
C51    C     0.92000   0.13660   0.80080   0.01267  Uiso   1.00
C52    C     0.83760   0.42140   0.08770   0.01267  Uiso   1.00
C53    C     0.77320   0.12920   0.81510   0.01267  Uiso   1.00
C54    C     0.62740   0.23880   0.52460   0.01267  Uiso   1.00
C55    C     0.66360   0.37280   0.53640   0.01267  Uiso   1.00
C56    C     0.79720   0.80280   0.76170   0.01267  Uiso   1.00
N1     N     0.68240   0.74660   0.80670   0.01267  Uiso   1.00
N2     N     0.23840   0.43160   0.00340   0.01267  Uiso   1.00
N3     N     0.06420   0.74660   0.30670   0.01267  Uiso   1.00
N4     N     0.31760   0.25340   0.19330   0.01267  Uiso   1.00
N5     N     0.93580   0.25340   0.69330   0.01267  Uiso   1.00
N6     N     0.80680   0.56840   0.49660   0.01267  Uiso   1.00
N7     N     0.76160   0.56840   0.99660   0.01267  Uiso   1.00
N8     N     0.19320   0.43160   0.50340   0.01267  Uiso   1.00
O1     O     0.66940   0.87960   0.30660   0.01267  Uiso   1.00
O2     O     0.83998   0.87296   0.01780   0.01267  Uiso   1.00
O3     O     0.72650   0.98020   0.57360   0.01267  Uiso   1.00
O4     O     0.03355   0.88570   0.94010   0.01267  Uiso   1.00
O5     O     0.54270   0.04180   0.87800   0.01267  Uiso   1.00
O6     O     0.27262   0.79344   0.50550   0.01267  Uiso   1.00
O7     O     0.21020   0.87960   0.80660   0.01267  Uiso   1.00
O8     O     0.85215   0.88570   0.44010   0.01267  Uiso   1.00
O9     O     0.50090   0.95820   0.62200   0.01267  Uiso   1.00
O10    O     0.81890   0.12320   0.32490   0.01267  Uiso   1.00
O11    O     0.96702   0.12704   0.48220   0.01267  Uiso   1.00
O12    O     0.16002   0.12704   0.98220   0.01267  Uiso   1.00
O13    O     0.33150   0.82900   0.95270   0.01267  Uiso   1.00
O14    O     0.18110   0.87680   0.67510   0.01267  Uiso   1.00
O15    O     0.52082   0.79344   0.00550   0.01267  Uiso   1.00
O16    O     0.69570   0.87680   0.17510   0.01267  Uiso   1.00
O17    O     0.45730   0.95820   0.12200   0.01267  Uiso   1.00
O18    O     0.03298   0.87296   0.51780   0.01267  Uiso   1.00
O19    O     0.74630   0.01980   0.92640   0.01267  Uiso   1.00
O20    O     0.50250   0.17100   0.54730   0.01267  Uiso   1.00
O21    O     0.72738   0.20656   0.49450   0.01267  Uiso   1.00
O22    O     0.49750   0.82900   0.45270   0.01267  Uiso   1.00
O23    O     0.14785   0.11430   0.55990   0.01267  Uiso   1.00
O24    O     0.96645   0.11430   0.05990   0.01267  Uiso   1.00
O25    O     0.66850   0.17100   0.04730   0.01267  Uiso   1.00
O26    O     0.33060   0.12040   0.69340   0.01267  Uiso   1.00
O27    O     0.78980   0.12040   0.19340   0.01267  Uiso   1.00
O28    O     0.25370   0.98020   0.07360   0.01267  Uiso   1.00
O29    O     0.49910   0.04180   0.37800   0.01267  Uiso   1.00
O30    O     0.47918   0.20656   0.99450   0.01267  Uiso   1.00
O31    O     0.30430   0.12320   0.82490   0.01267  Uiso   1.00
O32    O     0.27350   0.01980   0.42640   0.01267  Uiso   1.00
