data_GOYXUP_clean
_audit_creation_date              2015-10-16
_audit_creation_method            'Materials Studio'
_symmetry_space_group_name_H-M    'P1'
_symmetry_Int_Tables_number       1
_symmetry_cell_setting            triclinic
loop_
_symmetry_equiv_pos_as_xyz
  x,y,z
_cell_length_a                    9.4900
_cell_length_b                    12.0717
_cell_length_c                    16.7830
_cell_angle_alpha                 96.0088
_cell_angle_beta                  90.0000
_cell_angle_gamma                 113.1460
loop_
_atom_site_label
_atom_site_type_symbol
_atom_site_fract_x
_atom_site_fract_y
_atom_site_fract_z
_atom_site_U_iso_or_equiv
_atom_site_adp_type
_atom_site_occupancy
Dy1    Dy    0.30385   0.00935   0.43407   0.01267  Uiso   1.00
Dy2    Dy    0.29450   0.99065   0.06593   0.01267  Uiso   1.00
Dy3    Dy    0.70551   0.00936   0.93407   0.01267  Uiso   1.00
Dy4    Dy    0.69616   0.99066   0.56593   0.01267  Uiso   1.00
Ag1    Ag    0.71697   0.68462   0.42047   0.01267  Uiso   1.00
Ag2    Ag    0.28303   0.31538   0.57953   0.01267  Uiso   1.00
Ag3    Ag    0.03235   0.31538   0.07953   0.01267  Uiso   1.00
Ag4    Ag    0.96765   0.68462   0.92047   0.01267  Uiso   1.00
H1     H     0.42630   0.81200   0.22150   0.01267  Uiso   1.00
H2     H     0.61430   0.18800   0.27850   0.01267  Uiso   1.00
H3     H     0.49730   0.36660   0.11500   0.01267  Uiso   1.00
H4     H     0.43450   0.42660   0.86880   0.01267  Uiso   1.00
H5     H     0.16910   0.58280   0.03970   0.01267  Uiso   1.00
H6     H     0.38570   0.81200   0.72150   0.01267  Uiso   1.00
H7     H     0.09250   0.19960   0.22780   0.01267  Uiso   1.00
H8     H     0.83090   0.41720   0.96030   0.01267  Uiso   1.00
H9     H     0.96170   0.09600   0.33110   0.01267  Uiso   1.00
H10    H     0.05870   0.30520   0.44390   0.01267  Uiso   1.00
H11    H     0.86570   0.90400   0.16890   0.01267  Uiso   1.00
H12    H     0.41370   0.58280   0.53970   0.01267  Uiso   1.00
H13    H     0.50270   0.63340   0.88500   0.01267  Uiso   1.00
H14    H     0.13070   0.63340   0.38500   0.01267  Uiso   1.00
H15    H     0.75350   0.69480   0.05610   0.01267  Uiso   1.00
H16    H     0.94130   0.69480   0.55610   0.01267  Uiso   1.00
H17    H     0.75710   0.29480   0.18130   0.01267  Uiso   1.00
H18    H     0.53770   0.29480   0.68130   0.01267  Uiso   1.00
H19    H     0.89290   0.80040   0.27220   0.01267  Uiso   1.00
H20    H     0.99210   0.42660   0.36880   0.01267  Uiso   1.00
H21    H     0.86930   0.36660   0.61500   0.01267  Uiso   1.00
H22    H     0.24290   0.70520   0.81870   0.01267  Uiso   1.00
H23    H     0.13430   0.09600   0.83110   0.01267  Uiso   1.00
H24    H     0.00790   0.57340   0.63120   0.01267  Uiso   1.00
H25    H     0.58630   0.41720   0.46030   0.01267  Uiso   1.00
H26    H     0.90750   0.80040   0.77220   0.01267  Uiso   1.00
H27    H     0.10710   0.19960   0.72780   0.01267  Uiso   1.00
H28    H     0.57370   0.18800   0.77850   0.01267  Uiso   1.00
H29    H     0.03830   0.90400   0.66890   0.01267  Uiso   1.00
H30    H     0.46230   0.70520   0.31870   0.01267  Uiso   1.00
H31    H     0.56550   0.57340   0.13120   0.01267  Uiso   1.00
H32    H     0.24650   0.30520   0.94390   0.01267  Uiso   1.00
C1     C     0.73060   0.61200   0.05090   0.01267  Uiso   1.00
C2     C     0.64300   0.87120   0.18480   0.01267  Uiso   1.00
C3     C     0.03570   0.06980   0.51050   0.01267  Uiso   1.00
C4     C     0.29120   0.63160   0.46370   0.01267  Uiso   1.00
C5     C     0.45410   0.25120   0.71010   0.01267  Uiso   1.00
C6     C     0.61090   0.23600   0.52340   0.01267  Uiso   1.00
C7     C     0.37980   0.05480   0.87830   0.01267  Uiso   1.00
C8     C     0.54590   0.74880   0.28990   0.01267  Uiso   1.00
C9     C     0.00530   0.80360   0.76220   0.01267  Uiso   1.00
C10    C     0.99470   0.19640   0.23780   0.01267  Uiso   1.00
C11    C     0.79830   0.80360   0.26220   0.01267  Uiso   1.00
C12    C     0.08340   0.86620   0.69990   0.01267  Uiso   1.00
C13    C     0.52240   0.81080   0.23050   0.01267  Uiso   1.00
C14    C     0.96430   0.93020   0.48950   0.01267  Uiso   1.00
C15    C     0.77490   0.44840   0.99440   0.01267  Uiso   1.00
C16    C     0.77180   0.12880   0.31520   0.01267  Uiso   1.00
C17    C     0.22210   0.92960   0.24570   0.01267  Uiso   1.00
C18    C     0.32650   0.55160   0.50560   0.01267  Uiso   1.00
C19    C     0.38370   0.46060   0.90450   0.01267  Uiso   1.00
C20    C     0.28840   0.81080   0.73050   0.01267  Uiso   1.00
C21    C     0.22820   0.87120   0.68480   0.01267  Uiso   1.00
C22    C     0.16080   0.58320   0.41290   0.01267  Uiso   1.00
C23    C     0.62510   0.23600   0.02340   0.01267  Uiso   1.00
C24    C     0.34040   0.63160   0.96370   0.01267  Uiso   1.00
C25    C     0.35700   0.12880   0.81520   0.01267  Uiso   1.00
C26    C     0.70750   0.92960   0.74570   0.01267  Uiso   1.00
C27    C     0.71160   0.18920   0.26950   0.01267  Uiso   1.00
C28    C     0.83920   0.41680   0.58710   0.01267  Uiso   1.00
C29    C     0.62020   0.94520   0.12170   0.01267  Uiso   1.00
C30    C     0.38910   0.76400   0.47660   0.01267  Uiso   1.00
C31    C     0.32500   0.94520   0.62170   0.01267  Uiso   1.00
C32    C     0.61630   0.53940   0.09550   0.01267  Uiso   1.00
C33    C     0.88140   0.61200   0.55090   0.01267  Uiso   1.00
C34    C     0.22510   0.55160   0.00560   0.01267  Uiso   1.00
C35    C     0.21720   0.13380   0.80010   0.01267  Uiso   1.00
C36    C     0.29250   0.07040   0.25430   0.01267  Uiso   1.00
C37    C     0.57760   0.41680   0.08710   0.01267  Uiso   1.00
C38    C     0.67500   0.05480   0.37830   0.01267  Uiso   1.00
C39    C     0.79710   0.25120   0.21010   0.01267  Uiso   1.00
C40    C     0.65960   0.36840   0.03630   0.01267  Uiso   1.00
C41    C     0.42240   0.58320   0.91290   0.01267  Uiso   1.00
C42    C     0.67350   0.44840   0.49440   0.01267  Uiso   1.00
C43    C     0.37490   0.76400   0.97660   0.01267  Uiso   1.00
C44    C     0.26940   0.38800   0.94910   0.01267  Uiso   1.00
C45    C     0.91660   0.13380   0.30010   0.01267  Uiso   1.00
C46    C     0.07690   0.46060   0.40450   0.01267  Uiso   1.00
C47    C     0.20290   0.74880   0.78990   0.01267  Uiso   1.00
C48    C     0.78280   0.86620   0.19990   0.01267  Uiso   1.00
C49    C     0.47760   0.18920   0.76950   0.01267  Uiso   1.00
C50    C     0.92310   0.53940   0.59550   0.01267  Uiso   1.00
C51    C     0.11860   0.38800   0.44910   0.01267  Uiso   1.00
C52    C     0.20170   0.19640   0.73780   0.01267  Uiso   1.00
C53    C     0.77790   0.07040   0.75430   0.01267  Uiso   1.00
C54    C     0.03410   0.06980   0.01050   0.01267  Uiso   1.00
C55    C     0.96590   0.93020   0.98950   0.01267  Uiso   1.00
C56    C     0.70880   0.36840   0.53630   0.01267  Uiso   1.00
N1     N     0.31870   0.25240   0.69180   0.01267  Uiso   1.00
N2     N     0.06630   0.74760   0.80820   0.01267  Uiso   1.00
N3     N     0.80970   0.56780   0.00060   0.01267  Uiso   1.00
N4     N     0.93370   0.25240   0.19180   0.01267  Uiso   1.00
N5     N     0.19030   0.43220   0.99940   0.01267  Uiso   1.00
N6     N     0.68130   0.74760   0.30820   0.01267  Uiso   1.00
N7     N     0.75810   0.56780   0.50060   0.01267  Uiso   1.00
N8     N     0.24190   0.43220   0.49940   0.01267  Uiso   1.00
O1     O     0.03390   0.87420   0.02070   0.01267  Uiso   1.00
O2     O     0.20990   0.88100   0.30860   0.01267  Uiso   1.00
O3     O     0.46310   0.96240   0.62260   0.01267  Uiso   1.00
O4     O     0.96510   0.11500   0.55750   0.01267  Uiso   1.00
O5     O     0.27530   0.79740   0.00830   0.01267  Uiso   1.00
O6     O     0.74130   0.01400   0.42740   0.01267  Uiso   1.00
O7     O     0.67110   0.88100   0.80860   0.01267  Uiso   1.00
O8     O     0.03490   0.88500   0.44250   0.01267  Uiso   1.00
O9     O     0.30480   0.12300   0.32440   0.01267  Uiso   1.00
O10    O     0.47790   0.20260   0.49170   0.01267  Uiso   1.00
O11    O     0.66970   0.16680   0.54490   0.01267  Uiso   1.00
O12    O     0.72730   0.98600   0.07260   0.01267  Uiso   1.00
O13    O     0.50290   0.83320   0.95510   0.01267  Uiso   1.00
O14    O     0.72470   0.20260   0.99170   0.01267  Uiso   1.00
O15    O     0.27270   0.01400   0.92740   0.01267  Uiso   1.00
O16    O     0.52210   0.79740   0.50830   0.01267  Uiso   1.00
O17    O     0.69520   0.87700   0.67560   0.01267  Uiso   1.00
O18    O     0.14990   0.11500   0.05750   0.01267  Uiso   1.00
O19    O     0.15970   0.12580   0.47930   0.01267  Uiso   1.00
O20    O     0.18180   0.87700   0.17560   0.01267  Uiso   1.00
O21    O     0.50070   0.03760   0.87740   0.01267  Uiso   1.00
O22    O     0.53690   0.03760   0.37740   0.01267  Uiso   1.00
O23    O     0.96610   0.12580   0.97930   0.01267  Uiso   1.00
O24    O     0.85010   0.88500   0.94250   0.01267  Uiso   1.00
O25    O     0.81820   0.12300   0.82440   0.01267  Uiso   1.00
O26    O     0.25870   0.98600   0.57260   0.01267  Uiso   1.00
O27    O     0.33030   0.83320   0.45510   0.01267  Uiso   1.00
O28    O     0.79010   0.11900   0.69140   0.01267  Uiso   1.00
O29    O     0.49710   0.16680   0.04490   0.01267  Uiso   1.00
O30    O     0.84030   0.87420   0.52070   0.01267  Uiso   1.00
O31    O     0.32890   0.11900   0.19140   0.01267  Uiso   1.00
O32    O     0.49930   0.96240   0.12260   0.01267  Uiso   1.00
