data_GOZNAM_clean
_audit_creation_date              2015-10-16
_audit_creation_method            'Materials Studio'
_symmetry_space_group_name_H-M    'P1'
_symmetry_Int_Tables_number       1
_symmetry_cell_setting            triclinic
loop_
_symmetry_equiv_pos_as_xyz
  x,y,z
_cell_length_a                    12.6227
_cell_length_b                    13.8253
_cell_length_c                    32.6990
_cell_angle_alpha                 85.5877
_cell_angle_beta                  80.2979
_cell_angle_gamma                 62.8381
loop_
_atom_site_label
_atom_site_type_symbol
_atom_site_fract_x
_atom_site_fract_y
_atom_site_fract_z
_atom_site_U_iso_or_equiv
_atom_site_adp_type
_atom_site_occupancy
Mn1    Mn    0.78803   0.99986   0.20831   0.01267  Uiso   1.00
Mn2    Mn    0.78789   0.00014   0.70831   0.01267  Uiso   1.00
Mn3    Mn    0.21211   0.99986   0.29169   0.01267  Uiso   1.00
Mn4    Mn    0.00000   0.00000   0.00000   0.01267  Uiso   1.00
Mn5    Mn    0.21197   0.00014   0.79169   0.01267  Uiso   1.00
Mn6    Mn    0.00000   0.00000   0.50000   0.01267  Uiso   1.00
H1     H     0.75470   0.24960   0.80560   0.01267  Uiso   1.00
H2     H     0.57950   0.29620   0.97720   0.01267  Uiso   1.00
H3     H     0.66220   0.56580   0.70340   0.01267  Uiso   1.00
H4     H     0.52220   0.41440   0.22130   0.01267  Uiso   1.00
H5     H     0.93660   0.58560   0.72130   0.01267  Uiso   1.00
H6     H     0.19800   0.58180   0.51600   0.01267  Uiso   1.00
H7     H     0.08390   0.55340   0.30590   0.01267  Uiso   1.00
H8     H     0.37130   0.58520   0.28940   0.01267  Uiso   1.00
H9     H     0.82430   0.24480   0.48600   0.01267  Uiso   1.00
H10    H     0.68270   0.25160   0.22540   0.01267  Uiso   1.00
H11    H     0.12490   0.12720   0.52850   0.01267  Uiso   1.00
H12    H     0.47110   0.90220   0.81250   0.01267  Uiso   1.00
H13    H     0.89300   0.54120   0.48730   0.01267  Uiso   1.00
H14    H     0.06570   0.25160   0.27460   0.01267  Uiso   1.00
H15    H     0.52890   0.09780   0.18750   0.01267  Uiso   1.00
H16    H     0.80200   0.41820   0.48400   0.01267  Uiso   1.00
H17    H     0.37330   0.09780   0.31250   0.01267  Uiso   1.00
H18    H     0.24530   0.75040   0.19440   0.01267  Uiso   1.00
H19    H     0.43420   0.45880   0.98730   0.01267  Uiso   1.00
H20    H     0.87570   0.70380   0.47720   0.01267  Uiso   1.00
H21    H     0.87510   0.87280   0.47150   0.01267  Uiso   1.00
H22    H     0.06910   0.75520   0.98600   0.01267  Uiso   1.00
H23    H     0.93090   0.24480   0.01400   0.01267  Uiso   1.00
H24    H     0.91610   0.44660   0.69410   0.01267  Uiso   1.00
H25    H     0.97350   0.09700   0.70140   0.01267  Uiso   1.00
H26    H     0.17570   0.75520   0.51400   0.01267  Uiso   1.00
H27    H     0.63730   0.44660   0.80590   0.01267  Uiso   1.00
H28    H     0.31730   0.74840   0.77460   0.01267  Uiso   1.00
H29    H     0.36270   0.55340   0.19410   0.01267  Uiso   1.00
H30    H     0.77200   0.56580   0.79660   0.01267  Uiso   1.00
H31    H     0.77980   0.41820   0.01600   0.01267  Uiso   1.00
H32    H     0.87980   0.74680   0.20750   0.01267  Uiso   1.00
H33    H     0.00430   0.75040   0.30560   0.01267  Uiso   1.00
H34    H     0.62870   0.41480   0.71060   0.01267  Uiso   1.00
H35    H     0.39170   0.25280   0.31770   0.01267  Uiso   1.00
H36    H     0.04350   0.58520   0.21060   0.01267  Uiso   1.00
H37    H     0.60830   0.74720   0.68230   0.01267  Uiso   1.00
H38    H     0.42050   0.70380   0.02280   0.01267  Uiso   1.00
H39    H     0.12020   0.25320   0.79250   0.01267  Uiso   1.00
H40    H     0.74790   0.12720   0.97150   0.01267  Uiso   1.00
H41    H     0.47780   0.58560   0.77870   0.01267  Uiso   1.00
H42    H     0.12430   0.29620   0.52280   0.01267  Uiso   1.00
H43    H     0.62670   0.90220   0.68750   0.01267  Uiso   1.00
H44    H     0.37340   0.74680   0.29250   0.01267  Uiso   1.00
H45    H     0.56580   0.54120   0.01270   0.01267  Uiso   1.00
H46    H     0.06340   0.41440   0.27870   0.01267  Uiso   1.00
H47    H     0.22020   0.58180   0.98400   0.01267  Uiso   1.00
H48    H     0.10700   0.45880   0.51270   0.01267  Uiso   1.00
H49    H     0.02650   0.90300   0.29860   0.01267  Uiso   1.00
H50    H     0.64450   0.74720   0.81770   0.01267  Uiso   1.00
H51    H     0.33780   0.43420   0.29660   0.01267  Uiso   1.00
H52    H     0.62660   0.25320   0.70750   0.01267  Uiso   1.00
H53    H     0.25210   0.87280   0.02850   0.01267  Uiso   1.00
H54    H     0.35550   0.25280   0.18230   0.01267  Uiso   1.00
H55    H     0.95650   0.41480   0.78940   0.01267  Uiso   1.00
H56    H     0.93430   0.74840   0.72540   0.01267  Uiso   1.00
H57    H     0.99570   0.24960   0.69440   0.01267  Uiso   1.00
H58    H     0.92950   0.09700   0.79860   0.01267  Uiso   1.00
H59    H     0.22800   0.43420   0.20340   0.01267  Uiso   1.00
H60    H     0.07050   0.90300   0.20140   0.01267  Uiso   1.00
W1     W     0.87972   0.86562   0.86784   0.01267  Uiso   1.00
W2     W     0.74534   0.13438   0.36784   0.01267  Uiso   1.00
W3     W     0.25466   0.86562   0.63216   0.01267  Uiso   1.00
W4     W     0.12028   0.13438   0.13216   0.01267  Uiso   1.00
C1     C     0.23420   0.35000   0.29780   0.01267  Uiso   1.00
C2     C     0.88520   0.25600   0.49400   0.01267  Uiso   1.00
C3     C     0.05280   0.64840   0.20650   0.01267  Uiso   1.00
C4     C     0.38390   0.74640   0.78400   0.01267  Uiso   1.00
C5     C     0.34330   0.62080   0.00210   0.01267  Uiso   1.00
C6     C     0.31050   0.16340   0.30600   0.01267  Uiso   1.00
C7     C     0.23220   0.63880   0.99190   0.01267  Uiso   1.00
C8     C     0.21810   0.95860   0.12528   0.01267  Uiso   1.00
C9     C     0.93150   0.91340   0.92050   0.01267  Uiso   1.00
C10    C     0.61610   0.25360   0.21600   0.01267  Uiso   1.00
C11    C     0.38680   0.79940   0.57790   0.01267  Uiso   1.00
C12    C     0.47870   0.64940   0.78530   0.01267  Uiso   1.00
C13    C     0.81390   0.35860   0.69960   0.01267  Uiso   1.00
C14    C     0.17290   0.74600   0.19810   0.01267  Uiso   1.00
C15    C     0.10680   0.27360   0.16280   0.01267  Uiso   1.00
C16    C     0.58420   0.65000   0.79780   0.01267  Uiso   1.00
C17    C     0.22670   0.92200   0.69560   0.01267  Uiso   1.00
C18    C     0.70030   0.25340   0.70710   0.01267  Uiso   1.00
C19    C     0.12900   0.63880   0.50810   0.01267  Uiso   1.00
C20    C     0.11480   0.74400   0.50600   0.01267  Uiso   1.00
C21    C     0.38040   0.72640   0.66280   0.01267  Uiso   1.00
C22    C     0.82750   0.35860   0.80040   0.01267  Uiso   1.00
C23    C     0.08110   0.74600   0.30190   0.01267  Uiso   1.00
C24    C     0.17250   0.64140   0.19960   0.01267  Uiso   1.00
C25    C     0.67560   0.74480   0.69120   0.01267  Uiso   1.00
C26    C     0.82710   0.25400   0.80190   0.01267  Uiso   1.00
C27    C     0.52610   0.16340   0.19400   0.01267  Uiso   1.00
C28    C     0.93260   0.16300   0.79794   0.01267  Uiso   1.00
C29    C     0.06030   0.28880   0.51547   0.01267  Uiso   1.00
C30    C     0.70120   0.35160   0.70650   0.01267  Uiso   1.00
C31    C     0.68950   0.83660   0.69400   0.01267  Uiso   1.00
C32    C     0.76580   0.65000   0.70220   0.01267  Uiso   1.00
C33    C     0.90440   0.16300   0.70206   0.01267  Uiso   1.00
C34    C     0.03590   0.62080   0.49790   0.01267  Uiso   1.00
C35    C     0.81380   0.79940   0.92210   0.01267  Uiso   1.00
C36    C     0.06850   0.08660   0.07950   0.01267  Uiso   1.00
C37    C     0.06740   0.83700   0.20206   0.01267  Uiso   1.00
C38    C     0.42040   0.25520   0.19120   0.01267  Uiso   1.00
C39    C     0.32440   0.25520   0.30880   0.01267  Uiso   1.00
C40    C     0.12810   0.35060   0.28530   0.01267  Uiso   1.00
C41    C     0.39650   0.91240   0.63540   0.01267  Uiso   1.00
C42    C     0.77330   0.07800   0.30440   0.01267  Uiso   1.00
C43    C     0.85880   0.25600   0.00600   0.01267  Uiso   1.00
C44    C     0.82330   0.95860   0.37472   0.01267  Uiso   1.00
C45    C     0.70730   0.45500   0.80230   0.01267  Uiso   1.00
C46    C     0.34910   0.71120   0.01547   0.01267  Uiso   1.00
C47    C     0.89320   0.72640   0.83720   0.01267  Uiso   1.00
C48    C     0.84490   0.08660   0.42050   0.01267  Uiso   1.00
C49    C     0.09560   0.83700   0.29794   0.01267  Uiso   1.00
C50    C     0.29270   0.54500   0.19770   0.01267  Uiso   1.00
C51    C     0.93840   0.81460   0.48200   0.01267  Uiso   1.00
C52    C     0.75300   0.18540   0.98200   0.01267  Uiso   1.00
C53    C     0.15510   0.91340   0.57950   0.01267  Uiso   1.00
C54    C     0.92570   0.10260   0.34040   0.01267  Uiso   1.00
C55    C     0.96410   0.37920   0.50210   0.01267  Uiso   1.00
C56    C     0.65670   0.37920   0.99790   0.01267  Uiso   1.00
C57    C     0.74070   0.55660   0.70140   0.01267  Uiso   1.00
C58    C     0.02830   0.89740   0.84040   0.01267  Uiso   1.00
C59    C     0.97170   0.10260   0.15960   0.01267  Uiso   1.00
C60    C     0.85130   0.92200   0.80440   0.01267  Uiso   1.00
C61    C     0.29970   0.74660   0.29290   0.01267  Uiso   1.00
C62    C     0.70270   0.55660   0.79860   0.01267  Uiso   1.00
C63    C     0.76780   0.36120   0.00810   0.01267  Uiso   1.00
C64    C     0.24700   0.81460   0.01800   0.01267  Uiso   1.00
C65    C     0.29730   0.44340   0.20140   0.01267  Uiso   1.00
C66    C     0.55260   0.48640   0.00328   0.01267  Uiso   1.00
C67    C     0.61320   0.20060   0.42210   0.01267  Uiso   1.00
C68    C     0.29880   0.64840   0.29350   0.01267  Uiso   1.00
C69    C     0.41580   0.35000   0.20220   0.01267  Uiso   1.00
C70    C     0.03900   0.51360   0.50328   0.01267  Uiso   1.00
C71    C     0.14120   0.74400   0.99400   0.01267  Uiso   1.00
C72    C     0.18620   0.20060   0.07790   0.01267  Uiso   1.00
C73    C     0.13030   0.25360   0.28400   0.01267  Uiso   1.00
C74    C     0.83770   0.45500   0.69770   0.01267  Uiso   1.00
C75    C     0.30890   0.08760   0.13540   0.01267  Uiso   1.00
C76    C     0.47390   0.83660   0.80600   0.01267  Uiso   1.00
C77    C     0.52130   0.35060   0.21470   0.01267  Uiso   1.00
C78    C     0.95990   0.27540   0.11870   0.01267  Uiso   1.00
C79    C     0.87190   0.64940   0.71470   0.01267  Uiso   1.00
C80    C     0.44740   0.51360   0.99672   0.01267  Uiso   1.00
C81    C     0.04630   0.25340   0.79290   0.01267  Uiso   1.00
C82    C     0.86970   0.74640   0.71600   0.01267  Uiso   1.00
C83    C     0.06160   0.18540   0.51800   0.01267  Uiso   1.00
C84    C     0.57960   0.74480   0.80880   0.01267  Uiso   1.00
C85    C     0.04010   0.72460   0.88130   0.01267  Uiso   1.00
C86    C     0.23530   0.72460   0.61870   0.01267  Uiso   1.00
C87    C     0.96100   0.48640   0.49672   0.01267  Uiso   1.00
C88    C     0.94720   0.35160   0.79350   0.01267  Uiso   1.00
C89    C     0.91890   0.25400   0.69810   0.01267  Uiso   1.00
C90    C     0.65090   0.28880   0.98453   0.01267  Uiso   1.00
C91    C     0.61960   0.27360   0.33720   0.01267  Uiso   1.00
C92    C     0.07430   0.89740   0.65960   0.01267  Uiso   1.00
C93    C     0.69110   0.91240   0.86460   0.01267  Uiso   1.00
C94    C     0.14870   0.07800   0.19560   0.01267  Uiso   1.00
C95    C     0.18610   0.64140   0.30040   0.01267  Uiso   1.00
C96    C     0.16230   0.54500   0.30230   0.01267  Uiso   1.00
C97    C     0.17670   0.04140   0.62528   0.01267  Uiso   1.00
C98    C     0.95370   0.74660   0.20710   0.01267  Uiso   1.00
C99    C     0.25930   0.44340   0.29860   0.01267  Uiso   1.00
C100   C     0.78190   0.04140   0.87472   0.01267  Uiso   1.00
C101   C     0.76470   0.27540   0.38130   0.01267  Uiso   1.00
C102   C     0.60350   0.08760   0.36460   0.01267  Uiso   1.00
C103   C     0.93970   0.71120   0.48453   0.01267  Uiso   1.00
C104   C     0.87100   0.36120   0.49190   0.01267  Uiso   1.00
N1     N     0.89910   0.65300   0.82048   0.01267  Uiso   1.00
N2     N     0.21744   0.15812   0.29491   0.01267  Uiso   1.00
N3     N     0.22920   0.64700   0.60968   0.01267  Uiso   1.00
N4     N     0.40870   0.05240   0.13726   0.01267  Uiso   1.00
N5     N     0.04220   0.06080   0.05253   0.01267  Uiso   1.00
N6     N     0.77080   0.35300   0.39032   0.01267  Uiso   1.00
N7     N     0.44790   0.65300   0.67952   0.01267  Uiso   1.00
N8     N     0.97870   0.92040   0.67657   0.01267  Uiso   1.00
N9     N     0.22080   0.23760   0.04787   0.01267  Uiso   1.00
N10    N     0.55210   0.34700   0.32048   0.01267  Uiso   1.00
N11    N     0.72870   0.13380   0.87950   0.01267  Uiso   1.00
N12    N     0.89910   0.07960   0.17657   0.01267  Uiso   1.00
N13    N     0.02130   0.07960   0.32343   0.01267  Uiso   1.00
N14    N     0.83620   0.95280   0.77170   0.01267  Uiso   1.00
N15    N     0.59130   0.94760   0.86274   0.01267  Uiso   1.00
N16    N     0.62444   0.15812   0.20509   0.01267  Uiso   1.00
N17    N     0.95490   0.84040   0.20707   0.01267  Uiso   1.00
N18    N     0.02190   0.83140   0.49370   0.01267  Uiso   1.00
N19    N     0.45840   0.76240   0.54787   0.01267  Uiso   1.00
N20    N     0.20470   0.84040   0.29293   0.01267  Uiso   1.00
N21    N     0.04510   0.15960   0.79293   0.01267  Uiso   1.00
N22    N     0.85330   0.16860   0.99370   0.01267  Uiso   1.00
N23    N     0.14670   0.83140   0.00630   0.01267  Uiso   1.00
N24    N     0.13750   0.13380   0.62050   0.01267  Uiso   1.00
N25    N     0.27130   0.86620   0.12050   0.01267  Uiso   1.00
N26    N     0.53890   0.05240   0.36274   0.01267  Uiso   1.00
N27    N     0.16380   0.04720   0.22830   0.01267  Uiso   1.00
N28    N     0.78256   0.84188   0.70509   0.01267  Uiso   1.00
N29    N     0.10090   0.92040   0.82343   0.01267  Uiso   1.00
N30    N     0.86250   0.86620   0.37950   0.01267  Uiso   1.00
N31    N     0.87620   0.35300   0.10968   0.01267  Uiso   1.00
N32    N     0.79530   0.15960   0.70707   0.01267  Uiso   1.00
N33    N     0.54160   0.23760   0.45213   0.01267  Uiso   1.00
N34    N     0.46110   0.94760   0.63726   0.01267  Uiso   1.00
N35    N     0.12380   0.64700   0.89032   0.01267  Uiso   1.00
N36    N     0.95780   0.93920   0.94747   0.01267  Uiso   1.00
N37    N     0.77920   0.76240   0.95213   0.01267  Uiso   1.00
N38    N     0.89700   0.06080   0.44747   0.01267  Uiso   1.00
N39    N     0.97810   0.16860   0.50630   0.01267  Uiso   1.00
N40    N     0.10090   0.34700   0.17952   0.01267  Uiso   1.00
N41    N     0.10300   0.93920   0.55253   0.01267  Uiso   1.00
N42    N     0.37556   0.84188   0.79491   0.01267  Uiso   1.00
N43    N     0.21100   0.95280   0.72830   0.01267  Uiso   1.00
N44    N     0.78900   0.04720   0.27170   0.01267  Uiso   1.00
