data_image0
_cell_length_a       9.515
_cell_length_b       9.515
_cell_length_c       14.351
_cell_angle_alpha    90
_cell_angle_beta     90
_cell_angle_gamma    90

_symmetry_space_group_name_H-M    "P 1"
_symmetry_int_tables_number       1

loop_
  _symmetry_equiv_pos_as_xyz
  'x, y, z'

loop_
  _atom_site_label
  _atom_site_occupancy
  _atom_site_fract_x
  _atom_site_fract_y
  _atom_site_fract_z
  _atom_site_thermal_displace_type
  _atom_site_B_iso_or_equiv
  _atom_site_type_symbol
  O1       1.0000 0.06470  0.16840  0.06360  Biso   1.000  O
  O2       1.0000 0.88320  0.15570  0.17880  Biso   1.000  O
  O3       1.0000 0.56470  0.66840  0.56360  Biso   1.000  O
  O4       1.0000 0.38320  0.65570  0.67880  Biso   1.000  O
  O5       1.0000 0.93530  0.83160  0.06360  Biso   1.000  O
  O6       1.0000 0.11680  0.84430  0.17880  Biso   1.000  O
  O7       1.0000 0.43530  0.33160  0.56360  Biso   1.000  O
  O8       1.0000 0.61680  0.34430  0.67880  Biso   1.000  O
  O9       1.0000 0.16840  0.93530  0.93640  Biso   1.000  O
  O10      1.0000 0.15570  0.11680  0.82120  Biso   1.000  O
  O11      1.0000 0.66840  0.43530  0.43640  Biso   1.000  O
  O12      1.0000 0.65570  0.61680  0.32120  Biso   1.000  O
  O13      1.0000 0.83160  0.06470  0.93640  Biso   1.000  O
  O14      1.0000 0.84430  0.88320  0.82120  Biso   1.000  O
  O15      1.0000 0.33160  0.56470  0.43640  Biso   1.000  O
  O16      1.0000 0.34430  0.38320  0.32120  Biso   1.000  O
  O17      1.0000 0.43530  0.16840  0.68640  Biso   1.000  O
  O18      1.0000 0.61680  0.15570  0.57120  Biso   1.000  O
  O19      1.0000 0.93530  0.66840  0.18640  Biso   1.000  O
  O20      1.0000 0.11680  0.65570  0.07120  Biso   1.000  O
  O21      1.0000 0.56470  0.83160  0.68640  Biso   1.000  O
  O22      1.0000 0.38320  0.84430  0.57120  Biso   1.000  O
  O23      1.0000 0.06470  0.33160  0.18640  Biso   1.000  O
  O24      1.0000 0.88320  0.34430  0.07120  Biso   1.000  O
  O25      1.0000 0.33160  0.93530  0.81360  Biso   1.000  O
  O26      1.0000 0.34430  0.11680  0.92880  Biso   1.000  O
  O27      1.0000 0.83160  0.43530  0.31360  Biso   1.000  O
  O28      1.0000 0.84430  0.61680  0.42880  Biso   1.000  O
  O29      1.0000 0.66840  0.06470  0.81360  Biso   1.000  O
  O30      1.0000 0.65570  0.88320  0.92880  Biso   1.000  O
  O31      1.0000 0.16840  0.56470  0.31360  Biso   1.000  O
  O32      1.0000 0.15570  0.38320  0.42880  Biso   1.000  O
  S1       1.0000 0.96940  0.25000  0.12500  Biso   1.000  S
  S2       1.0000 0.03060  0.75000  0.12500  Biso   1.000  S
  S3       1.0000 0.53060  0.25000  0.62500  Biso   1.000  S
  S4       1.0000 0.25000  0.03060  0.87500  Biso   1.000  S
  S5       1.0000 0.75000  0.53060  0.37500  Biso   1.000  S
  S6       1.0000 0.75000  0.96940  0.87500  Biso   1.000  S
  S7       1.0000 0.25000  0.46940  0.37500  Biso   1.000  S
  S8       1.0000 0.46940  0.75000  0.62500  Biso   1.000  S
  Zn1      1.0000 0.00000  0.00000  0.00000  Biso   1.000  Zn
  Zn2      1.0000 0.50000  0.50000  0.50000  Biso   1.000  Zn
  Zn3      1.0000 0.50000  0.00000  0.75000  Biso   1.000  Zn
  Zn4      1.0000 0.00000  0.50000  0.25000  Biso   1.000  Zn
