data_image0
_cell_length_a       8.166
_cell_length_b       22.154
_cell_length_c       18.475
_cell_angle_alpha    90
_cell_angle_beta     98.7
_cell_angle_gamma    90

_symmetry_space_group_name_H-M    "P 1"
_symmetry_int_tables_number       1

loop_
  _symmetry_equiv_pos_as_xyz
  'x, y, z'

loop_
  _atom_site_label
  _atom_site_occupancy
  _atom_site_fract_x
  _atom_site_fract_y
  _atom_site_fract_z
  _atom_site_thermal_displace_type
  _atom_site_B_iso_or_equiv
  _atom_site_type_symbol
  Cd1      1.0000 0.55913  0.12350  0.16896  Biso   1.000  Cd
  Cd2      1.0000 0.71047  0.95900  0.40147  Biso   1.000  Cd
  Cd3      1.0000 0.84852  0.15978  0.75748  Biso   1.000  Cd
  C1       1.0000 0.94540  0.99210  0.48020  Biso   1.000  C
  C2       1.0000 0.53830  0.99140  0.47920  Biso   1.000  C
  C3       1.0000 0.91000  0.11260  0.86610  Biso   1.000  C
  N1       1.0000 0.94300  0.08150  0.91130  Biso   1.000  N
  C4       1.0000 0.81800  0.04700  0.07040  Biso   1.000  C
  N2       1.0000 0.75700  0.06360  0.09130  Biso   1.000  N
  C5       1.0000 0.33450  0.08300  0.10220  Biso   1.000  C
  N3       1.0000 0.22830  0.05870  0.06920  Biso   1.000  N
  C6       1.0000 0.65030  0.06990  0.26820  Biso   1.000  C
  N4       1.0000 0.68640  0.03880  0.31750  Biso   1.000  N
  C7       1.0000 0.03880  0.11910  0.69690  Biso   1.000  C
  N5       1.0000 0.87590  0.90520  0.33290  Biso   1.000  N
  C8       1.0000 0.67100  0.20660  0.13100  Biso   1.000  C
  N6       1.0000 0.72800  0.24810  0.11120  Biso   1.000  N
  C9       1.0000 0.86990  0.25900  0.75140  Biso   1.000  C
  C10      1.0000 0.61460  0.11690  0.70590  Biso   1.000  C
  N7       1.0000 0.48800  0.91100  0.32290  Biso   1.000  N
  N8       1.0000 0.10580  0.69310  0.25950  Biso   1.000  N
  Cd4      1.0000 0.44087  0.87650  0.83104  Biso   1.000  Cd
  Cd5      1.0000 0.28953  0.04100  0.59853  Biso   1.000  Cd
  Cd6      1.0000 0.15148  0.84022  0.24252  Biso   1.000  Cd
  C11      1.0000 0.05460  0.00790  0.51980  Biso   1.000  C
  C12      1.0000 0.46170  0.00860  0.52080  Biso   1.000  C
  C13      1.0000 0.09000  0.88740  0.13390  Biso   1.000  C
  N9       1.0000 0.05700  0.91850  0.08870  Biso   1.000  N
  C14      1.0000 0.18200  0.95300  0.92960  Biso   1.000  C
  N10      1.0000 0.24300  0.93640  0.90870  Biso   1.000  N
  C15      1.0000 0.66550  0.91700  0.89780  Biso   1.000  C
  N11      1.0000 0.77170  0.94130  0.93080  Biso   1.000  N
  C16      1.0000 0.34970  0.93010  0.73180  Biso   1.000  C
  N12      1.0000 0.31360  0.96120  0.68250  Biso   1.000  N
  C17      1.0000 0.96120  0.88090  0.30310  Biso   1.000  C
  N13      1.0000 0.12410  0.09480  0.66710  Biso   1.000  N
  C18      1.0000 0.32900  0.79340  0.86900  Biso   1.000  C
  N14      1.0000 0.27200  0.75190  0.88880  Biso   1.000  N
  C19      1.0000 0.13010  0.74100  0.24860  Biso   1.000  C
  C20      1.0000 0.38540  0.88310  0.29410  Biso   1.000  C
  N15      1.0000 0.51200  0.08900  0.67710  Biso   1.000  N
  N16      1.0000 0.89420  0.30690  0.74050  Biso   1.000  N
  Cd7      1.0000 0.00000  0.00000  0.00000  Biso   1.000  Cd
  N17      1.0000 0.39420  0.19310  0.24050  Biso   1.000  N
  Cd8      1.0000 0.94087  0.62350  0.33104  Biso   1.000  Cd
  Cd9      1.0000 0.78953  0.45900  0.09853  Biso   1.000  Cd
  Cd10     1.0000 0.65148  0.65978  0.74252  Biso   1.000  Cd
  C21      1.0000 0.55460  0.49210  0.01980  Biso   1.000  C
  C22      1.0000 0.96170  0.49140  0.02080  Biso   1.000  C
  C23      1.0000 0.59000  0.61260  0.63390  Biso   1.000  C
  N18      1.0000 0.55700  0.58150  0.58870  Biso   1.000  N
  C24      1.0000 0.68200  0.54700  0.42960  Biso   1.000  C
  N19      1.0000 0.74300  0.56360  0.40870  Biso   1.000  N
  C25      1.0000 0.16550  0.58300  0.39780  Biso   1.000  C
  N20      1.0000 0.27170  0.55870  0.43080  Biso   1.000  N
  C26      1.0000 0.84970  0.56990  0.23180  Biso   1.000  C
  N21      1.0000 0.81360  0.53880  0.18250  Biso   1.000  N
  C27      1.0000 0.46120  0.61910  0.80310  Biso   1.000  C
  N22      1.0000 0.62410  0.40520  0.16710  Biso   1.000  N
  C28      1.0000 0.82900  0.70660  0.36900  Biso   1.000  C
  N23      1.0000 0.77200  0.74810  0.38880  Biso   1.000  N
  C29      1.0000 0.63010  0.75900  0.74860  Biso   1.000  C
  C30      1.0000 0.88540  0.61690  0.79410  Biso   1.000  C
  N24      1.0000 0.01200  0.41100  0.17710  Biso   1.000  N
  N25      1.0000 0.60580  0.80690  0.75950  Biso   1.000  N
  Cd11     1.0000 0.05913  0.37650  0.66896  Biso   1.000  Cd
  Cd12     1.0000 0.21047  0.54100  0.90147  Biso   1.000  Cd
  Cd13     1.0000 0.34852  0.34022  0.25748  Biso   1.000  Cd
  C31      1.0000 0.44540  0.50790  0.98020  Biso   1.000  C
  C32      1.0000 0.03830  0.50860  0.97920  Biso   1.000  C
  C33      1.0000 0.41000  0.38740  0.36610  Biso   1.000  C
  N26      1.0000 0.44300  0.41850  0.41130  Biso   1.000  N
  C34      1.0000 0.31800  0.45300  0.57040  Biso   1.000  C
  N27      1.0000 0.25700  0.43640  0.59130  Biso   1.000  N
  C35      1.0000 0.83450  0.41700  0.60220  Biso   1.000  C
  N28      1.0000 0.72830  0.44130  0.56920  Biso   1.000  N
  C36      1.0000 0.15030  0.43010  0.76820  Biso   1.000  C
  N29      1.0000 0.18640  0.46120  0.81750  Biso   1.000  N
  C37      1.0000 0.53880  0.38090  0.19690  Biso   1.000  C
  N30      1.0000 0.37590  0.59480  0.83290  Biso   1.000  N
  C38      1.0000 0.17100  0.29340  0.63100  Biso   1.000  C
  N31      1.0000 0.22800  0.25190  0.61120  Biso   1.000  N
  C39      1.0000 0.36990  0.24100  0.25140  Biso   1.000  C
  C40      1.0000 0.11460  0.38310  0.20590  Biso   1.000  C
  N32      1.0000 0.98800  0.58900  0.82290  Biso   1.000  N
  Cd14     1.0000 0.50000  0.50000  0.50000  Biso   1.000  Cd
