data_image0
_cell_length_a       15.5653
_cell_length_b       15.3856
_cell_length_c       14.8364
_cell_angle_alpha    90
_cell_angle_beta     109.725
_cell_angle_gamma    90

_symmetry_space_group_name_H-M    "P 1"
_symmetry_int_tables_number       1

loop_
  _symmetry_equiv_pos_as_xyz
  'x, y, z'

loop_
  _atom_site_label
  _atom_site_occupancy
  _atom_site_fract_x
  _atom_site_fract_y
  _atom_site_fract_z
  _atom_site_thermal_displace_type
  _atom_site_B_iso_or_equiv
  _atom_site_type_symbol
  Cd1      1.0000 0.62229  0.85035  0.74346  Biso   1.000  Cd
  Cd2      1.0000 0.82242  0.67823  0.76684  Biso   1.000  Cd
  N1       1.0000 0.47140  0.25450  0.35180  Biso   1.000  N
  N2       1.0000 0.72790  0.94310  0.84650  Biso   1.000  N
  N3       1.0000 0.73930  0.57560  0.66150  Biso   1.000  N
  N4       1.0000 0.81940  0.59520  0.90420  Biso   1.000  N
  N5       1.0000 0.06590  0.22860  0.13790  Biso   1.000  N
  C1       1.0000 0.48560  0.33060  0.31810  Biso   1.000  C
  H1       1.0000 0.45730  0.34180  0.25320  Biso   1.000  H
  C2       1.0000 0.54060  0.39440  0.37480  Biso   1.000  C
  H2       1.0000 0.54780  0.44730  0.34800  Biso   1.000  H
  C3       1.0000 0.58490  0.37920  0.47180  Biso   1.000  C
  C4       1.0000 0.57150  0.29860  0.50490  Biso   1.000  C
  H3       1.0000 0.60110  0.28420  0.56870  Biso   1.000  H
  C5       1.0000 0.51450  0.23890  0.44430  Biso   1.000  C
  H4       1.0000 0.50580  0.18540  0.46910  Biso   1.000  H
  C6       1.0000 0.79100  0.91750  0.92790  Biso   1.000  C
  H5       1.0000 0.79100  0.85960  0.94580  Biso   1.000  H
  C7       1.0000 0.85590  0.97180  0.98690  Biso   1.000  C
  H6       1.0000 0.89940  0.94980  0.04180  Biso   1.000  H
  C8       1.0000 0.85690  0.05900  0.96480  Biso   1.000  C
  C9       1.0000 0.79020  0.08680  0.88090  Biso   1.000  C
  H7       1.0000 0.78710  0.14490  0.86320  Biso   1.000  H
  C10      1.0000 0.72870  0.02800  0.82420  Biso   1.000  C
  H8       1.0000 0.68560  0.04790  0.76780  Biso   1.000  H
  C11      1.0000 0.02490  0.24200  0.04380  Biso   1.000  C
  H9       1.0000 0.04350  0.28920  0.01570  Biso   1.000  H
  C12      1.0000 0.95650  0.18920  0.98670  Biso   1.000  C
  H10      1.0000 0.93010  0.20140  0.92180  Biso   1.000  H
  C13      1.0000 0.92730  0.11880  0.02530  Biso   1.000  C
  C14      1.0000 0.96900  0.10540  0.12330  Biso   1.000  C
  H11      1.0000 0.95120  0.05910  0.15320  Biso   1.000  H
  C15      1.0000 0.03670  0.16100  0.17570  Biso   1.000  C
  H12      1.0000 0.06350  0.15090  0.24110  Biso   1.000  H
  C16      1.0000 0.67210  0.59660  0.58060  Biso   1.000  C
  H13      1.0000 0.65890  0.65490  0.56620  Biso   1.000  H
  C17      1.0000 0.62150  0.53430  0.51770  Biso   1.000  C
  H14      1.0000 0.57490  0.55120  0.46250  Biso   1.000  H
  C18      1.0000 0.63990  0.44670  0.53660  Biso   1.000  C
  C19      1.0000 0.71170  0.42590  0.61900  Biso   1.000  C
  H15      1.0000 0.72820  0.36810  0.63340  Biso   1.000  H
  C20      1.0000 0.75830  0.49090  0.67940  Biso   1.000  C
  H16      1.0000 0.80510  0.47550  0.73520  Biso   1.000  H
  C21      1.0000 0.70400  0.70240  0.90490  Biso   1.000  C
  C22      1.0000 0.77110  0.63090  0.95500  Biso   1.000  C
  C23      1.0000 0.77840  0.60330  0.04660  Biso   1.000  C
  C24      1.0000 0.83420  0.53210  0.08270  Biso   1.000  C
  H17      1.0000 0.84010  0.51060  0.14300  Biso   1.000  H
  C25      1.0000 0.88090  0.49340  0.02940  Biso   1.000  C
  H18      1.0000 0.91780  0.44520  0.05270  Biso   1.000  H
  C26      1.0000 0.87190  0.52740  0.94130  Biso   1.000  C
  H19      1.0000 0.90420  0.50160  0.90590  Biso   1.000  H
  C27      1.0000 0.73250  0.64560  0.11070  Biso   1.000  C
  O1       1.0000 0.71240  0.73420  0.82840  Biso   1.000  O
  O2       1.0000 0.64580  0.72360  0.93970  Biso   1.000  O
  O3       1.0000 0.66880  0.60220  0.12280  Biso   1.000  O
  O4       1.0000 0.76460  0.71390  0.15150  Biso   1.000  O
  Cd3      1.0000 0.37771  0.35035  0.75654  Biso   1.000  Cd
  Cd4      1.0000 0.17758  0.17823  0.73316  Biso   1.000  Cd
  N6       1.0000 0.52860  0.75450  0.14820  Biso   1.000  N
  N7       1.0000 0.27210  0.44310  0.65350  Biso   1.000  N
  N8       1.0000 0.26070  0.07560  0.83850  Biso   1.000  N
  N9       1.0000 0.18060  0.09520  0.59580  Biso   1.000  N
  N10      1.0000 0.93410  0.72860  0.36210  Biso   1.000  N
  C28      1.0000 0.51440  0.83060  0.18190  Biso   1.000  C
  H20      1.0000 0.54270  0.84180  0.24680  Biso   1.000  H
  C29      1.0000 0.45940  0.89440  0.12520  Biso   1.000  C
  H21      1.0000 0.45220  0.94730  0.15200  Biso   1.000  H
  C30      1.0000 0.41510  0.87920  0.02820  Biso   1.000  C
  C31      1.0000 0.42850  0.79860  0.99510  Biso   1.000  C
  H22      1.0000 0.39890  0.78420  0.93130  Biso   1.000  H
  C32      1.0000 0.48550  0.73890  0.05570  Biso   1.000  C
  H23      1.0000 0.49420  0.68540  0.03090  Biso   1.000  H
  C33      1.0000 0.20900  0.41750  0.57210  Biso   1.000  C
  H24      1.0000 0.20900  0.35960  0.55420  Biso   1.000  H
  C34      1.0000 0.14410  0.47180  0.51310  Biso   1.000  C
  H25      1.0000 0.10060  0.44980  0.45820  Biso   1.000  H
  C35      1.0000 0.14310  0.55900  0.53520  Biso   1.000  C
  C36      1.0000 0.20980  0.58680  0.61910  Biso   1.000  C
  H26      1.0000 0.21290  0.64490  0.63680  Biso   1.000  H
  C37      1.0000 0.27130  0.52800  0.67580  Biso   1.000  C
  H27      1.0000 0.31440  0.54790  0.73220  Biso   1.000  H
  C38      1.0000 0.97510  0.74200  0.45620  Biso   1.000  C
  H28      1.0000 0.95650  0.78920  0.48430  Biso   1.000  H
  C39      1.0000 0.04350  0.68920  0.51330  Biso   1.000  C
  H29      1.0000 0.06990  0.70140  0.57820  Biso   1.000  H
  C40      1.0000 0.07270  0.61880  0.47470  Biso   1.000  C
  C41      1.0000 0.03100  0.60540  0.37670  Biso   1.000  C
  H30      1.0000 0.04880  0.55910  0.34680  Biso   1.000  H
  C42      1.0000 0.96330  0.66100  0.32430  Biso   1.000  C
  H31      1.0000 0.93650  0.65090  0.25890  Biso   1.000  H
  C43      1.0000 0.32790  0.09660  0.91940  Biso   1.000  C
  H32      1.0000 0.34110  0.15490  0.93380  Biso   1.000  H
  C44      1.0000 0.37850  0.03430  0.98230  Biso   1.000  C
  H33      1.0000 0.42510  0.05120  0.03750  Biso   1.000  H
  C45      1.0000 0.36010  0.94670  0.96340  Biso   1.000  C
  C46      1.0000 0.28830  0.92590  0.88100  Biso   1.000  C
  H34      1.0000 0.27180  0.86810  0.86660  Biso   1.000  H
  C47      1.0000 0.24170  0.99090  0.82060  Biso   1.000  C
  H35      1.0000 0.19490  0.97550  0.76480  Biso   1.000  H
  C48      1.0000 0.29600  0.20240  0.59510  Biso   1.000  C
  C49      1.0000 0.22890  0.13090  0.54500  Biso   1.000  C
  C50      1.0000 0.22160  0.10330  0.45340  Biso   1.000  C
  C51      1.0000 0.16580  0.03210  0.41730  Biso   1.000  C
  H36      1.0000 0.15990  0.01060  0.35700  Biso   1.000  H
  C52      1.0000 0.11910  0.99340  0.47060  Biso   1.000  C
  H37      1.0000 0.08220  0.94520  0.44730  Biso   1.000  H
  C53      1.0000 0.12810  0.02740  0.55870  Biso   1.000  C
  H38      1.0000 0.09580  0.00160  0.59410  Biso   1.000  H
  C54      1.0000 0.26750  0.14560  0.38930  Biso   1.000  C
  O5       1.0000 0.28760  0.23420  0.67160  Biso   1.000  O
  O6       1.0000 0.35420  0.22360  0.56030  Biso   1.000  O
  O7       1.0000 0.33120  0.10220  0.37720  Biso   1.000  O
  O8       1.0000 0.23540  0.21390  0.34850  Biso   1.000  O
  Cd5      1.0000 0.37771  0.14965  0.25654  Biso   1.000  Cd
  Cd6      1.0000 0.17758  0.32177  0.23316  Biso   1.000  Cd
  N11      1.0000 0.52860  0.74550  0.64820  Biso   1.000  N
  N12      1.0000 0.27210  0.05690  0.15350  Biso   1.000  N
  N13      1.0000 0.26070  0.42440  0.33850  Biso   1.000  N
  N14      1.0000 0.18060  0.40480  0.09580  Biso   1.000  N
  N15      1.0000 0.93410  0.77140  0.86210  Biso   1.000  N
  C55      1.0000 0.51440  0.66940  0.68190  Biso   1.000  C
  H39      1.0000 0.54270  0.65820  0.74680  Biso   1.000  H
  C56      1.0000 0.45940  0.60560  0.62520  Biso   1.000  C
  H40      1.0000 0.45220  0.55270  0.65200  Biso   1.000  H
  C57      1.0000 0.41510  0.62080  0.52820  Biso   1.000  C
  C58      1.0000 0.42850  0.70140  0.49510  Biso   1.000  C
  H41      1.0000 0.39890  0.71580  0.43130  Biso   1.000  H
  C59      1.0000 0.48550  0.76110  0.55570  Biso   1.000  C
  H42      1.0000 0.49420  0.81460  0.53090  Biso   1.000  H
  C60      1.0000 0.20900  0.08250  0.07210  Biso   1.000  C
  H43      1.0000 0.20900  0.14040  0.05420  Biso   1.000  H
  C61      1.0000 0.14410  0.02820  0.01310  Biso   1.000  C
  H44      1.0000 0.10060  0.05020  0.95820  Biso   1.000  H
  C62      1.0000 0.14310  0.94100  0.03520  Biso   1.000  C
  C63      1.0000 0.20980  0.91320  0.11910  Biso   1.000  C
  H45      1.0000 0.21290  0.85510  0.13680  Biso   1.000  H
  C64      1.0000 0.27130  0.97200  0.17580  Biso   1.000  C
  H46      1.0000 0.31440  0.95210  0.23220  Biso   1.000  H
  C65      1.0000 0.97510  0.75800  0.95620  Biso   1.000  C
  H47      1.0000 0.95650  0.71080  0.98430  Biso   1.000  H
  C66      1.0000 0.04350  0.81080  0.01330  Biso   1.000  C
  H48      1.0000 0.06990  0.79860  0.07820  Biso   1.000  H
  C67      1.0000 0.07270  0.88120  0.97470  Biso   1.000  C
  C68      1.0000 0.03100  0.89460  0.87670  Biso   1.000  C
  H49      1.0000 0.04880  0.94090  0.84680  Biso   1.000  H
  C69      1.0000 0.96330  0.83900  0.82430  Biso   1.000  C
  H50      1.0000 0.93650  0.84910  0.75890  Biso   1.000  H
  C70      1.0000 0.32790  0.40340  0.41940  Biso   1.000  C
  H51      1.0000 0.34110  0.34510  0.43380  Biso   1.000  H
  C71      1.0000 0.37850  0.46570  0.48230  Biso   1.000  C
  H52      1.0000 0.42510  0.44880  0.53750  Biso   1.000  H
  C72      1.0000 0.36010  0.55330  0.46340  Biso   1.000  C
  C73      1.0000 0.28830  0.57410  0.38100  Biso   1.000  C
  H53      1.0000 0.27180  0.63190  0.36660  Biso   1.000  H
  C74      1.0000 0.24170  0.50910  0.32060  Biso   1.000  C
  H54      1.0000 0.19490  0.52450  0.26480  Biso   1.000  H
  C75      1.0000 0.29600  0.29760  0.09510  Biso   1.000  C
  C76      1.0000 0.22890  0.36910  0.04500  Biso   1.000  C
  C77      1.0000 0.22160  0.39670  0.95340  Biso   1.000  C
  C78      1.0000 0.16580  0.46790  0.91730  Biso   1.000  C
  H55      1.0000 0.15990  0.48940  0.85700  Biso   1.000  H
  C79      1.0000 0.11910  0.50660  0.97060  Biso   1.000  C
  H56      1.0000 0.08220  0.55480  0.94730  Biso   1.000  H
  C80      1.0000 0.12810  0.47260  0.05870  Biso   1.000  C
  H57      1.0000 0.09580  0.49840  0.09410  Biso   1.000  H
  C81      1.0000 0.26750  0.35440  0.88930  Biso   1.000  C
  O9       1.0000 0.28760  0.26580  0.17160  Biso   1.000  O
  O10      1.0000 0.35420  0.27640  0.06030  Biso   1.000  O
  O11      1.0000 0.33120  0.39780  0.87720  Biso   1.000  O
  O12      1.0000 0.23540  0.28610  0.84850  Biso   1.000  O
  Cd7      1.0000 0.62229  0.64965  0.24346  Biso   1.000  Cd
  Cd8      1.0000 0.82242  0.82177  0.26684  Biso   1.000  Cd
  N16      1.0000 0.47140  0.24550  0.85180  Biso   1.000  N
  N17      1.0000 0.72790  0.55690  0.34650  Biso   1.000  N
  N18      1.0000 0.73930  0.92440  0.16150  Biso   1.000  N
  N19      1.0000 0.81940  0.90480  0.40420  Biso   1.000  N
  N20      1.0000 0.06590  0.27140  0.63790  Biso   1.000  N
  C82      1.0000 0.48560  0.16940  0.81810  Biso   1.000  C
  H58      1.0000 0.45730  0.15820  0.75320  Biso   1.000  H
  C83      1.0000 0.54060  0.10560  0.87480  Biso   1.000  C
  H59      1.0000 0.54780  0.05270  0.84800  Biso   1.000  H
  C84      1.0000 0.58490  0.12080  0.97180  Biso   1.000  C
  C85      1.0000 0.57150  0.20140  0.00490  Biso   1.000  C
  H60      1.0000 0.60110  0.21580  0.06870  Biso   1.000  H
  C86      1.0000 0.51450  0.26110  0.94430  Biso   1.000  C
  H61      1.0000 0.50580  0.31460  0.96910  Biso   1.000  H
  C87      1.0000 0.79100  0.58250  0.42790  Biso   1.000  C
  H62      1.0000 0.79100  0.64040  0.44580  Biso   1.000  H
  C88      1.0000 0.85590  0.52820  0.48690  Biso   1.000  C
  H63      1.0000 0.89940  0.55020  0.54180  Biso   1.000  H
  C89      1.0000 0.85690  0.44100  0.46480  Biso   1.000  C
  C90      1.0000 0.79020  0.41320  0.38090  Biso   1.000  C
  H64      1.0000 0.78710  0.35510  0.36320  Biso   1.000  H
  C91      1.0000 0.72870  0.47200  0.32420  Biso   1.000  C
  H65      1.0000 0.68560  0.45210  0.26780  Biso   1.000  H
  C92      1.0000 0.02490  0.25800  0.54380  Biso   1.000  C
  H66      1.0000 0.04350  0.21080  0.51570  Biso   1.000  H
  C93      1.0000 0.95650  0.31080  0.48670  Biso   1.000  C
  H67      1.0000 0.93010  0.29860  0.42180  Biso   1.000  H
  C94      1.0000 0.92730  0.38120  0.52530  Biso   1.000  C
  C95      1.0000 0.96900  0.39460  0.62330  Biso   1.000  C
  H68      1.0000 0.95120  0.44090  0.65320  Biso   1.000  H
  C96      1.0000 0.03670  0.33900  0.67570  Biso   1.000  C
  H69      1.0000 0.06350  0.34910  0.74110  Biso   1.000  H
  C97      1.0000 0.67210  0.90340  0.08060  Biso   1.000  C
  H70      1.0000 0.65890  0.84510  0.06620  Biso   1.000  H
  C98      1.0000 0.62150  0.96570  0.01770  Biso   1.000  C
  H71      1.0000 0.57490  0.94880  0.96250  Biso   1.000  H
  C99      1.0000 0.63990  0.05330  0.03660  Biso   1.000  C
  C100     1.0000 0.71170  0.07410  0.11900  Biso   1.000  C
  H72      1.0000 0.72820  0.13190  0.13340  Biso   1.000  H
  C101     1.0000 0.75830  0.00910  0.17940  Biso   1.000  C
  H73      1.0000 0.80510  0.02450  0.23520  Biso   1.000  H
  C102     1.0000 0.70400  0.79760  0.40490  Biso   1.000  C
  C103     1.0000 0.77110  0.86910  0.45500  Biso   1.000  C
  C104     1.0000 0.77840  0.89670  0.54660  Biso   1.000  C
  C105     1.0000 0.83420  0.96790  0.58270  Biso   1.000  C
  H74      1.0000 0.84010  0.98940  0.64300  Biso   1.000  H
  C106     1.0000 0.88090  0.00660  0.52940  Biso   1.000  C
  H75      1.0000 0.91780  0.05480  0.55270  Biso   1.000  H
  C107     1.0000 0.87190  0.97260  0.44130  Biso   1.000  C
  H76      1.0000 0.90420  0.99840  0.40590  Biso   1.000  H
  C108     1.0000 0.73250  0.85440  0.61070  Biso   1.000  C
  O13      1.0000 0.71240  0.76580  0.32840  Biso   1.000  O
  O14      1.0000 0.64580  0.77640  0.43970  Biso   1.000  O
  O15      1.0000 0.66880  0.89780  0.62280  Biso   1.000  O
  O16      1.0000 0.76460  0.78610  0.65150  Biso   1.000  O
