data_image0
_cell_length_a       7.9985
_cell_length_b       9.7296
_cell_length_c       10.8506
_cell_angle_alpha    84.315
_cell_angle_beta     78.168
_cell_angle_gamma    75.064

_symmetry_space_group_name_H-M    "P 1"
_symmetry_int_tables_number       1

loop_
  _symmetry_equiv_pos_as_xyz
  'x, y, z'

loop_
  _atom_site_label
  _atom_site_occupancy
  _atom_site_fract_x
  _atom_site_fract_y
  _atom_site_fract_z
  _atom_site_thermal_displace_type
  _atom_site_B_iso_or_equiv
  _atom_site_type_symbol
  Cu1      1.0000 0.41470  0.68700  0.82400  Biso   1.000  Cu
  Cu2      1.0000 0.16130  0.54610  0.87490  Biso   1.000  Cu
  Cu3      1.0000 0.80400  0.12820  0.34540  Biso   1.000  Cu
  O1       1.0000 0.42170  0.67100  0.64360  Biso   1.000  O
  O2       1.0000 0.20450  0.55150  0.69010  Biso   1.000  O
  O3       1.0000 0.55550  0.36080  0.54960  Biso   1.000  O
  O4       1.0000 0.64560  0.30730  0.34600  Biso   1.000  O
  O5       1.0000 0.15140  0.56400  0.05590  Biso   1.000  O
  O6       1.0000 0.37270  0.67500  0.00930  Biso   1.000  O
  O7       1.0000 0.97030  0.95160  0.34230  Biso   1.000  O
  O8       1.0000 0.02490  0.88030  0.14650  Biso   1.000  O
  O9       1.0000 0.75640  0.85920  0.65260  Biso   1.000  O
  O10      1.0000 0.57260  0.82980  0.83310  Biso   1.000  O
  O11      1.0000 0.99030  0.73090  0.86820  Biso   1.000  O
  O12      1.0000 0.20640  0.84970  0.82570  Biso   1.000  O
  O13      1.0000 0.37950  0.38800  0.87580  Biso   1.000  O
  O14      1.0000 0.59260  0.50140  0.82180  Biso   1.000  O
  O15      1.0000 0.00750  0.40290  0.86850  Biso   1.000  O
  O16      1.0000 0.81070  0.39430  0.04390  Biso   1.000  O
  C1       1.0000 0.41110  0.50320  0.39330  Biso   1.000  C
  C2       1.0000 0.37470  0.50900  0.26750  Biso   1.000  C
  H1       1.0000 0.42800  0.42810  0.21840  Biso   1.000  H
  C3       1.0000 0.26710  0.62450  0.21360  Biso   1.000  C
  C4       1.0000 0.16280  0.73020  0.30440  Biso   1.000  C
  C5       1.0000 0.18170  0.71840  0.42710  Biso   1.000  C
  H2       1.0000 0.10660  0.78630  0.48400  Biso   1.000  H
  C6       1.0000 0.30780  0.60970  0.47050  Biso   1.000  C
  C7       1.0000 0.31700  0.60930  0.61390  Biso   1.000  C
  C8       1.0000 0.54500  0.37940  0.43720  Biso   1.000  C
  C9       1.0000 0.26000  0.62760  0.08510  Biso   1.000  C
  C10      1.0000 0.04170  0.86010  0.26000  Biso   1.000  C
  C11      1.0000 0.83580  0.23830  0.88980  Biso   1.000  C
  C12      1.0000 0.95170  0.10590  0.87970  Biso   1.000  C
  H3       1.0000 0.06770  0.09560  0.89370  Biso   1.000  H
  C13      1.0000 0.90480  0.98620  0.84960  Biso   1.000  C
  C14      1.0000 0.74790  0.99880  0.82030  Biso   1.000  C
  C15      1.0000 0.62700  0.13530  0.81930  Biso   1.000  C
  H4       1.0000 0.51890  0.14420  0.79210  Biso   1.000  H
  C16      1.0000 0.66160  0.25250  0.85590  Biso   1.000  C
  C17      1.0000 0.68960  0.88070  0.76630  Biso   1.000  C
  C18      1.0000 0.04280  0.83920  0.84990  Biso   1.000  C
  C19      1.0000 0.53660  0.38800  0.85350  Biso   1.000  C
  C20      1.0000 0.88540  0.35610  0.93800  Biso   1.000  C
