data_image0
_cell_length_a       22.8823
_cell_length_b       18.4474
_cell_length_c       9.6823
_cell_angle_alpha    90
_cell_angle_beta     95.477
_cell_angle_gamma    90

_symmetry_space_group_name_H-M    "P 1"
_symmetry_int_tables_number       1

loop_
  _symmetry_equiv_pos_as_xyz
  'x, y, z'

loop_
  _atom_site_label
  _atom_site_occupancy
  _atom_site_fract_x
  _atom_site_fract_y
  _atom_site_fract_z
  _atom_site_thermal_displace_type
  _atom_site_B_iso_or_equiv
  _atom_site_type_symbol
  Zn1      1.0000 0.08458  0.03345  0.01854  Biso   1.000  Zn
  O1       1.0000 0.04195  0.04290  0.18154  Biso   1.000  O
  O2       1.0000 0.96696  0.94331  0.14327  Biso   1.000  O
  O3       1.0000 0.13510  0.11851  0.05198  Biso   1.000  O
  O4       1.0000 0.18616  0.07622  0.88610  Biso   1.000  O
  O5       1.0000 0.27764  0.06813  0.13000  Biso   1.000  O
  O6       1.0000 0.35022  0.09485  0.00140  Biso   1.000  O
  C1       1.0000 0.19009  0.25528  0.97040  Biso   1.000  C
  C2       1.0000 0.21521  0.18758  0.99270  Biso   1.000  C
  C3       1.0000 0.27596  0.18255  0.02450  Biso   1.000  C
  C4       1.0000 0.17675  0.12100  0.97430  Biso   1.000  C
  C5       1.0000 0.30501  0.11027  0.05040  Biso   1.000  C
  C6       1.0000 0.14990  0.91346  0.89970  Biso   1.000  C
  C7       1.0000 0.16711  0.84381  0.87860  Biso   1.000  C
  C8       1.0000 0.15465  0.78921  0.96960  Biso   1.000  C
  C9       1.0000 0.12601  0.80993  0.08300  Biso   1.000  C
  C10      1.0000 0.10988  0.88137  0.09860  Biso   1.000  C
  C11      1.0000 0.17034  0.71250  0.94780  Biso   1.000  C
  C12      1.0000 0.20560  0.69134  0.84780  Biso   1.000  C
  C13      1.0000 0.21811  0.61923  0.82750  Biso   1.000  C
  C14      1.0000 0.16500  0.58700  0.00110  Biso   1.000  C
  C15      1.0000 0.15040  0.65789  0.02710  Biso   1.000  C
  N1       1.0000 0.12038  0.93288  0.00750  Biso   1.000  N
  N2       1.0000 0.19759  0.56777  0.90270  Biso   1.000  N
  H1       1.0000 0.14530  0.25820  0.94690  Biso   1.000  H
  H2       1.0000 0.15970  0.95000  0.83560  Biso   1.000  H
  H3       1.0000 0.18800  0.83260  0.79990  Biso   1.000  H
  H4       1.0000 0.11720  0.77440  0.15010  Biso   1.000  H
  H5       1.0000 0.09000  0.89490  0.17920  Biso   1.000  H
  H6       1.0000 0.22230  0.72790  0.79060  Biso   1.000  H
  H7       1.0000 0.24270  0.60620  0.75490  Biso   1.000  H
  H8       1.0000 0.15180  0.54860  0.06160  Biso   1.000  H
  H9       1.0000 0.12770  0.66960  0.10480  Biso   1.000  H
  H10      1.0000 0.20570  0.51990  0.88780  Biso   1.000  H
  Zn2      1.0000 0.58458  0.53345  0.01854  Biso   1.000  Zn
  O7       1.0000 0.54195  0.54290  0.18154  Biso   1.000  O
  O8       1.0000 0.46696  0.44331  0.14327  Biso   1.000  O
  O9       1.0000 0.63510  0.61851  0.05198  Biso   1.000  O
  O10      1.0000 0.68616  0.57622  0.88610  Biso   1.000  O
  O11      1.0000 0.77764  0.56813  0.13000  Biso   1.000  O
  O12      1.0000 0.85022  0.59485  0.00140  Biso   1.000  O
  C16      1.0000 0.69009  0.75528  0.97040  Biso   1.000  C
  C17      1.0000 0.71521  0.68758  0.99270  Biso   1.000  C
  C18      1.0000 0.77596  0.68255  0.02450  Biso   1.000  C
  C19      1.0000 0.67675  0.62100  0.97430  Biso   1.000  C
  C20      1.0000 0.80501  0.61027  0.05040  Biso   1.000  C
  C21      1.0000 0.64990  0.41346  0.89970  Biso   1.000  C
  C22      1.0000 0.66711  0.34381  0.87860  Biso   1.000  C
  C23      1.0000 0.65465  0.28921  0.96960  Biso   1.000  C
  C24      1.0000 0.62601  0.30993  0.08300  Biso   1.000  C
  C25      1.0000 0.60988  0.38137  0.09860  Biso   1.000  C
  C26      1.0000 0.67034  0.21250  0.94780  Biso   1.000  C
  C27      1.0000 0.70560  0.19134  0.84780  Biso   1.000  C
  C28      1.0000 0.71811  0.11923  0.82750  Biso   1.000  C
  C29      1.0000 0.66500  0.08700  0.00110  Biso   1.000  C
  C30      1.0000 0.65040  0.15789  0.02710  Biso   1.000  C
  N3       1.0000 0.62038  0.43288  0.00750  Biso   1.000  N
  N4       1.0000 0.69759  0.06777  0.90270  Biso   1.000  N
  H11      1.0000 0.64530  0.75820  0.94690  Biso   1.000  H
  H12      1.0000 0.65970  0.45000  0.83560  Biso   1.000  H
  H13      1.0000 0.68800  0.33260  0.79990  Biso   1.000  H
  H14      1.0000 0.61720  0.27440  0.15010  Biso   1.000  H
  H15      1.0000 0.59000  0.39490  0.17920  Biso   1.000  H
  H16      1.0000 0.72230  0.22790  0.79060  Biso   1.000  H
  H17      1.0000 0.74270  0.10620  0.75490  Biso   1.000  H
  H18      1.0000 0.65180  0.04860  0.06160  Biso   1.000  H
  H19      1.0000 0.62770  0.16960  0.10480  Biso   1.000  H
  H20      1.0000 0.70570  0.01990  0.88780  Biso   1.000  H
  Zn3      1.0000 0.91542  0.03345  0.48146  Biso   1.000  Zn
  O13      1.0000 0.95805  0.04290  0.31846  Biso   1.000  O
  O14      1.0000 0.03304  0.94331  0.35673  Biso   1.000  O
  O15      1.0000 0.86490  0.11851  0.44802  Biso   1.000  O
  O16      1.0000 0.81384  0.07622  0.61390  Biso   1.000  O
  O17      1.0000 0.72236  0.06813  0.37000  Biso   1.000  O
  O18      1.0000 0.64978  0.09485  0.49860  Biso   1.000  O
  C31      1.0000 0.80991  0.25528  0.52960  Biso   1.000  C
  C32      1.0000 0.78479  0.18758  0.50730  Biso   1.000  C
  C33      1.0000 0.72404  0.18255  0.47550  Biso   1.000  C
  C34      1.0000 0.82325  0.12100  0.52570  Biso   1.000  C
  C35      1.0000 0.69499  0.11027  0.44960  Biso   1.000  C
  C36      1.0000 0.85010  0.91346  0.60030  Biso   1.000  C
  C37      1.0000 0.83289  0.84381  0.62140  Biso   1.000  C
  C38      1.0000 0.84535  0.78921  0.53040  Biso   1.000  C
  C39      1.0000 0.87399  0.80993  0.41700  Biso   1.000  C
  C40      1.0000 0.89012  0.88137  0.40140  Biso   1.000  C
  C41      1.0000 0.82966  0.71250  0.55220  Biso   1.000  C
  C42      1.0000 0.79440  0.69134  0.65220  Biso   1.000  C
  C43      1.0000 0.78189  0.61923  0.67250  Biso   1.000  C
  C44      1.0000 0.83500  0.58700  0.49890  Biso   1.000  C
  C45      1.0000 0.84960  0.65789  0.47290  Biso   1.000  C
  N5       1.0000 0.87962  0.93288  0.49250  Biso   1.000  N
  N6       1.0000 0.80241  0.56777  0.59730  Biso   1.000  N
  H21      1.0000 0.85470  0.25820  0.55310  Biso   1.000  H
  H22      1.0000 0.84030  0.95000  0.66440  Biso   1.000  H
  H23      1.0000 0.81200  0.83260  0.70010  Biso   1.000  H
  H24      1.0000 0.88280  0.77440  0.34990  Biso   1.000  H
  H25      1.0000 0.91000  0.89490  0.32080  Biso   1.000  H
  H26      1.0000 0.77770  0.72790  0.70940  Biso   1.000  H
  H27      1.0000 0.75730  0.60620  0.74510  Biso   1.000  H
  H28      1.0000 0.84820  0.54860  0.43840  Biso   1.000  H
  H29      1.0000 0.87230  0.66960  0.39520  Biso   1.000  H
  H30      1.0000 0.79430  0.51990  0.61220  Biso   1.000  H
  Zn4      1.0000 0.41542  0.53345  0.48146  Biso   1.000  Zn
  O19      1.0000 0.45805  0.54290  0.31846  Biso   1.000  O
  O20      1.0000 0.53304  0.44331  0.35673  Biso   1.000  O
  O21      1.0000 0.36490  0.61851  0.44802  Biso   1.000  O
  O22      1.0000 0.31384  0.57622  0.61390  Biso   1.000  O
  O23      1.0000 0.22236  0.56813  0.37000  Biso   1.000  O
  O24      1.0000 0.14978  0.59485  0.49860  Biso   1.000  O
  C46      1.0000 0.30991  0.75528  0.52960  Biso   1.000  C
  C47      1.0000 0.28479  0.68758  0.50730  Biso   1.000  C
  C48      1.0000 0.22404  0.68255  0.47550  Biso   1.000  C
  C49      1.0000 0.32325  0.62100  0.52570  Biso   1.000  C
  C50      1.0000 0.19499  0.61027  0.44960  Biso   1.000  C
  C51      1.0000 0.35010  0.41346  0.60030  Biso   1.000  C
  C52      1.0000 0.33289  0.34381  0.62140  Biso   1.000  C
  C53      1.0000 0.34535  0.28921  0.53040  Biso   1.000  C
  C54      1.0000 0.37399  0.30993  0.41700  Biso   1.000  C
  C55      1.0000 0.39012  0.38137  0.40140  Biso   1.000  C
  C56      1.0000 0.32966  0.21250  0.55220  Biso   1.000  C
  C57      1.0000 0.29440  0.19134  0.65220  Biso   1.000  C
  C58      1.0000 0.28189  0.11923  0.67250  Biso   1.000  C
  C59      1.0000 0.33500  0.08700  0.49890  Biso   1.000  C
  C60      1.0000 0.34960  0.15789  0.47290  Biso   1.000  C
  N7       1.0000 0.37962  0.43288  0.49250  Biso   1.000  N
  N8       1.0000 0.30241  0.06777  0.59730  Biso   1.000  N
  H31      1.0000 0.35470  0.75820  0.55310  Biso   1.000  H
  H32      1.0000 0.34030  0.45000  0.66440  Biso   1.000  H
  H33      1.0000 0.31200  0.33260  0.70010  Biso   1.000  H
  H34      1.0000 0.38280  0.27440  0.34990  Biso   1.000  H
  H35      1.0000 0.41000  0.39490  0.32080  Biso   1.000  H
  H36      1.0000 0.27770  0.22790  0.70940  Biso   1.000  H
  H37      1.0000 0.25730  0.10620  0.74510  Biso   1.000  H
  H38      1.0000 0.34820  0.04860  0.43840  Biso   1.000  H
  H39      1.0000 0.37230  0.16960  0.39520  Biso   1.000  H
  H40      1.0000 0.29430  0.01990  0.61220  Biso   1.000  H
  Zn5      1.0000 0.91542  0.96655  0.98146  Biso   1.000  Zn
  O25      1.0000 0.95805  0.95710  0.81846  Biso   1.000  O
  O26      1.0000 0.03304  0.05669  0.85673  Biso   1.000  O
  O27      1.0000 0.86490  0.88149  0.94802  Biso   1.000  O
  O28      1.0000 0.81384  0.92378  0.11390  Biso   1.000  O
  O29      1.0000 0.72236  0.93187  0.87000  Biso   1.000  O
  O30      1.0000 0.64978  0.90515  0.99860  Biso   1.000  O
  C61      1.0000 0.80991  0.74472  0.02960  Biso   1.000  C
  C62      1.0000 0.78479  0.81242  0.00730  Biso   1.000  C
  C63      1.0000 0.72404  0.81745  0.97550  Biso   1.000  C
  C64      1.0000 0.82325  0.87900  0.02570  Biso   1.000  C
  C65      1.0000 0.69499  0.88973  0.94960  Biso   1.000  C
  C66      1.0000 0.85010  0.08654  0.10030  Biso   1.000  C
  C67      1.0000 0.83289  0.15619  0.12140  Biso   1.000  C
  C68      1.0000 0.84535  0.21079  0.03040  Biso   1.000  C
  C69      1.0000 0.87399  0.19007  0.91700  Biso   1.000  C
  C70      1.0000 0.89012  0.11863  0.90140  Biso   1.000  C
  C71      1.0000 0.82966  0.28750  0.05220  Biso   1.000  C
  C72      1.0000 0.79440  0.30866  0.15220  Biso   1.000  C
  C73      1.0000 0.78189  0.38077  0.17250  Biso   1.000  C
  C74      1.0000 0.83500  0.41300  0.99890  Biso   1.000  C
  C75      1.0000 0.84960  0.34211  0.97290  Biso   1.000  C
  N9       1.0000 0.87962  0.06712  0.99250  Biso   1.000  N
  N10      1.0000 0.80241  0.43223  0.09730  Biso   1.000  N
  H41      1.0000 0.85470  0.74180  0.05310  Biso   1.000  H
  H42      1.0000 0.84030  0.05000  0.16440  Biso   1.000  H
  H43      1.0000 0.81200  0.16740  0.20010  Biso   1.000  H
  H44      1.0000 0.88280  0.22560  0.84990  Biso   1.000  H
  H45      1.0000 0.91000  0.10510  0.82080  Biso   1.000  H
  H46      1.0000 0.77770  0.27210  0.20940  Biso   1.000  H
  H47      1.0000 0.75730  0.39380  0.24510  Biso   1.000  H
  H48      1.0000 0.84820  0.45140  0.93840  Biso   1.000  H
  H49      1.0000 0.87230  0.33040  0.89520  Biso   1.000  H
  H50      1.0000 0.79430  0.48010  0.11220  Biso   1.000  H
  Zn6      1.0000 0.41542  0.46655  0.98146  Biso   1.000  Zn
  O31      1.0000 0.45805  0.45710  0.81846  Biso   1.000  O
  O32      1.0000 0.53304  0.55669  0.85673  Biso   1.000  O
  O33      1.0000 0.36490  0.38149  0.94802  Biso   1.000  O
  O34      1.0000 0.31384  0.42378  0.11390  Biso   1.000  O
  O35      1.0000 0.22236  0.43187  0.87000  Biso   1.000  O
  O36      1.0000 0.14978  0.40515  0.99860  Biso   1.000  O
  C76      1.0000 0.30991  0.24472  0.02960  Biso   1.000  C
  C77      1.0000 0.28479  0.31242  0.00730  Biso   1.000  C
  C78      1.0000 0.22404  0.31745  0.97550  Biso   1.000  C
  C79      1.0000 0.32325  0.37900  0.02570  Biso   1.000  C
  C80      1.0000 0.19499  0.38973  0.94960  Biso   1.000  C
  C81      1.0000 0.35010  0.58654  0.10030  Biso   1.000  C
  C82      1.0000 0.33289  0.65619  0.12140  Biso   1.000  C
  C83      1.0000 0.34535  0.71079  0.03040  Biso   1.000  C
  C84      1.0000 0.37399  0.69007  0.91700  Biso   1.000  C
  C85      1.0000 0.39012  0.61863  0.90140  Biso   1.000  C
  C86      1.0000 0.32966  0.78750  0.05220  Biso   1.000  C
  C87      1.0000 0.29440  0.80866  0.15220  Biso   1.000  C
  C88      1.0000 0.28189  0.88077  0.17250  Biso   1.000  C
  C89      1.0000 0.33500  0.91300  0.99890  Biso   1.000  C
  C90      1.0000 0.34960  0.84211  0.97290  Biso   1.000  C
  N11      1.0000 0.37962  0.56712  0.99250  Biso   1.000  N
  N12      1.0000 0.30241  0.93223  0.09730  Biso   1.000  N
  H51      1.0000 0.35470  0.24180  0.05310  Biso   1.000  H
  H52      1.0000 0.34030  0.55000  0.16440  Biso   1.000  H
  H53      1.0000 0.31200  0.66740  0.20010  Biso   1.000  H
  H54      1.0000 0.38280  0.72560  0.84990  Biso   1.000  H
  H55      1.0000 0.41000  0.60510  0.82080  Biso   1.000  H
  H56      1.0000 0.27770  0.77210  0.20940  Biso   1.000  H
  H57      1.0000 0.25730  0.89380  0.24510  Biso   1.000  H
  H58      1.0000 0.34820  0.95140  0.93840  Biso   1.000  H
  H59      1.0000 0.37230  0.83040  0.89520  Biso   1.000  H
  H60      1.0000 0.29430  0.98010  0.11220  Biso   1.000  H
  Zn7      1.0000 0.08458  0.96655  0.51854  Biso   1.000  Zn
  O37      1.0000 0.04195  0.95710  0.68154  Biso   1.000  O
  O38      1.0000 0.96696  0.05669  0.64327  Biso   1.000  O
  O39      1.0000 0.13510  0.88149  0.55198  Biso   1.000  O
  O40      1.0000 0.18616  0.92378  0.38610  Biso   1.000  O
  O41      1.0000 0.27764  0.93187  0.63000  Biso   1.000  O
  O42      1.0000 0.35022  0.90515  0.50140  Biso   1.000  O
  C91      1.0000 0.19009  0.74472  0.47040  Biso   1.000  C
  C92      1.0000 0.21521  0.81242  0.49270  Biso   1.000  C
  C93      1.0000 0.27596  0.81745  0.52450  Biso   1.000  C
  C94      1.0000 0.17675  0.87900  0.47430  Biso   1.000  C
  C95      1.0000 0.30501  0.88973  0.55040  Biso   1.000  C
  C96      1.0000 0.14990  0.08654  0.39970  Biso   1.000  C
  C97      1.0000 0.16711  0.15619  0.37860  Biso   1.000  C
  C98      1.0000 0.15465  0.21079  0.46960  Biso   1.000  C
  C99      1.0000 0.12601  0.19007  0.58300  Biso   1.000  C
  C100     1.0000 0.10988  0.11863  0.59860  Biso   1.000  C
  C101     1.0000 0.17034  0.28750  0.44780  Biso   1.000  C
  C102     1.0000 0.20560  0.30866  0.34780  Biso   1.000  C
  C103     1.0000 0.21811  0.38077  0.32750  Biso   1.000  C
  C104     1.0000 0.16500  0.41300  0.50110  Biso   1.000  C
  C105     1.0000 0.15040  0.34211  0.52710  Biso   1.000  C
  N13      1.0000 0.12038  0.06712  0.50750  Biso   1.000  N
  N14      1.0000 0.19759  0.43223  0.40270  Biso   1.000  N
  H61      1.0000 0.14530  0.74180  0.44690  Biso   1.000  H
  H62      1.0000 0.15970  0.05000  0.33560  Biso   1.000  H
  H63      1.0000 0.18800  0.16740  0.29990  Biso   1.000  H
  H64      1.0000 0.11720  0.22560  0.65010  Biso   1.000  H
  H65      1.0000 0.09000  0.10510  0.67920  Biso   1.000  H
  H66      1.0000 0.22230  0.27210  0.29060  Biso   1.000  H
  H67      1.0000 0.24270  0.39380  0.25490  Biso   1.000  H
  H68      1.0000 0.15180  0.45140  0.56160  Biso   1.000  H
  H69      1.0000 0.12770  0.33040  0.60480  Biso   1.000  H
  H70      1.0000 0.20570  0.48010  0.38780  Biso   1.000  H
  Zn8      1.0000 0.58458  0.46655  0.51854  Biso   1.000  Zn
  O43      1.0000 0.54195  0.45710  0.68154  Biso   1.000  O
  O44      1.0000 0.46696  0.55669  0.64327  Biso   1.000  O
  O45      1.0000 0.63510  0.38149  0.55198  Biso   1.000  O
  O46      1.0000 0.68616  0.42378  0.38610  Biso   1.000  O
  O47      1.0000 0.77764  0.43187  0.63000  Biso   1.000  O
  O48      1.0000 0.85022  0.40515  0.50140  Biso   1.000  O
  C106     1.0000 0.69009  0.24472  0.47040  Biso   1.000  C
  C107     1.0000 0.71521  0.31242  0.49270  Biso   1.000  C
  C108     1.0000 0.77596  0.31745  0.52450  Biso   1.000  C
  C109     1.0000 0.67675  0.37900  0.47430  Biso   1.000  C
  C110     1.0000 0.80501  0.38973  0.55040  Biso   1.000  C
  C111     1.0000 0.64990  0.58654  0.39970  Biso   1.000  C
  C112     1.0000 0.66711  0.65619  0.37860  Biso   1.000  C
  C113     1.0000 0.65465  0.71079  0.46960  Biso   1.000  C
  C114     1.0000 0.62601  0.69007  0.58300  Biso   1.000  C
  C115     1.0000 0.60988  0.61863  0.59860  Biso   1.000  C
  C116     1.0000 0.67034  0.78750  0.44780  Biso   1.000  C
  C117     1.0000 0.70560  0.80866  0.34780  Biso   1.000  C
  C118     1.0000 0.71811  0.88077  0.32750  Biso   1.000  C
  C119     1.0000 0.66500  0.91300  0.50110  Biso   1.000  C
  C120     1.0000 0.65040  0.84211  0.52710  Biso   1.000  C
  N15      1.0000 0.62038  0.56712  0.50750  Biso   1.000  N
  N16      1.0000 0.69759  0.93223  0.40270  Biso   1.000  N
  H71      1.0000 0.64530  0.24180  0.44690  Biso   1.000  H
  H72      1.0000 0.65970  0.55000  0.33560  Biso   1.000  H
  H73      1.0000 0.68800  0.66740  0.29990  Biso   1.000  H
  H74      1.0000 0.61720  0.72560  0.65010  Biso   1.000  H
  H75      1.0000 0.59000  0.60510  0.67920  Biso   1.000  H
  H76      1.0000 0.72230  0.77210  0.29060  Biso   1.000  H
  H77      1.0000 0.74270  0.89380  0.25490  Biso   1.000  H
  H78      1.0000 0.65180  0.95140  0.56160  Biso   1.000  H
  H79      1.0000 0.62770  0.83040  0.60480  Biso   1.000  H
  H80      1.0000 0.70570  0.98010  0.38780  Biso   1.000  H
  P1       1.0000 0.00000  0.99243  0.25000  Biso   1.000  P
  P2       1.0000 0.50000  0.49243  0.25000  Biso   1.000  P
  P3       1.0000 0.00000  0.00757  0.75000  Biso   1.000  P
  P4       1.0000 0.50000  0.50757  0.75000  Biso   1.000  P
