data_image0
_cell_length_a       32.599
_cell_length_b       8.8449
_cell_length_c       34.246
_cell_angle_alpha    90
_cell_angle_beta     116.457
_cell_angle_gamma    90

_symmetry_space_group_name_H-M    "P 1"
_symmetry_int_tables_number       1

loop_
  _symmetry_equiv_pos_as_xyz
  'x, y, z'

loop_
  _atom_site_label
  _atom_site_occupancy
  _atom_site_fract_x
  _atom_site_fract_y
  _atom_site_fract_z
  _atom_site_thermal_displace_type
  _atom_site_B_iso_or_equiv
  _atom_site_type_symbol
  Sm1      1.0000 0.49338  0.87809  0.11836  Biso   1.000  Sm
  C1       1.0000 0.88943  0.64800  0.47635  Biso   1.000  C
  C2       1.0000 0.58010  0.71820  0.24924  Biso   1.000  C
  C3       1.0000 0.81170  0.89120  0.33292  Biso   1.000  C
  H1       1.0000 0.80000  0.80310  0.31440  Biso   1.000  H
  H2       1.0000 0.84080  0.91870  0.33370  Biso   1.000  H
  C4       1.0000 0.57600  0.77510  0.28478  Biso   1.000  C
  H3       1.0000 0.55470  0.84970  0.28170  Biso   1.000  H
  C5       1.0000 0.61096  0.60210  0.25313  Biso   1.000  C
  H4       1.0000 0.61190  0.56250  0.22840  Biso   1.000  H
  C6       1.0000 0.68260  0.38430  0.26568  Biso   1.000  C
  H5       1.0000 0.69590  0.46760  0.25670  Biso   1.000  H
  H6       1.0000 0.65530  0.35100  0.24050  Biso   1.000  H
  C7       1.0000 0.71630  0.25680  0.28240  Biso   1.000  C
  C8       1.0000 0.76350  0.28890  0.30380  Biso   1.000  C
  C9       1.0000 0.77820  0.02110  0.31489  Biso   1.000  C
  C10      1.0000 0.70040  0.10430  0.27876  Biso   1.000  C
  N1       1.0000 0.67064  0.43450  0.29975  Biso   1.000  N
  H7       1.0000 0.68360  0.39110  0.32480  Biso   1.000  H
  C11      1.0000 0.85010  0.75740  0.40400  Biso   1.000  C
  C12      1.0000 0.85630  0.74330  0.44690  Biso   1.000  C
  H8       1.0000 0.83790  0.79900  0.45590  Biso   1.000  H
  C13      1.0000 0.60520  0.71660  0.32570  Biso   1.000  C
  N2       1.0000 0.81766  0.85730  0.37626  Biso   1.000  N
  H9       1.0000 0.80010  0.90180  0.38540  Biso   1.000  H
  C14      1.0000 0.63990  0.54680  0.29390  Biso   1.000  C
  C15      1.0000 0.91780  0.56500  0.46308  Biso   1.000  C
  H10      1.0000 0.94090  0.50350  0.48280  Biso   1.000  H
  C16      1.0000 0.87770  0.67040  0.39113  Biso   1.000  C
  H11      1.0000 0.87360  0.67610  0.36250  Biso   1.000  H
  C17      1.0000 0.79470  0.16650  0.32060  Biso   1.000  C
  C18      1.0000 0.73170  0.99020  0.29530  Biso   1.000  C
  C19      1.0000 0.89570  0.63550  0.52180  Biso   1.000  C
  C20      1.0000 0.78050  0.44990  0.31130  Biso   1.000  C
  H12      1.0000 0.75560  0.51720  0.29510  Biso   1.000  H
  H13      1.0000 0.80400  0.46180  0.30190  Biso   1.000  H
  H14      1.0000 0.79280  0.47330  0.34190  Biso   1.000  H
  C21      1.0000 0.63640  0.60470  0.33015  Biso   1.000  C
  H15      1.0000 0.65540  0.56720  0.35780  Biso   1.000  H
  C22      1.0000 0.71420  0.83080  0.29170  Biso   1.000  C
  H16      1.0000 0.68640  0.83090  0.29490  Biso   1.000  H
  H17      1.0000 0.73680  0.76990  0.31420  Biso   1.000  H
  H18      1.0000 0.70820  0.79000  0.26370  Biso   1.000  H
  C23      1.0000 0.64910  0.07460  0.25810  Biso   1.000  C
  H19      1.0000 0.63860  0.04760  0.22800  Biso   1.000  H
  H20      1.0000 0.63340  0.16410  0.26000  Biso   1.000  H
  H21      1.0000 0.64280  0.99330  0.27320  Biso   1.000  H
  C24      1.0000 0.84590  0.20210  0.34490  Biso   1.000  C
  H22      1.0000 0.86110  0.12360  0.36570  Biso   1.000  H
  H23      1.0000 0.85010  0.29700  0.35980  Biso   1.000  H
  H24      1.0000 0.85850  0.20800  0.32440  Biso   1.000  H
  C25      1.0000 0.55034  0.77970  0.20400  Biso   1.000  C
  O1       1.0000 0.53003  0.90710  0.19979  Biso   1.000  O
  O2       1.0000 0.54556  0.70330  0.17131  Biso   1.000  O
  O3       1.0000 0.86433  0.70610  0.52807  Biso   1.000  O
  H25      1.0000 0.87360  0.72240  0.55420  Biso   1.000  H
  C26      1.0000 0.60120  0.76950  0.36580  Biso   1.000  C
  O4       1.0000 0.63494  0.74890  0.40216  Biso   1.000  O
  C27      1.0000 0.91090  0.57600  0.42032  Biso   1.000  C
  O5       1.0000 0.92816  0.56990  0.54989  Biso   1.000  O
  C28      1.0000 0.94080  0.48850  0.40530  Biso   1.000  C
  O6       1.0000 0.97213  0.40790  0.43189  Biso   1.000  O
  O7       1.0000 0.93365  0.49750  0.36640  Biso   1.000  O
  O8       1.0000 0.56481  0.82520  0.36111  Biso   1.000  O
  Sm2      1.0000 0.99338  0.37809  0.11836  Biso   1.000  Sm
  C29      1.0000 0.38943  0.14800  0.47635  Biso   1.000  C
  C30      1.0000 0.08010  0.21820  0.24924  Biso   1.000  C
  C31      1.0000 0.31170  0.39120  0.33292  Biso   1.000  C
  H26      1.0000 0.30000  0.30310  0.31440  Biso   1.000  H
  H27      1.0000 0.34080  0.41870  0.33370  Biso   1.000  H
  C32      1.0000 0.07600  0.27510  0.28478  Biso   1.000  C
  H28      1.0000 0.05470  0.34970  0.28170  Biso   1.000  H
  C33      1.0000 0.11096  0.10210  0.25313  Biso   1.000  C
  H29      1.0000 0.11190  0.06250  0.22840  Biso   1.000  H
  C34      1.0000 0.18260  0.88430  0.26568  Biso   1.000  C
  H30      1.0000 0.19590  0.96760  0.25670  Biso   1.000  H
  H31      1.0000 0.15530  0.85100  0.24050  Biso   1.000  H
  C35      1.0000 0.21630  0.75680  0.28240  Biso   1.000  C
  C36      1.0000 0.26350  0.78890  0.30380  Biso   1.000  C
  C37      1.0000 0.27820  0.52110  0.31489  Biso   1.000  C
  C38      1.0000 0.20040  0.60430  0.27876  Biso   1.000  C
  N3       1.0000 0.17064  0.93450  0.29975  Biso   1.000  N
  H32      1.0000 0.18360  0.89110  0.32480  Biso   1.000  H
  C39      1.0000 0.35010  0.25740  0.40400  Biso   1.000  C
  C40      1.0000 0.35630  0.24330  0.44690  Biso   1.000  C
  H33      1.0000 0.33790  0.29900  0.45590  Biso   1.000  H
  C41      1.0000 0.10520  0.21660  0.32570  Biso   1.000  C
  N4       1.0000 0.31766  0.35730  0.37626  Biso   1.000  N
  H34      1.0000 0.30010  0.40180  0.38540  Biso   1.000  H
  C42      1.0000 0.13990  0.04680  0.29390  Biso   1.000  C
  C43      1.0000 0.41780  0.06500  0.46308  Biso   1.000  C
  H35      1.0000 0.44090  0.00350  0.48280  Biso   1.000  H
  C44      1.0000 0.37770  0.17040  0.39113  Biso   1.000  C
  H36      1.0000 0.37360  0.17610  0.36250  Biso   1.000  H
  C45      1.0000 0.29470  0.66650  0.32060  Biso   1.000  C
  C46      1.0000 0.23170  0.49020  0.29530  Biso   1.000  C
  C47      1.0000 0.39570  0.13550  0.52180  Biso   1.000  C
  C48      1.0000 0.28050  0.94990  0.31130  Biso   1.000  C
  H37      1.0000 0.25560  0.01720  0.29510  Biso   1.000  H
  H38      1.0000 0.30400  0.96180  0.30190  Biso   1.000  H
  H39      1.0000 0.29280  0.97330  0.34190  Biso   1.000  H
  C49      1.0000 0.13640  0.10470  0.33015  Biso   1.000  C
  H40      1.0000 0.15540  0.06720  0.35780  Biso   1.000  H
  C50      1.0000 0.21420  0.33080  0.29170  Biso   1.000  C
  H41      1.0000 0.18640  0.33090  0.29490  Biso   1.000  H
  H42      1.0000 0.23680  0.26990  0.31420  Biso   1.000  H
  H43      1.0000 0.20820  0.29000  0.26370  Biso   1.000  H
  C51      1.0000 0.14910  0.57460  0.25810  Biso   1.000  C
  H44      1.0000 0.13860  0.54760  0.22800  Biso   1.000  H
  H45      1.0000 0.13340  0.66410  0.26000  Biso   1.000  H
  H46      1.0000 0.14280  0.49330  0.27320  Biso   1.000  H
  C52      1.0000 0.34590  0.70210  0.34490  Biso   1.000  C
  H47      1.0000 0.36110  0.62360  0.36570  Biso   1.000  H
  H48      1.0000 0.35010  0.79700  0.35980  Biso   1.000  H
  H49      1.0000 0.35850  0.70800  0.32440  Biso   1.000  H
  C53      1.0000 0.05034  0.27970  0.20400  Biso   1.000  C
  O9       1.0000 0.03003  0.40710  0.19979  Biso   1.000  O
  O10      1.0000 0.04556  0.20330  0.17131  Biso   1.000  O
  O11      1.0000 0.36433  0.20610  0.52807  Biso   1.000  O
  H50      1.0000 0.37360  0.22240  0.55420  Biso   1.000  H
  C54      1.0000 0.10120  0.26950  0.36580  Biso   1.000  C
  O12      1.0000 0.13494  0.24890  0.40216  Biso   1.000  O
  C55      1.0000 0.41090  0.07600  0.42032  Biso   1.000  C
  O13      1.0000 0.42816  0.06990  0.54989  Biso   1.000  O
  C56      1.0000 0.44080  0.98850  0.40530  Biso   1.000  C
  O14      1.0000 0.47213  0.90790  0.43189  Biso   1.000  O
  O15      1.0000 0.43365  0.99750  0.36640  Biso   1.000  O
  O16      1.0000 0.06481  0.32520  0.36111  Biso   1.000  O
  Sm3      1.0000 0.50662  0.87809  0.38164  Biso   1.000  Sm
  C57      1.0000 0.11057  0.64800  0.02365  Biso   1.000  C
  C58      1.0000 0.41990  0.71820  0.25076  Biso   1.000  C
  C59      1.0000 0.18830  0.89120  0.16708  Biso   1.000  C
  H51      1.0000 0.20000  0.80310  0.18560  Biso   1.000  H
  H52      1.0000 0.15920  0.91870  0.16630  Biso   1.000  H
  C60      1.0000 0.42400  0.77510  0.21522  Biso   1.000  C
  H53      1.0000 0.44530  0.84970  0.21830  Biso   1.000  H
  C61      1.0000 0.38904  0.60210  0.24687  Biso   1.000  C
  H54      1.0000 0.38810  0.56250  0.27160  Biso   1.000  H
  C62      1.0000 0.31740  0.38430  0.23432  Biso   1.000  C
  H55      1.0000 0.30410  0.46760  0.24330  Biso   1.000  H
  H56      1.0000 0.34470  0.35100  0.25950  Biso   1.000  H
  C63      1.0000 0.28370  0.25680  0.21760  Biso   1.000  C
  C64      1.0000 0.23650  0.28890  0.19620  Biso   1.000  C
  C65      1.0000 0.22180  0.02110  0.18511  Biso   1.000  C
  C66      1.0000 0.29960  0.10430  0.22124  Biso   1.000  C
  N5       1.0000 0.32936  0.43450  0.20025  Biso   1.000  N
  H57      1.0000 0.31640  0.39110  0.17520  Biso   1.000  H
  C67      1.0000 0.14990  0.75740  0.09600  Biso   1.000  C
  C68      1.0000 0.14370  0.74330  0.05310  Biso   1.000  C
  H58      1.0000 0.16210  0.79900  0.04410  Biso   1.000  H
  C69      1.0000 0.39480  0.71660  0.17430  Biso   1.000  C
  N6       1.0000 0.18234  0.85730  0.12374  Biso   1.000  N
  H59      1.0000 0.19990  0.90180  0.11460  Biso   1.000  H
  C70      1.0000 0.36010  0.54680  0.20610  Biso   1.000  C
  C71      1.0000 0.08220  0.56500  0.03692  Biso   1.000  C
  H60      1.0000 0.05910  0.50350  0.01720  Biso   1.000  H
  C72      1.0000 0.12230  0.67040  0.10887  Biso   1.000  C
  H61      1.0000 0.12640  0.67610  0.13750  Biso   1.000  H
  C73      1.0000 0.20530  0.16650  0.17940  Biso   1.000  C
  C74      1.0000 0.26830  0.99020  0.20470  Biso   1.000  C
  C75      1.0000 0.10430  0.63550  0.97820  Biso   1.000  C
  C76      1.0000 0.21950  0.44990  0.18870  Biso   1.000  C
  H62      1.0000 0.24440  0.51720  0.20490  Biso   1.000  H
  H63      1.0000 0.19600  0.46180  0.19810  Biso   1.000  H
  H64      1.0000 0.20720  0.47330  0.15810  Biso   1.000  H
  C77      1.0000 0.36360  0.60470  0.16985  Biso   1.000  C
  H65      1.0000 0.34460  0.56720  0.14220  Biso   1.000  H
  C78      1.0000 0.28580  0.83080  0.20830  Biso   1.000  C
  H66      1.0000 0.31360  0.83090  0.20510  Biso   1.000  H
  H67      1.0000 0.26320  0.76990  0.18580  Biso   1.000  H
  H68      1.0000 0.29180  0.79000  0.23630  Biso   1.000  H
  C79      1.0000 0.35090  0.07460  0.24190  Biso   1.000  C
  H69      1.0000 0.36140  0.04760  0.27200  Biso   1.000  H
  H70      1.0000 0.36660  0.16410  0.24000  Biso   1.000  H
  H71      1.0000 0.35720  0.99330  0.22680  Biso   1.000  H
  C80      1.0000 0.15410  0.20210  0.15510  Biso   1.000  C
  H72      1.0000 0.13890  0.12360  0.13430  Biso   1.000  H
  H73      1.0000 0.14990  0.29700  0.14020  Biso   1.000  H
  H74      1.0000 0.14150  0.20800  0.17560  Biso   1.000  H
  C81      1.0000 0.44966  0.77970  0.29600  Biso   1.000  C
  O17      1.0000 0.46997  0.90710  0.30021  Biso   1.000  O
  O18      1.0000 0.45444  0.70330  0.32869  Biso   1.000  O
  O19      1.0000 0.13567  0.70610  0.97193  Biso   1.000  O
  H75      1.0000 0.12640  0.72240  0.94580  Biso   1.000  H
  C82      1.0000 0.39880  0.76950  0.13420  Biso   1.000  C
  O20      1.0000 0.36506  0.74890  0.09784  Biso   1.000  O
  C83      1.0000 0.08910  0.57600  0.07968  Biso   1.000  C
  O21      1.0000 0.07184  0.56990  0.95011  Biso   1.000  O
  C84      1.0000 0.05920  0.48850  0.09470  Biso   1.000  C
  O22      1.0000 0.02787  0.40790  0.06811  Biso   1.000  O
  O23      1.0000 0.06635  0.49750  0.13360  Biso   1.000  O
  O24      1.0000 0.43519  0.82520  0.13889  Biso   1.000  O
  Sm4      1.0000 0.00662  0.37809  0.38164  Biso   1.000  Sm
  C85      1.0000 0.61057  0.14800  0.02365  Biso   1.000  C
  C86      1.0000 0.91990  0.21820  0.25076  Biso   1.000  C
  C87      1.0000 0.68830  0.39120  0.16708  Biso   1.000  C
  H76      1.0000 0.70000  0.30310  0.18560  Biso   1.000  H
  H77      1.0000 0.65920  0.41870  0.16630  Biso   1.000  H
  C88      1.0000 0.92400  0.27510  0.21522  Biso   1.000  C
  H78      1.0000 0.94530  0.34970  0.21830  Biso   1.000  H
  C89      1.0000 0.88904  0.10210  0.24687  Biso   1.000  C
  H79      1.0000 0.88810  0.06250  0.27160  Biso   1.000  H
  C90      1.0000 0.81740  0.88430  0.23432  Biso   1.000  C
  H80      1.0000 0.80410  0.96760  0.24330  Biso   1.000  H
  H81      1.0000 0.84470  0.85100  0.25950  Biso   1.000  H
  C91      1.0000 0.78370  0.75680  0.21760  Biso   1.000  C
  C92      1.0000 0.73650  0.78890  0.19620  Biso   1.000  C
  C93      1.0000 0.72180  0.52110  0.18511  Biso   1.000  C
  C94      1.0000 0.79960  0.60430  0.22124  Biso   1.000  C
  N7       1.0000 0.82936  0.93450  0.20025  Biso   1.000  N
  H82      1.0000 0.81640  0.89110  0.17520  Biso   1.000  H
  C95      1.0000 0.64990  0.25740  0.09600  Biso   1.000  C
  C96      1.0000 0.64370  0.24330  0.05310  Biso   1.000  C
  H83      1.0000 0.66210  0.29900  0.04410  Biso   1.000  H
  C97      1.0000 0.89480  0.21660  0.17430  Biso   1.000  C
  N8       1.0000 0.68234  0.35730  0.12374  Biso   1.000  N
  H84      1.0000 0.69990  0.40180  0.11460  Biso   1.000  H
  C98      1.0000 0.86010  0.04680  0.20610  Biso   1.000  C
  C99      1.0000 0.58220  0.06500  0.03692  Biso   1.000  C
  H85      1.0000 0.55910  0.00350  0.01720  Biso   1.000  H
  C100     1.0000 0.62230  0.17040  0.10887  Biso   1.000  C
  H86      1.0000 0.62640  0.17610  0.13750  Biso   1.000  H
  C101     1.0000 0.70530  0.66650  0.17940  Biso   1.000  C
  C102     1.0000 0.76830  0.49020  0.20470  Biso   1.000  C
  C103     1.0000 0.60430  0.13550  0.97820  Biso   1.000  C
  C104     1.0000 0.71950  0.94990  0.18870  Biso   1.000  C
  H87      1.0000 0.74440  0.01720  0.20490  Biso   1.000  H
  H88      1.0000 0.69600  0.96180  0.19810  Biso   1.000  H
  H89      1.0000 0.70720  0.97330  0.15810  Biso   1.000  H
  C105     1.0000 0.86360  0.10470  0.16985  Biso   1.000  C
  H90      1.0000 0.84460  0.06720  0.14220  Biso   1.000  H
  C106     1.0000 0.78580  0.33080  0.20830  Biso   1.000  C
  H91      1.0000 0.81360  0.33090  0.20510  Biso   1.000  H
  H92      1.0000 0.76320  0.26990  0.18580  Biso   1.000  H
  H93      1.0000 0.79180  0.29000  0.23630  Biso   1.000  H
  C107     1.0000 0.85090  0.57460  0.24190  Biso   1.000  C
  H94      1.0000 0.86140  0.54760  0.27200  Biso   1.000  H
  H95      1.0000 0.86660  0.66410  0.24000  Biso   1.000  H
  H96      1.0000 0.85720  0.49330  0.22680  Biso   1.000  H
  C108     1.0000 0.65410  0.70210  0.15510  Biso   1.000  C
  H97      1.0000 0.63890  0.62360  0.13430  Biso   1.000  H
  H98      1.0000 0.64990  0.79700  0.14020  Biso   1.000  H
  H99      1.0000 0.64150  0.70800  0.17560  Biso   1.000  H
  C109     1.0000 0.94966  0.27970  0.29600  Biso   1.000  C
  O25      1.0000 0.96997  0.40710  0.30021  Biso   1.000  O
  O26      1.0000 0.95444  0.20330  0.32869  Biso   1.000  O
  O27      1.0000 0.63567  0.20610  0.97193  Biso   1.000  O
  H100     1.0000 0.62640  0.22240  0.94580  Biso   1.000  H
  C110     1.0000 0.89880  0.26950  0.13420  Biso   1.000  C
  O28      1.0000 0.86506  0.24890  0.09784  Biso   1.000  O
  C111     1.0000 0.58910  0.07600  0.07968  Biso   1.000  C
  O29      1.0000 0.57184  0.06990  0.95011  Biso   1.000  O
  C112     1.0000 0.55920  0.98850  0.09470  Biso   1.000  C
  O30      1.0000 0.52787  0.90790  0.06811  Biso   1.000  O
  O31      1.0000 0.56635  0.99750  0.13360  Biso   1.000  O
  O32      1.0000 0.93519  0.32520  0.13889  Biso   1.000  O
  Sm5      1.0000 0.50662  0.12191  0.88164  Biso   1.000  Sm
  C113     1.0000 0.11057  0.35200  0.52365  Biso   1.000  C
  C114     1.0000 0.41990  0.28180  0.75076  Biso   1.000  C
  C115     1.0000 0.18830  0.10880  0.66708  Biso   1.000  C
  H101     1.0000 0.20000  0.19690  0.68560  Biso   1.000  H
  H102     1.0000 0.15920  0.08130  0.66630  Biso   1.000  H
  C116     1.0000 0.42400  0.22490  0.71522  Biso   1.000  C
  H103     1.0000 0.44530  0.15030  0.71830  Biso   1.000  H
  C117     1.0000 0.38904  0.39790  0.74687  Biso   1.000  C
  H104     1.0000 0.38810  0.43750  0.77160  Biso   1.000  H
  C118     1.0000 0.31740  0.61570  0.73432  Biso   1.000  C
  H105     1.0000 0.30410  0.53240  0.74330  Biso   1.000  H
  H106     1.0000 0.34470  0.64900  0.75950  Biso   1.000  H
  C119     1.0000 0.28370  0.74320  0.71760  Biso   1.000  C
  C120     1.0000 0.23650  0.71110  0.69620  Biso   1.000  C
  C121     1.0000 0.22180  0.97890  0.68511  Biso   1.000  C
  C122     1.0000 0.29960  0.89570  0.72124  Biso   1.000  C
  N9       1.0000 0.32936  0.56550  0.70025  Biso   1.000  N
  H107     1.0000 0.31640  0.60890  0.67520  Biso   1.000  H
  C123     1.0000 0.14990  0.24260  0.59600  Biso   1.000  C
  C124     1.0000 0.14370  0.25670  0.55310  Biso   1.000  C
  H108     1.0000 0.16210  0.20100  0.54410  Biso   1.000  H
  C125     1.0000 0.39480  0.28340  0.67430  Biso   1.000  C
  N10      1.0000 0.18234  0.14270  0.62374  Biso   1.000  N
  H109     1.0000 0.19990  0.09820  0.61460  Biso   1.000  H
  C126     1.0000 0.36010  0.45320  0.70610  Biso   1.000  C
  C127     1.0000 0.08220  0.43500  0.53692  Biso   1.000  C
  H110     1.0000 0.05910  0.49650  0.51720  Biso   1.000  H
  C128     1.0000 0.12230  0.32960  0.60887  Biso   1.000  C
  H111     1.0000 0.12640  0.32390  0.63750  Biso   1.000  H
  C129     1.0000 0.20530  0.83350  0.67940  Biso   1.000  C
  C130     1.0000 0.26830  0.00980  0.70470  Biso   1.000  C
  C131     1.0000 0.10430  0.36450  0.47820  Biso   1.000  C
  C132     1.0000 0.21950  0.55010  0.68870  Biso   1.000  C
  H112     1.0000 0.24440  0.48280  0.70490  Biso   1.000  H
  H113     1.0000 0.19600  0.53820  0.69810  Biso   1.000  H
  H114     1.0000 0.20720  0.52670  0.65810  Biso   1.000  H
  C133     1.0000 0.36360  0.39530  0.66985  Biso   1.000  C
  H115     1.0000 0.34460  0.43280  0.64220  Biso   1.000  H
  C134     1.0000 0.28580  0.16920  0.70830  Biso   1.000  C
  H116     1.0000 0.31360  0.16910  0.70510  Biso   1.000  H
  H117     1.0000 0.26320  0.23010  0.68580  Biso   1.000  H
  H118     1.0000 0.29180  0.21000  0.73630  Biso   1.000  H
  C135     1.0000 0.35090  0.92540  0.74190  Biso   1.000  C
  H119     1.0000 0.36140  0.95240  0.77200  Biso   1.000  H
  H120     1.0000 0.36660  0.83590  0.74000  Biso   1.000  H
  H121     1.0000 0.35720  0.00670  0.72680  Biso   1.000  H
  C136     1.0000 0.15410  0.79790  0.65510  Biso   1.000  C
  H122     1.0000 0.13890  0.87640  0.63430  Biso   1.000  H
  H123     1.0000 0.14990  0.70300  0.64020  Biso   1.000  H
  H124     1.0000 0.14150  0.79200  0.67560  Biso   1.000  H
  C137     1.0000 0.44966  0.22030  0.79600  Biso   1.000  C
  O33      1.0000 0.46997  0.09290  0.80021  Biso   1.000  O
  O34      1.0000 0.45444  0.29670  0.82869  Biso   1.000  O
  O35      1.0000 0.13567  0.29390  0.47193  Biso   1.000  O
  H125     1.0000 0.12640  0.27760  0.44580  Biso   1.000  H
  C138     1.0000 0.39880  0.23050  0.63420  Biso   1.000  C
  O36      1.0000 0.36506  0.25110  0.59784  Biso   1.000  O
  C139     1.0000 0.08910  0.42400  0.57968  Biso   1.000  C
  O37      1.0000 0.07184  0.43010  0.45011  Biso   1.000  O
  C140     1.0000 0.05920  0.51150  0.59470  Biso   1.000  C
  O38      1.0000 0.02787  0.59210  0.56811  Biso   1.000  O
  O39      1.0000 0.06635  0.50250  0.63360  Biso   1.000  O
  O40      1.0000 0.43519  0.17480  0.63889  Biso   1.000  O
  Sm6      1.0000 0.00662  0.62191  0.88164  Biso   1.000  Sm
  C141     1.0000 0.61057  0.85200  0.52365  Biso   1.000  C
  C142     1.0000 0.91990  0.78180  0.75076  Biso   1.000  C
  C143     1.0000 0.68830  0.60880  0.66708  Biso   1.000  C
  H126     1.0000 0.70000  0.69690  0.68560  Biso   1.000  H
  H127     1.0000 0.65920  0.58130  0.66630  Biso   1.000  H
  C144     1.0000 0.92400  0.72490  0.71522  Biso   1.000  C
  H128     1.0000 0.94530  0.65030  0.71830  Biso   1.000  H
  C145     1.0000 0.88904  0.89790  0.74687  Biso   1.000  C
  H129     1.0000 0.88810  0.93750  0.77160  Biso   1.000  H
  C146     1.0000 0.81740  0.11570  0.73432  Biso   1.000  C
  H130     1.0000 0.80410  0.03240  0.74330  Biso   1.000  H
  H131     1.0000 0.84470  0.14900  0.75950  Biso   1.000  H
  C147     1.0000 0.78370  0.24320  0.71760  Biso   1.000  C
  C148     1.0000 0.73650  0.21110  0.69620  Biso   1.000  C
  C149     1.0000 0.72180  0.47890  0.68511  Biso   1.000  C
  C150     1.0000 0.79960  0.39570  0.72124  Biso   1.000  C
  N11      1.0000 0.82936  0.06550  0.70025  Biso   1.000  N
  H132     1.0000 0.81640  0.10890  0.67520  Biso   1.000  H
  C151     1.0000 0.64990  0.74260  0.59600  Biso   1.000  C
  C152     1.0000 0.64370  0.75670  0.55310  Biso   1.000  C
  H133     1.0000 0.66210  0.70100  0.54410  Biso   1.000  H
  C153     1.0000 0.89480  0.78340  0.67430  Biso   1.000  C
  N12      1.0000 0.68234  0.64270  0.62374  Biso   1.000  N
  H134     1.0000 0.69990  0.59820  0.61460  Biso   1.000  H
  C154     1.0000 0.86010  0.95320  0.70610  Biso   1.000  C
  C155     1.0000 0.58220  0.93500  0.53692  Biso   1.000  C
  H135     1.0000 0.55910  0.99650  0.51720  Biso   1.000  H
  C156     1.0000 0.62230  0.82960  0.60887  Biso   1.000  C
  H136     1.0000 0.62640  0.82390  0.63750  Biso   1.000  H
  C157     1.0000 0.70530  0.33350  0.67940  Biso   1.000  C
  C158     1.0000 0.76830  0.50980  0.70470  Biso   1.000  C
  C159     1.0000 0.60430  0.86450  0.47820  Biso   1.000  C
  C160     1.0000 0.71950  0.05010  0.68870  Biso   1.000  C
  H137     1.0000 0.74440  0.98280  0.70490  Biso   1.000  H
  H138     1.0000 0.69600  0.03820  0.69810  Biso   1.000  H
  H139     1.0000 0.70720  0.02670  0.65810  Biso   1.000  H
  C161     1.0000 0.86360  0.89530  0.66985  Biso   1.000  C
  H140     1.0000 0.84460  0.93280  0.64220  Biso   1.000  H
  C162     1.0000 0.78580  0.66920  0.70830  Biso   1.000  C
  H141     1.0000 0.81360  0.66910  0.70510  Biso   1.000  H
  H142     1.0000 0.76320  0.73010  0.68580  Biso   1.000  H
  H143     1.0000 0.79180  0.71000  0.73630  Biso   1.000  H
  C163     1.0000 0.85090  0.42540  0.74190  Biso   1.000  C
  H144     1.0000 0.86140  0.45240  0.77200  Biso   1.000  H
  H145     1.0000 0.86660  0.33590  0.74000  Biso   1.000  H
  H146     1.0000 0.85720  0.50670  0.72680  Biso   1.000  H
  C164     1.0000 0.65410  0.29790  0.65510  Biso   1.000  C
  H147     1.0000 0.63890  0.37640  0.63430  Biso   1.000  H
  H148     1.0000 0.64990  0.20300  0.64020  Biso   1.000  H
  H149     1.0000 0.64150  0.29200  0.67560  Biso   1.000  H
  C165     1.0000 0.94966  0.72030  0.79600  Biso   1.000  C
  O41      1.0000 0.96997  0.59290  0.80021  Biso   1.000  O
  O42      1.0000 0.95444  0.79670  0.82869  Biso   1.000  O
  O43      1.0000 0.63567  0.79390  0.47193  Biso   1.000  O
  H150     1.0000 0.62640  0.77760  0.44580  Biso   1.000  H
  C166     1.0000 0.89880  0.73050  0.63420  Biso   1.000  C
  O44      1.0000 0.86506  0.75110  0.59784  Biso   1.000  O
  C167     1.0000 0.58910  0.92400  0.57968  Biso   1.000  C
  O45      1.0000 0.57184  0.93010  0.45011  Biso   1.000  O
  C168     1.0000 0.55920  0.01150  0.59470  Biso   1.000  C
  O46      1.0000 0.52787  0.09210  0.56811  Biso   1.000  O
  O47      1.0000 0.56635  0.00250  0.63360  Biso   1.000  O
  O48      1.0000 0.93519  0.67480  0.63889  Biso   1.000  O
  Sm7      1.0000 0.49338  0.12191  0.61836  Biso   1.000  Sm
  C169     1.0000 0.88943  0.35200  0.97635  Biso   1.000  C
  C170     1.0000 0.58010  0.28180  0.74924  Biso   1.000  C
  C171     1.0000 0.81170  0.10880  0.83292  Biso   1.000  C
  H151     1.0000 0.80000  0.19690  0.81440  Biso   1.000  H
  H152     1.0000 0.84080  0.08130  0.83370  Biso   1.000  H
  C172     1.0000 0.57600  0.22490  0.78478  Biso   1.000  C
  H153     1.0000 0.55470  0.15030  0.78170  Biso   1.000  H
  C173     1.0000 0.61096  0.39790  0.75313  Biso   1.000  C
  H154     1.0000 0.61190  0.43750  0.72840  Biso   1.000  H
  C174     1.0000 0.68260  0.61570  0.76568  Biso   1.000  C
  H155     1.0000 0.69590  0.53240  0.75670  Biso   1.000  H
  H156     1.0000 0.65530  0.64900  0.74050  Biso   1.000  H
  C175     1.0000 0.71630  0.74320  0.78240  Biso   1.000  C
  C176     1.0000 0.76350  0.71110  0.80380  Biso   1.000  C
  C177     1.0000 0.77820  0.97890  0.81489  Biso   1.000  C
  C178     1.0000 0.70040  0.89570  0.77876  Biso   1.000  C
  N13      1.0000 0.67064  0.56550  0.79975  Biso   1.000  N
  H157     1.0000 0.68360  0.60890  0.82480  Biso   1.000  H
  C179     1.0000 0.85010  0.24260  0.90400  Biso   1.000  C
  C180     1.0000 0.85630  0.25670  0.94690  Biso   1.000  C
  H158     1.0000 0.83790  0.20100  0.95590  Biso   1.000  H
  C181     1.0000 0.60520  0.28340  0.82570  Biso   1.000  C
  N14      1.0000 0.81766  0.14270  0.87626  Biso   1.000  N
  H159     1.0000 0.80010  0.09820  0.88540  Biso   1.000  H
  C182     1.0000 0.63990  0.45320  0.79390  Biso   1.000  C
  C183     1.0000 0.91780  0.43500  0.96308  Biso   1.000  C
  H160     1.0000 0.94090  0.49650  0.98280  Biso   1.000  H
  C184     1.0000 0.87770  0.32960  0.89113  Biso   1.000  C
  H161     1.0000 0.87360  0.32390  0.86250  Biso   1.000  H
  C185     1.0000 0.79470  0.83350  0.82060  Biso   1.000  C
  C186     1.0000 0.73170  0.00980  0.79530  Biso   1.000  C
  C187     1.0000 0.89570  0.36450  0.02180  Biso   1.000  C
  C188     1.0000 0.78050  0.55010  0.81130  Biso   1.000  C
  H162     1.0000 0.75560  0.48280  0.79510  Biso   1.000  H
  H163     1.0000 0.80400  0.53820  0.80190  Biso   1.000  H
  H164     1.0000 0.79280  0.52670  0.84190  Biso   1.000  H
  C189     1.0000 0.63640  0.39530  0.83015  Biso   1.000  C
  H165     1.0000 0.65540  0.43280  0.85780  Biso   1.000  H
  C190     1.0000 0.71420  0.16920  0.79170  Biso   1.000  C
  H166     1.0000 0.68640  0.16910  0.79490  Biso   1.000  H
  H167     1.0000 0.73680  0.23010  0.81420  Biso   1.000  H
  H168     1.0000 0.70820  0.21000  0.76370  Biso   1.000  H
  C191     1.0000 0.64910  0.92540  0.75810  Biso   1.000  C
  H169     1.0000 0.63860  0.95240  0.72800  Biso   1.000  H
  H170     1.0000 0.63340  0.83590  0.76000  Biso   1.000  H
  H171     1.0000 0.64280  0.00670  0.77320  Biso   1.000  H
  C192     1.0000 0.84590  0.79790  0.84490  Biso   1.000  C
  H172     1.0000 0.86110  0.87640  0.86570  Biso   1.000  H
  H173     1.0000 0.85010  0.70300  0.85980  Biso   1.000  H
  H174     1.0000 0.85850  0.79200  0.82440  Biso   1.000  H
  C193     1.0000 0.55034  0.22030  0.70400  Biso   1.000  C
  O49      1.0000 0.53003  0.09290  0.69979  Biso   1.000  O
  O50      1.0000 0.54556  0.29670  0.67131  Biso   1.000  O
  O51      1.0000 0.86433  0.29390  0.02807  Biso   1.000  O
  H175     1.0000 0.87360  0.27760  0.05420  Biso   1.000  H
  C194     1.0000 0.60120  0.23050  0.86580  Biso   1.000  C
  O52      1.0000 0.63494  0.25110  0.90216  Biso   1.000  O
  C195     1.0000 0.91090  0.42400  0.92032  Biso   1.000  C
  O53      1.0000 0.92816  0.43010  0.04989  Biso   1.000  O
  C196     1.0000 0.94080  0.51150  0.90530  Biso   1.000  C
  O54      1.0000 0.97213  0.59210  0.93189  Biso   1.000  O
  O55      1.0000 0.93365  0.50250  0.86640  Biso   1.000  O
  O56      1.0000 0.56481  0.17480  0.86111  Biso   1.000  O
  Sm8      1.0000 0.99338  0.62191  0.61836  Biso   1.000  Sm
  C197     1.0000 0.38943  0.85200  0.97635  Biso   1.000  C
  C198     1.0000 0.08010  0.78180  0.74924  Biso   1.000  C
  C199     1.0000 0.31170  0.60880  0.83292  Biso   1.000  C
  H176     1.0000 0.30000  0.69690  0.81440  Biso   1.000  H
  H177     1.0000 0.34080  0.58130  0.83370  Biso   1.000  H
  C200     1.0000 0.07600  0.72490  0.78478  Biso   1.000  C
  H178     1.0000 0.05470  0.65030  0.78170  Biso   1.000  H
  C201     1.0000 0.11096  0.89790  0.75313  Biso   1.000  C
  H179     1.0000 0.11190  0.93750  0.72840  Biso   1.000  H
  C202     1.0000 0.18260  0.11570  0.76568  Biso   1.000  C
  H180     1.0000 0.19590  0.03240  0.75670  Biso   1.000  H
  H181     1.0000 0.15530  0.14900  0.74050  Biso   1.000  H
  C203     1.0000 0.21630  0.24320  0.78240  Biso   1.000  C
  C204     1.0000 0.26350  0.21110  0.80380  Biso   1.000  C
  C205     1.0000 0.27820  0.47890  0.81489  Biso   1.000  C
  C206     1.0000 0.20040  0.39570  0.77876  Biso   1.000  C
  N15      1.0000 0.17064  0.06550  0.79975  Biso   1.000  N
  H182     1.0000 0.18360  0.10890  0.82480  Biso   1.000  H
  C207     1.0000 0.35010  0.74260  0.90400  Biso   1.000  C
  C208     1.0000 0.35630  0.75670  0.94690  Biso   1.000  C
  H183     1.0000 0.33790  0.70100  0.95590  Biso   1.000  H
  C209     1.0000 0.10520  0.78340  0.82570  Biso   1.000  C
  N16      1.0000 0.31766  0.64270  0.87626  Biso   1.000  N
  H184     1.0000 0.30010  0.59820  0.88540  Biso   1.000  H
  C210     1.0000 0.13990  0.95320  0.79390  Biso   1.000  C
  C211     1.0000 0.41780  0.93500  0.96308  Biso   1.000  C
  H185     1.0000 0.44090  0.99650  0.98280  Biso   1.000  H
  C212     1.0000 0.37770  0.82960  0.89113  Biso   1.000  C
  H186     1.0000 0.37360  0.82390  0.86250  Biso   1.000  H
  C213     1.0000 0.29470  0.33350  0.82060  Biso   1.000  C
  C214     1.0000 0.23170  0.50980  0.79530  Biso   1.000  C
  C215     1.0000 0.39570  0.86450  0.02180  Biso   1.000  C
  C216     1.0000 0.28050  0.05010  0.81130  Biso   1.000  C
  H187     1.0000 0.25560  0.98280  0.79510  Biso   1.000  H
  H188     1.0000 0.30400  0.03820  0.80190  Biso   1.000  H
  H189     1.0000 0.29280  0.02670  0.84190  Biso   1.000  H
  C217     1.0000 0.13640  0.89530  0.83015  Biso   1.000  C
  H190     1.0000 0.15540  0.93280  0.85780  Biso   1.000  H
  C218     1.0000 0.21420  0.66920  0.79170  Biso   1.000  C
  H191     1.0000 0.18640  0.66910  0.79490  Biso   1.000  H
  H192     1.0000 0.23680  0.73010  0.81420  Biso   1.000  H
  H193     1.0000 0.20820  0.71000  0.76370  Biso   1.000  H
  C219     1.0000 0.14910  0.42540  0.75810  Biso   1.000  C
  H194     1.0000 0.13860  0.45240  0.72800  Biso   1.000  H
  H195     1.0000 0.13340  0.33590  0.76000  Biso   1.000  H
  H196     1.0000 0.14280  0.50670  0.77320  Biso   1.000  H
  C220     1.0000 0.34590  0.29790  0.84490  Biso   1.000  C
  H197     1.0000 0.36110  0.37640  0.86570  Biso   1.000  H
  H198     1.0000 0.35010  0.20300  0.85980  Biso   1.000  H
  H199     1.0000 0.35850  0.29200  0.82440  Biso   1.000  H
  C221     1.0000 0.05034  0.72030  0.70400  Biso   1.000  C
  O57      1.0000 0.03003  0.59290  0.69979  Biso   1.000  O
  O58      1.0000 0.04556  0.79670  0.67131  Biso   1.000  O
  O59      1.0000 0.36433  0.79390  0.02807  Biso   1.000  O
  H200     1.0000 0.37360  0.77760  0.05420  Biso   1.000  H
  C222     1.0000 0.10120  0.73050  0.86580  Biso   1.000  C
  O60      1.0000 0.13494  0.75110  0.90216  Biso   1.000  O
  C223     1.0000 0.41090  0.92400  0.92032  Biso   1.000  C
  O61      1.0000 0.42816  0.93010  0.04989  Biso   1.000  O
  C224     1.0000 0.44080  0.01150  0.90530  Biso   1.000  C
  O62      1.0000 0.47213  0.09210  0.93189  Biso   1.000  O
  O63      1.0000 0.43365  0.00250  0.86640  Biso   1.000  O
  O64      1.0000 0.06481  0.67480  0.86111  Biso   1.000  O
