data_image0
_cell_length_a       10.4489
_cell_length_b       21.5552
_cell_length_c       38.344
_cell_angle_alpha    90
_cell_angle_beta     90
_cell_angle_gamma    90

_symmetry_space_group_name_H-M    "P 1"
_symmetry_int_tables_number       1

loop_
  _symmetry_equiv_pos_as_xyz
  'x, y, z'

loop_
  _atom_site_label
  _atom_site_occupancy
  _atom_site_fract_x
  _atom_site_fract_y
  _atom_site_fract_z
  _atom_site_thermal_displace_type
  _atom_site_B_iso_or_equiv
  _atom_site_type_symbol
  C1       1.0000 0.01690  0.62590  0.91030  Biso   1.000  C
  C2       1.0000 0.10350  0.64690  0.88700  Biso   1.000  C
  H1       1.0000 0.18970  0.63740  0.88990  Biso   1.000  H
  C3       1.0000 0.06370  0.68330  0.85820  Biso   1.000  C
  H2       1.0000 0.12330  0.69840  0.84230  Biso   1.000  H
  C4       1.0000 0.93580  0.69590  0.85410  Biso   1.000  C
  C5       1.0000 0.84980  0.67380  0.87830  Biso   1.000  C
  H3       1.0000 0.76320  0.68290  0.87600  Biso   1.000  H
  C6       1.0000 0.89100  0.63770  0.90650  Biso   1.000  C
  H4       1.0000 0.83220  0.62200  0.92240  Biso   1.000  H
  C7       1.0000 0.05950  0.58710  0.94110  Biso   1.000  C
  C8       1.0000 0.89080  0.73450  0.82480  Biso   1.000  C
  C9       1.0000 0.90550  0.79430  0.81960  Biso   1.000  C
  C10      1.0000 0.96520  0.84000  0.84280  Biso   1.000  C
  C11      1.0000 0.95800  0.83280  0.87900  Biso   1.000  C
  H5       1.0000 0.91500  0.79900  0.88850  Biso   1.000  H
  C12      1.0000 0.01470  0.87560  0.90050  Biso   1.000  C
  H6       1.0000 0.00740  0.87120  0.92460  Biso   1.000  H
  C13      1.0000 0.08070  0.92390  0.88740  Biso   1.000  C
  C14      1.0000 0.08840  0.93290  0.85150  Biso   1.000  C
  H7       1.0000 0.13170  0.96680  0.84220  Biso   1.000  H
  C15      1.0000 0.02980  0.88980  0.83000  Biso   1.000  C
  H8       1.0000 0.03460  0.89520  0.80600  Biso   1.000  H
  C16      1.0000 0.14520  0.96780  0.91240  Biso   1.000  C
  C17      1.0000 0.78050  0.75220  0.76470  Biso   1.000  C
  O1       1.0000 0.97730  0.56820  0.96180  Biso   1.000  O
  O2       1.0000 0.17590  0.57300  0.94400  Biso   1.000  O
  O3       1.0000 0.13530  0.96190  0.94380  Biso   1.000  O
  O4       1.0000 0.21090  0.01230  0.89610  Biso   1.000  O
  H9       1.0000 0.24520  0.03480  0.91060  Biso   1.000  H
  S1       1.0000 0.81080  0.69056  0.79271  Biso   1.000  S
  S2       1.0000 0.83810  0.82441  0.78074  Biso   1.000  S
  C18      1.0000 0.51690  0.12590  0.41030  Biso   1.000  C
  C19      1.0000 0.60350  0.14690  0.38700  Biso   1.000  C
  H10      1.0000 0.68970  0.13740  0.38990  Biso   1.000  H
  C20      1.0000 0.56370  0.18330  0.35820  Biso   1.000  C
  H11      1.0000 0.62330  0.19840  0.34230  Biso   1.000  H
  C21      1.0000 0.43580  0.19590  0.35410  Biso   1.000  C
  C22      1.0000 0.34980  0.17380  0.37830  Biso   1.000  C
  H12      1.0000 0.26320  0.18290  0.37600  Biso   1.000  H
  C23      1.0000 0.39100  0.13770  0.40650  Biso   1.000  C
  H13      1.0000 0.33220  0.12200  0.42240  Biso   1.000  H
  C24      1.0000 0.55950  0.08710  0.44110  Biso   1.000  C
  C25      1.0000 0.39080  0.23450  0.32480  Biso   1.000  C
  C26      1.0000 0.40550  0.29430  0.31960  Biso   1.000  C
  C27      1.0000 0.46520  0.34000  0.34280  Biso   1.000  C
  C28      1.0000 0.45800  0.33280  0.37900  Biso   1.000  C
  H14      1.0000 0.41500  0.29900  0.38850  Biso   1.000  H
  C29      1.0000 0.51470  0.37560  0.40050  Biso   1.000  C
  H15      1.0000 0.50740  0.37120  0.42460  Biso   1.000  H
  C30      1.0000 0.58070  0.42390  0.38740  Biso   1.000  C
  C31      1.0000 0.58840  0.43290  0.35150  Biso   1.000  C
  H16      1.0000 0.63170  0.46680  0.34220  Biso   1.000  H
  C32      1.0000 0.52980  0.38980  0.33000  Biso   1.000  C
  H17      1.0000 0.53460  0.39520  0.30600  Biso   1.000  H
  C33      1.0000 0.64520  0.46780  0.41240  Biso   1.000  C
  C34      1.0000 0.28050  0.25220  0.26470  Biso   1.000  C
  O5       1.0000 0.47730  0.06820  0.46180  Biso   1.000  O
  O6       1.0000 0.67590  0.07300  0.44400  Biso   1.000  O
  O7       1.0000 0.63530  0.46190  0.44380  Biso   1.000  O
  O8       1.0000 0.71090  0.51230  0.39610  Biso   1.000  O
  H18      1.0000 0.74520  0.53480  0.41060  Biso   1.000  H
  S3       1.0000 0.31080  0.19056  0.29271  Biso   1.000  S
  S4       1.0000 0.33810  0.32441  0.28074  Biso   1.000  S
  C35      1.0000 0.98310  0.37410  0.91030  Biso   1.000  C
  C36      1.0000 0.89650  0.35310  0.88700  Biso   1.000  C
  H19      1.0000 0.81030  0.36260  0.88990  Biso   1.000  H
  C37      1.0000 0.93630  0.31670  0.85820  Biso   1.000  C
  H20      1.0000 0.87670  0.30160  0.84230  Biso   1.000  H
  C38      1.0000 0.06420  0.30410  0.85410  Biso   1.000  C
  C39      1.0000 0.15020  0.32620  0.87830  Biso   1.000  C
  H21      1.0000 0.23680  0.31710  0.87600  Biso   1.000  H
  C40      1.0000 0.10900  0.36230  0.90650  Biso   1.000  C
  H22      1.0000 0.16780  0.37800  0.92240  Biso   1.000  H
  C41      1.0000 0.94050  0.41290  0.94110  Biso   1.000  C
  C42      1.0000 0.10920  0.26550  0.82480  Biso   1.000  C
  C43      1.0000 0.09450  0.20570  0.81960  Biso   1.000  C
  C44      1.0000 0.03480  0.16000  0.84280  Biso   1.000  C
  C45      1.0000 0.04200  0.16720  0.87900  Biso   1.000  C
  H23      1.0000 0.08500  0.20100  0.88850  Biso   1.000  H
  C46      1.0000 0.98530  0.12440  0.90050  Biso   1.000  C
  H24      1.0000 0.99260  0.12880  0.92460  Biso   1.000  H
  C47      1.0000 0.91930  0.07610  0.88740  Biso   1.000  C
  C48      1.0000 0.91160  0.06710  0.85150  Biso   1.000  C
  H25      1.0000 0.86830  0.03320  0.84220  Biso   1.000  H
  C49      1.0000 0.97020  0.11020  0.83000  Biso   1.000  C
  H26      1.0000 0.96540  0.10480  0.80600  Biso   1.000  H
  C50      1.0000 0.85480  0.03220  0.91240  Biso   1.000  C
  C51      1.0000 0.21950  0.24780  0.76470  Biso   1.000  C
  O9       1.0000 0.02270  0.43180  0.96180  Biso   1.000  O
  O10      1.0000 0.82410  0.42700  0.94400  Biso   1.000  O
  O11      1.0000 0.86470  0.03810  0.94380  Biso   1.000  O
  O12      1.0000 0.78910  0.98770  0.89610  Biso   1.000  O
  H27      1.0000 0.75480  0.96520  0.91060  Biso   1.000  H
  S5       1.0000 0.18920  0.30944  0.79271  Biso   1.000  S
  S6       1.0000 0.16190  0.17559  0.78074  Biso   1.000  S
  C52      1.0000 0.48310  0.87410  0.41030  Biso   1.000  C
  C53      1.0000 0.39650  0.85310  0.38700  Biso   1.000  C
  H28      1.0000 0.31030  0.86260  0.38990  Biso   1.000  H
  C54      1.0000 0.43630  0.81670  0.35820  Biso   1.000  C
  H29      1.0000 0.37670  0.80160  0.34230  Biso   1.000  H
  C55      1.0000 0.56420  0.80410  0.35410  Biso   1.000  C
  C56      1.0000 0.65020  0.82620  0.37830  Biso   1.000  C
  H30      1.0000 0.73680  0.81710  0.37600  Biso   1.000  H
  C57      1.0000 0.60900  0.86230  0.40650  Biso   1.000  C
  H31      1.0000 0.66780  0.87800  0.42240  Biso   1.000  H
  C58      1.0000 0.44050  0.91290  0.44110  Biso   1.000  C
  C59      1.0000 0.60920  0.76550  0.32480  Biso   1.000  C
  C60      1.0000 0.59450  0.70570  0.31960  Biso   1.000  C
  C61      1.0000 0.53480  0.66000  0.34280  Biso   1.000  C
  C62      1.0000 0.54200  0.66720  0.37900  Biso   1.000  C
  H32      1.0000 0.58500  0.70100  0.38850  Biso   1.000  H
  C63      1.0000 0.48530  0.62440  0.40050  Biso   1.000  C
  H33      1.0000 0.49260  0.62880  0.42460  Biso   1.000  H
  C64      1.0000 0.41930  0.57610  0.38740  Biso   1.000  C
  C65      1.0000 0.41160  0.56710  0.35150  Biso   1.000  C
  H34      1.0000 0.36830  0.53320  0.34220  Biso   1.000  H
  C66      1.0000 0.47020  0.61020  0.33000  Biso   1.000  C
  H35      1.0000 0.46540  0.60480  0.30600  Biso   1.000  H
  C67      1.0000 0.35480  0.53220  0.41240  Biso   1.000  C
  C68      1.0000 0.71950  0.74780  0.26470  Biso   1.000  C
  O13      1.0000 0.52270  0.93180  0.46180  Biso   1.000  O
  O14      1.0000 0.32410  0.92700  0.44400  Biso   1.000  O
  O15      1.0000 0.36470  0.53810  0.44380  Biso   1.000  O
  O16      1.0000 0.28910  0.48770  0.39610  Biso   1.000  O
  H36      1.0000 0.25480  0.46520  0.41060  Biso   1.000  H
  S7       1.0000 0.68920  0.80944  0.29271  Biso   1.000  S
  S8       1.0000 0.66190  0.67559  0.28074  Biso   1.000  S
  C69      1.0000 0.48310  0.12590  0.08970  Biso   1.000  C
  C70      1.0000 0.39650  0.14690  0.11300  Biso   1.000  C
  H37      1.0000 0.31030  0.13740  0.11010  Biso   1.000  H
  C71      1.0000 0.43630  0.18330  0.14180  Biso   1.000  C
  H38      1.0000 0.37670  0.19840  0.15770  Biso   1.000  H
  C72      1.0000 0.56420  0.19590  0.14590  Biso   1.000  C
  C73      1.0000 0.65020  0.17380  0.12170  Biso   1.000  C
  H39      1.0000 0.73680  0.18290  0.12400  Biso   1.000  H
  C74      1.0000 0.60900  0.13770  0.09350  Biso   1.000  C
  H40      1.0000 0.66780  0.12200  0.07760  Biso   1.000  H
  C75      1.0000 0.44050  0.08710  0.05890  Biso   1.000  C
  C76      1.0000 0.60920  0.23450  0.17520  Biso   1.000  C
  C77      1.0000 0.59450  0.29430  0.18040  Biso   1.000  C
  C78      1.0000 0.53480  0.34000  0.15720  Biso   1.000  C
  C79      1.0000 0.54200  0.33280  0.12100  Biso   1.000  C
  H41      1.0000 0.58500  0.29900  0.11150  Biso   1.000  H
  C80      1.0000 0.48530  0.37560  0.09950  Biso   1.000  C
  H42      1.0000 0.49260  0.37120  0.07540  Biso   1.000  H
  C81      1.0000 0.41930  0.42390  0.11260  Biso   1.000  C
  C82      1.0000 0.41160  0.43290  0.14850  Biso   1.000  C
  H43      1.0000 0.36830  0.46680  0.15780  Biso   1.000  H
  C83      1.0000 0.47020  0.38980  0.17000  Biso   1.000  C
  H44      1.0000 0.46540  0.39520  0.19400  Biso   1.000  H
  C84      1.0000 0.35480  0.46780  0.08760  Biso   1.000  C
  C85      1.0000 0.71950  0.25220  0.23530  Biso   1.000  C
  O17      1.0000 0.52270  0.06820  0.03820  Biso   1.000  O
  O18      1.0000 0.32410  0.07300  0.05600  Biso   1.000  O
  O19      1.0000 0.36470  0.46190  0.05620  Biso   1.000  O
  O20      1.0000 0.28910  0.51230  0.10390  Biso   1.000  O
  H45      1.0000 0.25480  0.53480  0.08940  Biso   1.000  H
  S9       1.0000 0.68920  0.19056  0.20729  Biso   1.000  S
  S10      1.0000 0.66190  0.32441  0.21926  Biso   1.000  S
  C86      1.0000 0.98310  0.62590  0.58970  Biso   1.000  C
  C87      1.0000 0.89650  0.64690  0.61300  Biso   1.000  C
  H46      1.0000 0.81030  0.63740  0.61010  Biso   1.000  H
  C88      1.0000 0.93630  0.68330  0.64180  Biso   1.000  C
  H47      1.0000 0.87670  0.69840  0.65770  Biso   1.000  H
  C89      1.0000 0.06420  0.69590  0.64590  Biso   1.000  C
  C90      1.0000 0.15020  0.67380  0.62170  Biso   1.000  C
  H48      1.0000 0.23680  0.68290  0.62400  Biso   1.000  H
  C91      1.0000 0.10900  0.63770  0.59350  Biso   1.000  C
  H49      1.0000 0.16780  0.62200  0.57760  Biso   1.000  H
  C92      1.0000 0.94050  0.58710  0.55890  Biso   1.000  C
  C93      1.0000 0.10920  0.73450  0.67520  Biso   1.000  C
  C94      1.0000 0.09450  0.79430  0.68040  Biso   1.000  C
  C95      1.0000 0.03480  0.84000  0.65720  Biso   1.000  C
  C96      1.0000 0.04200  0.83280  0.62100  Biso   1.000  C
  H50      1.0000 0.08500  0.79900  0.61150  Biso   1.000  H
  C97      1.0000 0.98530  0.87560  0.59950  Biso   1.000  C
  H51      1.0000 0.99260  0.87120  0.57540  Biso   1.000  H
  C98      1.0000 0.91930  0.92390  0.61260  Biso   1.000  C
  C99      1.0000 0.91160  0.93290  0.64850  Biso   1.000  C
  H52      1.0000 0.86830  0.96680  0.65780  Biso   1.000  H
  C100     1.0000 0.97020  0.88980  0.67000  Biso   1.000  C
  H53      1.0000 0.96540  0.89520  0.69400  Biso   1.000  H
  C101     1.0000 0.85480  0.96780  0.58760  Biso   1.000  C
  C102     1.0000 0.21950  0.75220  0.73530  Biso   1.000  C
  O21      1.0000 0.02270  0.56820  0.53820  Biso   1.000  O
  O22      1.0000 0.82410  0.57300  0.55600  Biso   1.000  O
  O23      1.0000 0.86470  0.96190  0.55620  Biso   1.000  O
  O24      1.0000 0.78910  0.01230  0.60390  Biso   1.000  O
  H54      1.0000 0.75480  0.03480  0.58940  Biso   1.000  H
  S11      1.0000 0.18920  0.69056  0.70729  Biso   1.000  S
  S12      1.0000 0.16190  0.82441  0.71926  Biso   1.000  S
  C103     1.0000 0.51690  0.87410  0.08970  Biso   1.000  C
  C104     1.0000 0.60350  0.85310  0.11300  Biso   1.000  C
  H55      1.0000 0.68970  0.86260  0.11010  Biso   1.000  H
  C105     1.0000 0.56370  0.81670  0.14180  Biso   1.000  C
  H56      1.0000 0.62330  0.80160  0.15770  Biso   1.000  H
  C106     1.0000 0.43580  0.80410  0.14590  Biso   1.000  C
  C107     1.0000 0.34980  0.82620  0.12170  Biso   1.000  C
  H57      1.0000 0.26320  0.81710  0.12400  Biso   1.000  H
  C108     1.0000 0.39100  0.86230  0.09350  Biso   1.000  C
  H58      1.0000 0.33220  0.87800  0.07760  Biso   1.000  H
  C109     1.0000 0.55950  0.91290  0.05890  Biso   1.000  C
  C110     1.0000 0.39080  0.76550  0.17520  Biso   1.000  C
  C111     1.0000 0.40550  0.70570  0.18040  Biso   1.000  C
  C112     1.0000 0.46520  0.66000  0.15720  Biso   1.000  C
  C113     1.0000 0.45800  0.66720  0.12100  Biso   1.000  C
  H59      1.0000 0.41500  0.70100  0.11150  Biso   1.000  H
  C114     1.0000 0.51470  0.62440  0.09950  Biso   1.000  C
  H60      1.0000 0.50740  0.62880  0.07540  Biso   1.000  H
  C115     1.0000 0.58070  0.57610  0.11260  Biso   1.000  C
  C116     1.0000 0.58840  0.56710  0.14850  Biso   1.000  C
  H61      1.0000 0.63170  0.53320  0.15780  Biso   1.000  H
  C117     1.0000 0.52980  0.61020  0.17000  Biso   1.000  C
  H62      1.0000 0.53460  0.60480  0.19400  Biso   1.000  H
  C118     1.0000 0.64520  0.53220  0.08760  Biso   1.000  C
  C119     1.0000 0.28050  0.74780  0.23530  Biso   1.000  C
  O25      1.0000 0.47730  0.93180  0.03820  Biso   1.000  O
  O26      1.0000 0.67590  0.92700  0.05600  Biso   1.000  O
  O27      1.0000 0.63530  0.53810  0.05620  Biso   1.000  O
  O28      1.0000 0.71090  0.48770  0.10390  Biso   1.000  O
  H63      1.0000 0.74520  0.46520  0.08940  Biso   1.000  H
  S13      1.0000 0.31080  0.80944  0.20729  Biso   1.000  S
  S14      1.0000 0.33810  0.67559  0.21926  Biso   1.000  S
  C120     1.0000 0.01690  0.37410  0.58970  Biso   1.000  C
  C121     1.0000 0.10350  0.35310  0.61300  Biso   1.000  C
  H64      1.0000 0.18970  0.36260  0.61010  Biso   1.000  H
  C122     1.0000 0.06370  0.31670  0.64180  Biso   1.000  C
  H65      1.0000 0.12330  0.30160  0.65770  Biso   1.000  H
  C123     1.0000 0.93580  0.30410  0.64590  Biso   1.000  C
  C124     1.0000 0.84980  0.32620  0.62170  Biso   1.000  C
  H66      1.0000 0.76320  0.31710  0.62400  Biso   1.000  H
  C125     1.0000 0.89100  0.36230  0.59350  Biso   1.000  C
  H67      1.0000 0.83220  0.37800  0.57760  Biso   1.000  H
  C126     1.0000 0.05950  0.41290  0.55890  Biso   1.000  C
  C127     1.0000 0.89080  0.26550  0.67520  Biso   1.000  C
  C128     1.0000 0.90550  0.20570  0.68040  Biso   1.000  C
  C129     1.0000 0.96520  0.16000  0.65720  Biso   1.000  C
  C130     1.0000 0.95800  0.16720  0.62100  Biso   1.000  C
  H68      1.0000 0.91500  0.20100  0.61150  Biso   1.000  H
  C131     1.0000 0.01470  0.12440  0.59950  Biso   1.000  C
  H69      1.0000 0.00740  0.12880  0.57540  Biso   1.000  H
  C132     1.0000 0.08070  0.07610  0.61260  Biso   1.000  C
  C133     1.0000 0.08840  0.06710  0.64850  Biso   1.000  C
  H70      1.0000 0.13170  0.03320  0.65780  Biso   1.000  H
  C134     1.0000 0.02980  0.11020  0.67000  Biso   1.000  C
  H71      1.0000 0.03460  0.10480  0.69400  Biso   1.000  H
  C135     1.0000 0.14520  0.03220  0.58760  Biso   1.000  C
  C136     1.0000 0.78050  0.24780  0.73530  Biso   1.000  C
  O29      1.0000 0.97730  0.43180  0.53820  Biso   1.000  O
  O30      1.0000 0.17590  0.42700  0.55600  Biso   1.000  O
  O31      1.0000 0.13530  0.03810  0.55620  Biso   1.000  O
  O32      1.0000 0.21090  0.98770  0.60390  Biso   1.000  O
  H72      1.0000 0.24520  0.96520  0.58940  Biso   1.000  H
  S15      1.0000 0.81080  0.30944  0.70729  Biso   1.000  S
  S16      1.0000 0.83810  0.17559  0.71926  Biso   1.000  S
  C137     1.0000 0.98310  0.37410  0.08970  Biso   1.000  C
  C138     1.0000 0.89650  0.35310  0.11300  Biso   1.000  C
  H73      1.0000 0.81030  0.36260  0.11010  Biso   1.000  H
  C139     1.0000 0.93630  0.31670  0.14180  Biso   1.000  C
  H74      1.0000 0.87670  0.30160  0.15770  Biso   1.000  H
  C140     1.0000 0.06420  0.30410  0.14590  Biso   1.000  C
  C141     1.0000 0.15020  0.32620  0.12170  Biso   1.000  C
  H75      1.0000 0.23680  0.31710  0.12400  Biso   1.000  H
  C142     1.0000 0.10900  0.36230  0.09350  Biso   1.000  C
  H76      1.0000 0.16780  0.37800  0.07760  Biso   1.000  H
  C143     1.0000 0.94050  0.41290  0.05890  Biso   1.000  C
  C144     1.0000 0.10920  0.26550  0.17520  Biso   1.000  C
  C145     1.0000 0.09450  0.20570  0.18040  Biso   1.000  C
  C146     1.0000 0.03480  0.16000  0.15720  Biso   1.000  C
  C147     1.0000 0.04200  0.16720  0.12100  Biso   1.000  C
  H77      1.0000 0.08500  0.20100  0.11150  Biso   1.000  H
  C148     1.0000 0.98530  0.12440  0.09950  Biso   1.000  C
  H78      1.0000 0.99260  0.12880  0.07540  Biso   1.000  H
  C149     1.0000 0.91930  0.07610  0.11260  Biso   1.000  C
  C150     1.0000 0.91160  0.06710  0.14850  Biso   1.000  C
  H79      1.0000 0.86830  0.03320  0.15780  Biso   1.000  H
  C151     1.0000 0.97020  0.11020  0.17000  Biso   1.000  C
  H80      1.0000 0.96540  0.10480  0.19400  Biso   1.000  H
  C152     1.0000 0.85480  0.03220  0.08760  Biso   1.000  C
  C153     1.0000 0.21950  0.24780  0.23530  Biso   1.000  C
  O33      1.0000 0.02270  0.43180  0.03820  Biso   1.000  O
  O34      1.0000 0.82410  0.42700  0.05600  Biso   1.000  O
  O35      1.0000 0.86470  0.03810  0.05620  Biso   1.000  O
  O36      1.0000 0.78910  0.98770  0.10390  Biso   1.000  O
  H81      1.0000 0.75480  0.96520  0.08940  Biso   1.000  H
  S17      1.0000 0.18920  0.30944  0.20729  Biso   1.000  S
  S18      1.0000 0.16190  0.17559  0.21926  Biso   1.000  S
  C154     1.0000 0.48310  0.87410  0.58970  Biso   1.000  C
  C155     1.0000 0.39650  0.85310  0.61300  Biso   1.000  C
  H82      1.0000 0.31030  0.86260  0.61010  Biso   1.000  H
  C156     1.0000 0.43630  0.81670  0.64180  Biso   1.000  C
  H83      1.0000 0.37670  0.80160  0.65770  Biso   1.000  H
  C157     1.0000 0.56420  0.80410  0.64590  Biso   1.000  C
  C158     1.0000 0.65020  0.82620  0.62170  Biso   1.000  C
  H84      1.0000 0.73680  0.81710  0.62400  Biso   1.000  H
  C159     1.0000 0.60900  0.86230  0.59350  Biso   1.000  C
  H85      1.0000 0.66780  0.87800  0.57760  Biso   1.000  H
  C160     1.0000 0.44050  0.91290  0.55890  Biso   1.000  C
  C161     1.0000 0.60920  0.76550  0.67520  Biso   1.000  C
  C162     1.0000 0.59450  0.70570  0.68040  Biso   1.000  C
  C163     1.0000 0.53480  0.66000  0.65720  Biso   1.000  C
  C164     1.0000 0.54200  0.66720  0.62100  Biso   1.000  C
  H86      1.0000 0.58500  0.70100  0.61150  Biso   1.000  H
  C165     1.0000 0.48530  0.62440  0.59950  Biso   1.000  C
  H87      1.0000 0.49260  0.62880  0.57540  Biso   1.000  H
  C166     1.0000 0.41930  0.57610  0.61260  Biso   1.000  C
  C167     1.0000 0.41160  0.56710  0.64850  Biso   1.000  C
  H88      1.0000 0.36830  0.53320  0.65780  Biso   1.000  H
  C168     1.0000 0.47020  0.61020  0.67000  Biso   1.000  C
  H89      1.0000 0.46540  0.60480  0.69400  Biso   1.000  H
  C169     1.0000 0.35480  0.53220  0.58760  Biso   1.000  C
  C170     1.0000 0.71950  0.74780  0.73530  Biso   1.000  C
  O37      1.0000 0.52270  0.93180  0.53820  Biso   1.000  O
  O38      1.0000 0.32410  0.92700  0.55600  Biso   1.000  O
  O39      1.0000 0.36470  0.53810  0.55620  Biso   1.000  O
  O40      1.0000 0.28910  0.48770  0.60390  Biso   1.000  O
  H90      1.0000 0.25480  0.46520  0.58940  Biso   1.000  H
  S19      1.0000 0.68920  0.80944  0.70729  Biso   1.000  S
  S20      1.0000 0.66190  0.67559  0.71926  Biso   1.000  S
  C171     1.0000 0.01690  0.62590  0.08970  Biso   1.000  C
  C172     1.0000 0.10350  0.64690  0.11300  Biso   1.000  C
  H91      1.0000 0.18970  0.63740  0.11010  Biso   1.000  H
  C173     1.0000 0.06370  0.68330  0.14180  Biso   1.000  C
  H92      1.0000 0.12330  0.69840  0.15770  Biso   1.000  H
  C174     1.0000 0.93580  0.69590  0.14590  Biso   1.000  C
  C175     1.0000 0.84980  0.67380  0.12170  Biso   1.000  C
  H93      1.0000 0.76320  0.68290  0.12400  Biso   1.000  H
  C176     1.0000 0.89100  0.63770  0.09350  Biso   1.000  C
  H94      1.0000 0.83220  0.62200  0.07760  Biso   1.000  H
  C177     1.0000 0.05950  0.58710  0.05890  Biso   1.000  C
  C178     1.0000 0.89080  0.73450  0.17520  Biso   1.000  C
  C179     1.0000 0.90550  0.79430  0.18040  Biso   1.000  C
  C180     1.0000 0.96520  0.84000  0.15720  Biso   1.000  C
  C181     1.0000 0.95800  0.83280  0.12100  Biso   1.000  C
  H95      1.0000 0.91500  0.79900  0.11150  Biso   1.000  H
  C182     1.0000 0.01470  0.87560  0.09950  Biso   1.000  C
  H96      1.0000 0.00740  0.87120  0.07540  Biso   1.000  H
  C183     1.0000 0.08070  0.92390  0.11260  Biso   1.000  C
  C184     1.0000 0.08840  0.93290  0.14850  Biso   1.000  C
  H97      1.0000 0.13170  0.96680  0.15780  Biso   1.000  H
  C185     1.0000 0.02980  0.88980  0.17000  Biso   1.000  C
  H98      1.0000 0.03460  0.89520  0.19400  Biso   1.000  H
  C186     1.0000 0.14520  0.96780  0.08760  Biso   1.000  C
  C187     1.0000 0.78050  0.75220  0.23530  Biso   1.000  C
  O41      1.0000 0.97730  0.56820  0.03820  Biso   1.000  O
  O42      1.0000 0.17590  0.57300  0.05600  Biso   1.000  O
  O43      1.0000 0.13530  0.96190  0.05620  Biso   1.000  O
  O44      1.0000 0.21090  0.01230  0.10390  Biso   1.000  O
  H99      1.0000 0.24520  0.03480  0.08940  Biso   1.000  H
  S21      1.0000 0.81080  0.69056  0.20729  Biso   1.000  S
  S22      1.0000 0.83810  0.82441  0.21926  Biso   1.000  S
  C188     1.0000 0.51690  0.12590  0.58970  Biso   1.000  C
  C189     1.0000 0.60350  0.14690  0.61300  Biso   1.000  C
  H100     1.0000 0.68970  0.13740  0.61010  Biso   1.000  H
  C190     1.0000 0.56370  0.18330  0.64180  Biso   1.000  C
  H101     1.0000 0.62330  0.19840  0.65770  Biso   1.000  H
  C191     1.0000 0.43580  0.19590  0.64590  Biso   1.000  C
  C192     1.0000 0.34980  0.17380  0.62170  Biso   1.000  C
  H102     1.0000 0.26320  0.18290  0.62400  Biso   1.000  H
  C193     1.0000 0.39100  0.13770  0.59350  Biso   1.000  C
  H103     1.0000 0.33220  0.12200  0.57760  Biso   1.000  H
  C194     1.0000 0.55950  0.08710  0.55890  Biso   1.000  C
  C195     1.0000 0.39080  0.23450  0.67520  Biso   1.000  C
  C196     1.0000 0.40550  0.29430  0.68040  Biso   1.000  C
  C197     1.0000 0.46520  0.34000  0.65720  Biso   1.000  C
  C198     1.0000 0.45800  0.33280  0.62100  Biso   1.000  C
  H104     1.0000 0.41500  0.29900  0.61150  Biso   1.000  H
  C199     1.0000 0.51470  0.37560  0.59950  Biso   1.000  C
  H105     1.0000 0.50740  0.37120  0.57540  Biso   1.000  H
  C200     1.0000 0.58070  0.42390  0.61260  Biso   1.000  C
  C201     1.0000 0.58840  0.43290  0.64850  Biso   1.000  C
  H106     1.0000 0.63170  0.46680  0.65780  Biso   1.000  H
  C202     1.0000 0.52980  0.38980  0.67000  Biso   1.000  C
  H107     1.0000 0.53460  0.39520  0.69400  Biso   1.000  H
  C203     1.0000 0.64520  0.46780  0.58760  Biso   1.000  C
  C204     1.0000 0.28050  0.25220  0.73530  Biso   1.000  C
  O45      1.0000 0.47730  0.06820  0.53820  Biso   1.000  O
  O46      1.0000 0.67590  0.07300  0.55600  Biso   1.000  O
  O47      1.0000 0.63530  0.46190  0.55620  Biso   1.000  O
  O48      1.0000 0.71090  0.51230  0.60390  Biso   1.000  O
  H108     1.0000 0.74520  0.53480  0.58940  Biso   1.000  H
  S23      1.0000 0.31080  0.19056  0.70729  Biso   1.000  S
  S24      1.0000 0.33810  0.32441  0.71926  Biso   1.000  S
  C205     1.0000 0.51690  0.87410  0.91030  Biso   1.000  C
  C206     1.0000 0.60350  0.85310  0.88700  Biso   1.000  C
  H109     1.0000 0.68970  0.86260  0.88990  Biso   1.000  H
  C207     1.0000 0.56370  0.81670  0.85820  Biso   1.000  C
  H110     1.0000 0.62330  0.80160  0.84230  Biso   1.000  H
  C208     1.0000 0.43580  0.80410  0.85410  Biso   1.000  C
  C209     1.0000 0.34980  0.82620  0.87830  Biso   1.000  C
  H111     1.0000 0.26320  0.81710  0.87600  Biso   1.000  H
  C210     1.0000 0.39100  0.86230  0.90650  Biso   1.000  C
  H112     1.0000 0.33220  0.87800  0.92240  Biso   1.000  H
  C211     1.0000 0.55950  0.91290  0.94110  Biso   1.000  C
  C212     1.0000 0.39080  0.76550  0.82480  Biso   1.000  C
  C213     1.0000 0.40550  0.70570  0.81960  Biso   1.000  C
  C214     1.0000 0.46520  0.66000  0.84280  Biso   1.000  C
  C215     1.0000 0.45800  0.66720  0.87900  Biso   1.000  C
  H113     1.0000 0.41500  0.70100  0.88850  Biso   1.000  H
  C216     1.0000 0.51470  0.62440  0.90050  Biso   1.000  C
  H114     1.0000 0.50740  0.62880  0.92460  Biso   1.000  H
  C217     1.0000 0.58070  0.57610  0.88740  Biso   1.000  C
  C218     1.0000 0.58840  0.56710  0.85150  Biso   1.000  C
  H115     1.0000 0.63170  0.53320  0.84220  Biso   1.000  H
  C219     1.0000 0.52980  0.61020  0.83000  Biso   1.000  C
  H116     1.0000 0.53460  0.60480  0.80600  Biso   1.000  H
  C220     1.0000 0.64520  0.53220  0.91240  Biso   1.000  C
  C221     1.0000 0.28050  0.74780  0.76470  Biso   1.000  C
  O49      1.0000 0.47730  0.93180  0.96180  Biso   1.000  O
  O50      1.0000 0.67590  0.92700  0.94400  Biso   1.000  O
  O51      1.0000 0.63530  0.53810  0.94380  Biso   1.000  O
  O52      1.0000 0.71090  0.48770  0.89610  Biso   1.000  O
  H117     1.0000 0.74520  0.46520  0.91060  Biso   1.000  H
  S25      1.0000 0.31080  0.80944  0.79271  Biso   1.000  S
  S26      1.0000 0.33810  0.67559  0.78074  Biso   1.000  S
  C222     1.0000 0.01690  0.37410  0.41030  Biso   1.000  C
  C223     1.0000 0.10350  0.35310  0.38700  Biso   1.000  C
  H118     1.0000 0.18970  0.36260  0.38990  Biso   1.000  H
  C224     1.0000 0.06370  0.31670  0.35820  Biso   1.000  C
  H119     1.0000 0.12330  0.30160  0.34230  Biso   1.000  H
  C225     1.0000 0.93580  0.30410  0.35410  Biso   1.000  C
  C226     1.0000 0.84980  0.32620  0.37830  Biso   1.000  C
  H120     1.0000 0.76320  0.31710  0.37600  Biso   1.000  H
  C227     1.0000 0.89100  0.36230  0.40650  Biso   1.000  C
  H121     1.0000 0.83220  0.37800  0.42240  Biso   1.000  H
  C228     1.0000 0.05950  0.41290  0.44110  Biso   1.000  C
  C229     1.0000 0.89080  0.26550  0.32480  Biso   1.000  C
  C230     1.0000 0.90550  0.20570  0.31960  Biso   1.000  C
  C231     1.0000 0.96520  0.16000  0.34280  Biso   1.000  C
  C232     1.0000 0.95800  0.16720  0.37900  Biso   1.000  C
  H122     1.0000 0.91500  0.20100  0.38850  Biso   1.000  H
  C233     1.0000 0.01470  0.12440  0.40050  Biso   1.000  C
  H123     1.0000 0.00740  0.12880  0.42460  Biso   1.000  H
  C234     1.0000 0.08070  0.07610  0.38740  Biso   1.000  C
  C235     1.0000 0.08840  0.06710  0.35150  Biso   1.000  C
  H124     1.0000 0.13170  0.03320  0.34220  Biso   1.000  H
  C236     1.0000 0.02980  0.11020  0.33000  Biso   1.000  C
  H125     1.0000 0.03460  0.10480  0.30600  Biso   1.000  H
  C237     1.0000 0.14520  0.03220  0.41240  Biso   1.000  C
  C238     1.0000 0.78050  0.24780  0.26470  Biso   1.000  C
  O53      1.0000 0.97730  0.43180  0.46180  Biso   1.000  O
  O54      1.0000 0.17590  0.42700  0.44400  Biso   1.000  O
  O55      1.0000 0.13530  0.03810  0.44380  Biso   1.000  O
  O56      1.0000 0.21090  0.98770  0.39610  Biso   1.000  O
  H126     1.0000 0.24520  0.96520  0.41060  Biso   1.000  H
  S27      1.0000 0.81080  0.30944  0.29271  Biso   1.000  S
  S28      1.0000 0.83810  0.17559  0.28074  Biso   1.000  S
  C239     1.0000 0.48310  0.12590  0.91030  Biso   1.000  C
  C240     1.0000 0.39650  0.14690  0.88700  Biso   1.000  C
  H127     1.0000 0.31030  0.13740  0.88990  Biso   1.000  H
  C241     1.0000 0.43630  0.18330  0.85820  Biso   1.000  C
  H128     1.0000 0.37670  0.19840  0.84230  Biso   1.000  H
  C242     1.0000 0.56420  0.19590  0.85410  Biso   1.000  C
  C243     1.0000 0.65020  0.17380  0.87830  Biso   1.000  C
  H129     1.0000 0.73680  0.18290  0.87600  Biso   1.000  H
  C244     1.0000 0.60900  0.13770  0.90650  Biso   1.000  C
  H130     1.0000 0.66780  0.12200  0.92240  Biso   1.000  H
  C245     1.0000 0.44050  0.08710  0.94110  Biso   1.000  C
  C246     1.0000 0.60920  0.23450  0.82480  Biso   1.000  C
  C247     1.0000 0.59450  0.29430  0.81960  Biso   1.000  C
  C248     1.0000 0.53480  0.34000  0.84280  Biso   1.000  C
  C249     1.0000 0.54200  0.33280  0.87900  Biso   1.000  C
  H131     1.0000 0.58500  0.29900  0.88850  Biso   1.000  H
  C250     1.0000 0.48530  0.37560  0.90050  Biso   1.000  C
  H132     1.0000 0.49260  0.37120  0.92460  Biso   1.000  H
  C251     1.0000 0.41930  0.42390  0.88740  Biso   1.000  C
  C252     1.0000 0.41160  0.43290  0.85150  Biso   1.000  C
  H133     1.0000 0.36830  0.46680  0.84220  Biso   1.000  H
  C253     1.0000 0.47020  0.38980  0.83000  Biso   1.000  C
  H134     1.0000 0.46540  0.39520  0.80600  Biso   1.000  H
  C254     1.0000 0.35480  0.46780  0.91240  Biso   1.000  C
  C255     1.0000 0.71950  0.25220  0.76470  Biso   1.000  C
  O57      1.0000 0.52270  0.06820  0.96180  Biso   1.000  O
  O58      1.0000 0.32410  0.07300  0.94400  Biso   1.000  O
  O59      1.0000 0.36470  0.46190  0.94380  Biso   1.000  O
  O60      1.0000 0.28910  0.51230  0.89610  Biso   1.000  O
  H135     1.0000 0.25480  0.53480  0.91060  Biso   1.000  H
  S29      1.0000 0.68920  0.19056  0.79271  Biso   1.000  S
  S30      1.0000 0.66190  0.32441  0.78074  Biso   1.000  S
  C256     1.0000 0.98310  0.62590  0.41030  Biso   1.000  C
  C257     1.0000 0.89650  0.64690  0.38700  Biso   1.000  C
  H136     1.0000 0.81030  0.63740  0.38990  Biso   1.000  H
  C258     1.0000 0.93630  0.68330  0.35820  Biso   1.000  C
  H137     1.0000 0.87670  0.69840  0.34230  Biso   1.000  H
  C259     1.0000 0.06420  0.69590  0.35410  Biso   1.000  C
  C260     1.0000 0.15020  0.67380  0.37830  Biso   1.000  C
  H138     1.0000 0.23680  0.68290  0.37600  Biso   1.000  H
  C261     1.0000 0.10900  0.63770  0.40650  Biso   1.000  C
  H139     1.0000 0.16780  0.62200  0.42240  Biso   1.000  H
  C262     1.0000 0.94050  0.58710  0.44110  Biso   1.000  C
  C263     1.0000 0.10920  0.73450  0.32480  Biso   1.000  C
  C264     1.0000 0.09450  0.79430  0.31960  Biso   1.000  C
  C265     1.0000 0.03480  0.84000  0.34280  Biso   1.000  C
  C266     1.0000 0.04200  0.83280  0.37900  Biso   1.000  C
  H140     1.0000 0.08500  0.79900  0.38850  Biso   1.000  H
  C267     1.0000 0.98530  0.87560  0.40050  Biso   1.000  C
  H141     1.0000 0.99260  0.87120  0.42460  Biso   1.000  H
  C268     1.0000 0.91930  0.92390  0.38740  Biso   1.000  C
  C269     1.0000 0.91160  0.93290  0.35150  Biso   1.000  C
  H142     1.0000 0.86830  0.96680  0.34220  Biso   1.000  H
  C270     1.0000 0.97020  0.88980  0.33000  Biso   1.000  C
  H143     1.0000 0.96540  0.89520  0.30600  Biso   1.000  H
  C271     1.0000 0.85480  0.96780  0.41240  Biso   1.000  C
  C272     1.0000 0.21950  0.75220  0.26470  Biso   1.000  C
  O61      1.0000 0.02270  0.56820  0.46180  Biso   1.000  O
  O62      1.0000 0.82410  0.57300  0.44400  Biso   1.000  O
  O63      1.0000 0.86470  0.96190  0.44380  Biso   1.000  O
  O64      1.0000 0.78910  0.01230  0.39610  Biso   1.000  O
  H144     1.0000 0.75480  0.03480  0.41060  Biso   1.000  H
  S31      1.0000 0.18920  0.69056  0.29271  Biso   1.000  S
  S32      1.0000 0.16190  0.82441  0.28074  Biso   1.000  S
  Ba1      1.0000 0.19843  0.49181  0.00000  Biso   1.000  Ba
  Ba2      1.0000 0.69843  0.99181  0.50000  Biso   1.000  Ba
  Ba3      1.0000 0.80157  0.50819  0.00000  Biso   1.000  Ba
  Ba4      1.0000 0.30157  0.00819  0.50000  Biso   1.000  Ba
  Ba5      1.0000 0.30157  0.99181  0.00000  Biso   1.000  Ba
  Ba6      1.0000 0.80157  0.49181  0.50000  Biso   1.000  Ba
  Ba7      1.0000 0.69843  0.00819  0.00000  Biso   1.000  Ba
  Ba8      1.0000 0.19843  0.50819  0.50000  Biso   1.000  Ba
