data_image0
_cell_length_a       16.7318
_cell_length_b       18.1105
_cell_length_c       16.4721
_cell_angle_alpha    90
_cell_angle_beta     110.618
_cell_angle_gamma    90

_symmetry_space_group_name_H-M    "P 1"
_symmetry_int_tables_number       1

loop_
  _symmetry_equiv_pos_as_xyz
  'x, y, z'

loop_
  _atom_site_label
  _atom_site_occupancy
  _atom_site_fract_x
  _atom_site_fract_y
  _atom_site_fract_z
  _atom_site_thermal_displace_type
  _atom_site_B_iso_or_equiv
  _atom_site_type_symbol
  Zn1      1.0000 0.18556  0.61050  0.12745  Biso   1.000  Zn
  Zn2      1.0000 0.30781  0.61736  0.36201  Biso   1.000  Zn
  C1       1.0000 0.07420  0.73973  0.27300  Biso   1.000  C
  C2       1.0000 0.10190  0.77346  0.35350  Biso   1.000  C
  H1       1.0000 0.15700  0.76500  0.39210  Biso   1.000  H
  C3       1.0000 0.04800  0.81968  0.37690  Biso   1.000  C
  C4       1.0000 0.96540  0.83114  0.31950  Biso   1.000  C
  H2       1.0000 0.92910  0.86210  0.33540  Biso   1.000  H
  C5       1.0000 0.93610  0.79706  0.23870  Biso   1.000  C
  C6       1.0000 0.99140  0.75168  0.21530  Biso   1.000  C
  H3       1.0000 0.97310  0.72920  0.16110  Biso   1.000  H
  C7       1.0000 0.84630  0.81024  0.18120  Biso   1.000  C
  C8       1.0000 0.81250  0.88030  0.17600  Biso   1.000  C
  H4       1.0000 0.84710  0.91870  0.20610  Biso   1.000  H
  C9       1.0000 0.72710  0.89450  0.12620  Biso   1.000  C
  C10      1.0000 0.67630  0.83760  0.08130  Biso   1.000  C
  H5       1.0000 0.61970  0.84650  0.04740  Biso   1.000  H
  C11      1.0000 0.70950  0.76690  0.08640  Biso   1.000  C
  C12      1.0000 0.79440  0.75380  0.13580  Biso   1.000  C
  H6       1.0000 0.81660  0.70640  0.13820  Biso   1.000  H
  C13      1.0000 0.13500  0.69131  0.25050  Biso   1.000  C
  C14      1.0000 0.07690  0.85737  0.46250  Biso   1.000  C
  C15      1.0000 0.69480  0.97070  0.12660  Biso   1.000  C
  C16      1.0000 0.65360  0.70390  0.04360  Biso   1.000  C
  C17      1.0000 0.23290  0.38530  0.11000  Biso   1.000  C
  C18      1.0000 0.18630  0.32421  0.07080  Biso   1.000  C
  H7       1.0000 0.13100  0.32970  0.03150  Biso   1.000  H
  C19      1.0000 0.22210  0.25437  0.09000  Biso   1.000  C
  C20      1.0000 0.30590  0.24728  0.14610  Biso   1.000  C
  H8       1.0000 0.33010  0.20050  0.15770  Biso   1.000  H
  C21      1.0000 0.35400  0.30763  0.18500  Biso   1.000  C
  C22      1.0000 0.31660  0.37693  0.16850  Biso   1.000  C
  H9       1.0000 0.34720  0.41810  0.19630  Biso   1.000  H
  C23      1.0000 0.44320  0.29600  0.24640  Biso   1.000  C
  C24      1.0000 0.49630  0.24554  0.22730  Biso   1.000  C
  H10      1.0000 0.47830  0.22190  0.17370  Biso   1.000  H
  C25      1.0000 0.57670  0.23008  0.28810  Biso   1.000  C
  C26      1.0000 0.60290  0.26429  0.36770  Biso   1.000  C
  H11      1.0000 0.65550  0.25230  0.40910  Biso   1.000  H
  C27      1.0000 0.55190  0.31627  0.38663  Biso   1.000  C
  C28      1.0000 0.47190  0.33244  0.32550  Biso   1.000  C
  H12      1.0000 0.43760  0.36790  0.33780  Biso   1.000  H
  C29      1.0000 0.19330  0.46050  0.09100  Biso   1.000  C
  C30      1.0000 0.17250  0.18620  0.05450  Biso   1.000  C
  C31      1.0000 0.63630  0.17820  0.26790  Biso   1.000  C
  C32      1.0000 0.58090  0.35326  0.47330  Biso   1.000  C
  O1       1.0000 0.11540  0.67073  0.17315  Biso   1.000  O
  O2       1.0000 0.20151  0.67451  0.31014  Biso   1.000  O
  O3       1.0000 0.15415  0.85034  0.50945  Biso   1.000  O
  O4       1.0000 0.02303  0.89189  0.48405  Biso   1.000  O
  O5       1.0000 0.74780  0.02259  0.14414  Biso   1.000  O
  O6       1.0000 0.61687  0.98172  0.11421  Biso   1.000  O
  O7       1.0000 0.57920  0.71780  0.99350  Biso   1.000  O
  O8       1.0000 0.68340  0.64009  0.06060  Biso   1.000  O
  H13      1.0000 0.65930  0.60460  0.02710  Biso   1.000  H
  O9       1.0000 0.12981  0.46903  0.02258  Biso   1.000  O
  O10      1.0000 0.22763  0.51054  0.14498  Biso   1.000  O
  O11      1.0000 0.09652  0.19874  0.99961  Biso   1.000  O
  H14      1.0000 0.07160  0.15830  0.97970  Biso   1.000  H
  O12      1.0000 0.20104  0.12474  0.07490  Biso   1.000  O
  O13      1.0000 0.61577  0.15616  0.19146  Biso   1.000  O
  O14      1.0000 0.70190  0.16067  0.32837  Biso   1.000  O
  O15      1.0000 0.65689  0.33995  0.52235  Biso   1.000  O
  O16      1.0000 0.53132  0.39331  0.49372  Biso   1.000  O
  Zn3      1.0000 0.81444  0.11050  0.37255  Biso   1.000  Zn
  Zn4      1.0000 0.69219  0.11736  0.13799  Biso   1.000  Zn
  C33      1.0000 0.92580  0.23973  0.22700  Biso   1.000  C
  C34      1.0000 0.89810  0.27346  0.14650  Biso   1.000  C
  H15      1.0000 0.84300  0.26500  0.10790  Biso   1.000  H
  C35      1.0000 0.95200  0.31968  0.12310  Biso   1.000  C
  C36      1.0000 0.03460  0.33114  0.18050  Biso   1.000  C
  H16      1.0000 0.07090  0.36210  0.16460  Biso   1.000  H
  C37      1.0000 0.06390  0.29706  0.26130  Biso   1.000  C
  C38      1.0000 0.00860  0.25168  0.28470  Biso   1.000  C
  H17      1.0000 0.02690  0.22920  0.33890  Biso   1.000  H
  C39      1.0000 0.15370  0.31024  0.31880  Biso   1.000  C
  C40      1.0000 0.18750  0.38030  0.32400  Biso   1.000  C
  H18      1.0000 0.15290  0.41870  0.29390  Biso   1.000  H
  C41      1.0000 0.27290  0.39450  0.37380  Biso   1.000  C
  C42      1.0000 0.32370  0.33760  0.41870  Biso   1.000  C
  H19      1.0000 0.38030  0.34650  0.45260  Biso   1.000  H
  C43      1.0000 0.29050  0.26690  0.41360  Biso   1.000  C
  C44      1.0000 0.20560  0.25380  0.36420  Biso   1.000  C
  H20      1.0000 0.18340  0.20640  0.36180  Biso   1.000  H
  C45      1.0000 0.86500  0.19131  0.24950  Biso   1.000  C
  C46      1.0000 0.92310  0.35737  0.03750  Biso   1.000  C
  C47      1.0000 0.30520  0.47070  0.37340  Biso   1.000  C
  C48      1.0000 0.34640  0.20390  0.45640  Biso   1.000  C
  C49      1.0000 0.76710  0.88530  0.39000  Biso   1.000  C
  C50      1.0000 0.81370  0.82421  0.42920  Biso   1.000  C
  H21      1.0000 0.86900  0.82970  0.46850  Biso   1.000  H
  C51      1.0000 0.77790  0.75437  0.41000  Biso   1.000  C
  C52      1.0000 0.69410  0.74728  0.35390  Biso   1.000  C
  H22      1.0000 0.66990  0.70050  0.34230  Biso   1.000  H
  C53      1.0000 0.64600  0.80763  0.31500  Biso   1.000  C
  C54      1.0000 0.68340  0.87693  0.33150  Biso   1.000  C
  H23      1.0000 0.65280  0.91810  0.30370  Biso   1.000  H
  C55      1.0000 0.55680  0.79600  0.25360  Biso   1.000  C
  C56      1.0000 0.50370  0.74554  0.27270  Biso   1.000  C
  H24      1.0000 0.52170  0.72190  0.32630  Biso   1.000  H
  C57      1.0000 0.42330  0.73008  0.21190  Biso   1.000  C
  C58      1.0000 0.39710  0.76429  0.13230  Biso   1.000  C
  H25      1.0000 0.34450  0.75230  0.09090  Biso   1.000  H
  C59      1.0000 0.44810  0.81627  0.11337  Biso   1.000  C
  C60      1.0000 0.52810  0.83244  0.17450  Biso   1.000  C
  H26      1.0000 0.56240  0.86790  0.16220  Biso   1.000  H
  C61      1.0000 0.80670  0.96050  0.40900  Biso   1.000  C
  C62      1.0000 0.82750  0.68620  0.44550  Biso   1.000  C
  C63      1.0000 0.36370  0.67820  0.23210  Biso   1.000  C
  C64      1.0000 0.41910  0.85326  0.02670  Biso   1.000  C
  O17      1.0000 0.88460  0.17073  0.32685  Biso   1.000  O
  O18      1.0000 0.79849  0.17451  0.18986  Biso   1.000  O
  O19      1.0000 0.84585  0.35034  0.99055  Biso   1.000  O
  O20      1.0000 0.97697  0.39189  0.01595  Biso   1.000  O
  O21      1.0000 0.25220  0.52259  0.35586  Biso   1.000  O
  O22      1.0000 0.38313  0.48172  0.38579  Biso   1.000  O
  O23      1.0000 0.42080  0.21780  0.50650  Biso   1.000  O
  O24      1.0000 0.31660  0.14009  0.43940  Biso   1.000  O
  H27      1.0000 0.34070  0.10460  0.47290  Biso   1.000  H
  O25      1.0000 0.87019  0.96903  0.47742  Biso   1.000  O
  O26      1.0000 0.77237  0.01054  0.35502  Biso   1.000  O
  O27      1.0000 0.90348  0.69874  0.50039  Biso   1.000  O
  H28      1.0000 0.92840  0.65830  0.52030  Biso   1.000  H
  O28      1.0000 0.79896  0.62474  0.42510  Biso   1.000  O
  O29      1.0000 0.38423  0.65616  0.30854  Biso   1.000  O
  O30      1.0000 0.29810  0.66067  0.17163  Biso   1.000  O
  O31      1.0000 0.34311  0.83995  0.97765  Biso   1.000  O
  O32      1.0000 0.46868  0.89331  0.00628  Biso   1.000  O
  Zn5      1.0000 0.81444  0.38950  0.87255  Biso   1.000  Zn
  Zn6      1.0000 0.69219  0.38264  0.63799  Biso   1.000  Zn
  C65      1.0000 0.92580  0.26027  0.72700  Biso   1.000  C
  C66      1.0000 0.89810  0.22654  0.64650  Biso   1.000  C
  H29      1.0000 0.84300  0.23500  0.60790  Biso   1.000  H
  C67      1.0000 0.95200  0.18032  0.62310  Biso   1.000  C
  C68      1.0000 0.03460  0.16886  0.68050  Biso   1.000  C
  H30      1.0000 0.07090  0.13790  0.66460  Biso   1.000  H
  C69      1.0000 0.06390  0.20294  0.76130  Biso   1.000  C
  C70      1.0000 0.00860  0.24832  0.78470  Biso   1.000  C
  H31      1.0000 0.02690  0.27080  0.83890  Biso   1.000  H
  C71      1.0000 0.15370  0.18976  0.81880  Biso   1.000  C
  C72      1.0000 0.18750  0.11970  0.82400  Biso   1.000  C
  H32      1.0000 0.15290  0.08130  0.79390  Biso   1.000  H
  C73      1.0000 0.27290  0.10550  0.87380  Biso   1.000  C
  C74      1.0000 0.32370  0.16240  0.91870  Biso   1.000  C
  H33      1.0000 0.38030  0.15350  0.95260  Biso   1.000  H
  C75      1.0000 0.29050  0.23310  0.91360  Biso   1.000  C
  C76      1.0000 0.20560  0.24620  0.86420  Biso   1.000  C
  H34      1.0000 0.18340  0.29360  0.86180  Biso   1.000  H
  C77      1.0000 0.86500  0.30869  0.74950  Biso   1.000  C
  C78      1.0000 0.92310  0.14263  0.53750  Biso   1.000  C
  C79      1.0000 0.30520  0.02930  0.87340  Biso   1.000  C
  C80      1.0000 0.34640  0.29610  0.95640  Biso   1.000  C
  C81      1.0000 0.76710  0.61470  0.89000  Biso   1.000  C
  C82      1.0000 0.81370  0.67579  0.92920  Biso   1.000  C
  H35      1.0000 0.86900  0.67030  0.96850  Biso   1.000  H
  C83      1.0000 0.77790  0.74563  0.91000  Biso   1.000  C
  C84      1.0000 0.69410  0.75272  0.85390  Biso   1.000  C
  H36      1.0000 0.66990  0.79950  0.84230  Biso   1.000  H
  C85      1.0000 0.64600  0.69237  0.81500  Biso   1.000  C
  C86      1.0000 0.68340  0.62307  0.83150  Biso   1.000  C
  H37      1.0000 0.65280  0.58190  0.80370  Biso   1.000  H
  C87      1.0000 0.55680  0.70400  0.75360  Biso   1.000  C
  C88      1.0000 0.50370  0.75446  0.77270  Biso   1.000  C
  H38      1.0000 0.52170  0.77810  0.82630  Biso   1.000  H
  C89      1.0000 0.42330  0.76992  0.71190  Biso   1.000  C
  C90      1.0000 0.39710  0.73571  0.63230  Biso   1.000  C
  H39      1.0000 0.34450  0.74770  0.59090  Biso   1.000  H
  C91      1.0000 0.44810  0.68373  0.61337  Biso   1.000  C
  C92      1.0000 0.52810  0.66756  0.67450  Biso   1.000  C
  H40      1.0000 0.56240  0.63210  0.66220  Biso   1.000  H
  C93      1.0000 0.80670  0.53950  0.90900  Biso   1.000  C
  C94      1.0000 0.82750  0.81380  0.94550  Biso   1.000  C
  C95      1.0000 0.36370  0.82180  0.73210  Biso   1.000  C
  C96      1.0000 0.41910  0.64674  0.52670  Biso   1.000  C
  O33      1.0000 0.88460  0.32927  0.82685  Biso   1.000  O
  O34      1.0000 0.79849  0.32549  0.68986  Biso   1.000  O
  O35      1.0000 0.84585  0.14966  0.49055  Biso   1.000  O
  O36      1.0000 0.97697  0.10811  0.51595  Biso   1.000  O
  O37      1.0000 0.25220  0.97741  0.85586  Biso   1.000  O
  O38      1.0000 0.38313  0.01828  0.88579  Biso   1.000  O
  O39      1.0000 0.42080  0.28220  0.00650  Biso   1.000  O
  O40      1.0000 0.31660  0.35991  0.93940  Biso   1.000  O
  H41      1.0000 0.34070  0.39540  0.97290  Biso   1.000  H
  O41      1.0000 0.87019  0.53097  0.97742  Biso   1.000  O
  O42      1.0000 0.77237  0.48946  0.85502  Biso   1.000  O
  O43      1.0000 0.90348  0.80126  0.00039  Biso   1.000  O
  H42      1.0000 0.92840  0.84170  0.02030  Biso   1.000  H
  O44      1.0000 0.79896  0.87526  0.92510  Biso   1.000  O
  O45      1.0000 0.38423  0.84384  0.80854  Biso   1.000  O
  O46      1.0000 0.29810  0.83933  0.67163  Biso   1.000  O
  O47      1.0000 0.34311  0.66005  0.47765  Biso   1.000  O
  O48      1.0000 0.46868  0.60669  0.50628  Biso   1.000  O
  Zn7      1.0000 0.18556  0.88950  0.62745  Biso   1.000  Zn
  Zn8      1.0000 0.30781  0.88264  0.86201  Biso   1.000  Zn
  C97      1.0000 0.07420  0.76027  0.77300  Biso   1.000  C
  C98      1.0000 0.10190  0.72654  0.85350  Biso   1.000  C
  H43      1.0000 0.15700  0.73500  0.89210  Biso   1.000  H
  C99      1.0000 0.04800  0.68032  0.87690  Biso   1.000  C
  C100     1.0000 0.96540  0.66886  0.81950  Biso   1.000  C
  H44      1.0000 0.92910  0.63790  0.83540  Biso   1.000  H
  C101     1.0000 0.93610  0.70294  0.73870  Biso   1.000  C
  C102     1.0000 0.99140  0.74832  0.71530  Biso   1.000  C
  H45      1.0000 0.97310  0.77080  0.66110  Biso   1.000  H
  C103     1.0000 0.84630  0.68976  0.68120  Biso   1.000  C
  C104     1.0000 0.81250  0.61970  0.67600  Biso   1.000  C
  H46      1.0000 0.84710  0.58130  0.70610  Biso   1.000  H
  C105     1.0000 0.72710  0.60550  0.62620  Biso   1.000  C
  C106     1.0000 0.67630  0.66240  0.58130  Biso   1.000  C
  H47      1.0000 0.61970  0.65350  0.54740  Biso   1.000  H
  C107     1.0000 0.70950  0.73310  0.58640  Biso   1.000  C
  C108     1.0000 0.79440  0.74620  0.63580  Biso   1.000  C
  H48      1.0000 0.81660  0.79360  0.63820  Biso   1.000  H
  C109     1.0000 0.13500  0.80869  0.75050  Biso   1.000  C
  C110     1.0000 0.07690  0.64263  0.96250  Biso   1.000  C
  C111     1.0000 0.69480  0.52930  0.62660  Biso   1.000  C
  C112     1.0000 0.65360  0.79610  0.54360  Biso   1.000  C
  C113     1.0000 0.23290  0.11470  0.61000  Biso   1.000  C
  C114     1.0000 0.18630  0.17579  0.57080  Biso   1.000  C
  H49      1.0000 0.13100  0.17030  0.53150  Biso   1.000  H
  C115     1.0000 0.22210  0.24563  0.59000  Biso   1.000  C
  C116     1.0000 0.30590  0.25272  0.64610  Biso   1.000  C
  H50      1.0000 0.33010  0.29950  0.65770  Biso   1.000  H
  C117     1.0000 0.35400  0.19237  0.68500  Biso   1.000  C
  C118     1.0000 0.31660  0.12307  0.66850  Biso   1.000  C
  H51      1.0000 0.34720  0.08190  0.69630  Biso   1.000  H
  C119     1.0000 0.44320  0.20400  0.74640  Biso   1.000  C
  C120     1.0000 0.49630  0.25446  0.72730  Biso   1.000  C
  H52      1.0000 0.47830  0.27810  0.67370  Biso   1.000  H
  C121     1.0000 0.57670  0.26992  0.78810  Biso   1.000  C
  C122     1.0000 0.60290  0.23571  0.86770  Biso   1.000  C
  H53      1.0000 0.65550  0.24770  0.90910  Biso   1.000  H
  C123     1.0000 0.55190  0.18373  0.88663  Biso   1.000  C
  C124     1.0000 0.47190  0.16756  0.82550  Biso   1.000  C
  H54      1.0000 0.43760  0.13210  0.83780  Biso   1.000  H
  C125     1.0000 0.19330  0.03950  0.59100  Biso   1.000  C
  C126     1.0000 0.17250  0.31380  0.55450  Biso   1.000  C
  C127     1.0000 0.63630  0.32180  0.76790  Biso   1.000  C
  C128     1.0000 0.58090  0.14674  0.97330  Biso   1.000  C
  O49      1.0000 0.11540  0.82927  0.67315  Biso   1.000  O
  O50      1.0000 0.20151  0.82549  0.81014  Biso   1.000  O
  O51      1.0000 0.15415  0.64966  0.00945  Biso   1.000  O
  O52      1.0000 0.02303  0.60811  0.98405  Biso   1.000  O
  O53      1.0000 0.74780  0.47741  0.64414  Biso   1.000  O
  O54      1.0000 0.61687  0.51828  0.61421  Biso   1.000  O
  O55      1.0000 0.57920  0.78220  0.49350  Biso   1.000  O
  O56      1.0000 0.68340  0.85991  0.56060  Biso   1.000  O
  H55      1.0000 0.65930  0.89540  0.52710  Biso   1.000  H
  O57      1.0000 0.12981  0.03097  0.52258  Biso   1.000  O
  O58      1.0000 0.22763  0.98946  0.64498  Biso   1.000  O
  O59      1.0000 0.09652  0.30126  0.49961  Biso   1.000  O
  H56      1.0000 0.07160  0.34170  0.47970  Biso   1.000  H
  O60      1.0000 0.20104  0.37526  0.57490  Biso   1.000  O
  O61      1.0000 0.61577  0.34384  0.69146  Biso   1.000  O
  O62      1.0000 0.70190  0.33933  0.82837  Biso   1.000  O
  O63      1.0000 0.65689  0.16005  0.02235  Biso   1.000  O
  O64      1.0000 0.53132  0.10669  0.99372  Biso   1.000  O
  Zn9      1.0000 0.00000  0.50000  0.00000  Biso   1.000  Zn
  Zn10     1.0000 0.00000  0.00000  0.50000  Biso   1.000  Zn
  Zn11     1.0000 0.50000  0.50000  0.50000  Biso   1.000  Zn
  Zn12     1.0000 0.50000  0.00000  0.00000  Biso   1.000  Zn
