data_image0
_cell_length_a       7.5292
_cell_length_b       14.0999
_cell_length_c       16.591
_cell_angle_alpha    90
_cell_angle_beta     95.74
_cell_angle_gamma    90

_symmetry_space_group_name_H-M    "P 1"
_symmetry_int_tables_number       1

loop_
  _symmetry_equiv_pos_as_xyz
  'x, y, z'

loop_
  _atom_site_label
  _atom_site_occupancy
  _atom_site_fract_x
  _atom_site_fract_y
  _atom_site_fract_z
  _atom_site_thermal_displace_type
  _atom_site_B_iso_or_equiv
  _atom_site_type_symbol
  Be1      1.0000 0.39040  0.89110  0.42750  Biso   1.000  Be
  Be2      1.0000 0.37570  0.61800  0.44680  Biso   1.000  Be
  Be3      1.0000 0.38630  0.75060  0.13510  Biso   1.000  Be
  P1       1.0000 0.29514  0.08948  0.44558  Biso   1.000  P
  P2       1.0000 0.21684  0.76350  0.53619  Biso   1.000  P
  P3       1.0000 0.47216  0.74249  0.31664  Biso   1.000  P
  P4       1.0000 0.72750  0.58995  0.54088  Biso   1.000  P
  O1       1.0000 0.27760  0.17456  0.38842  Biso   1.000  O
  O2       1.0000 0.10780  0.07067  0.47762  Biso   1.000  O
  H1       1.0000 0.04100  0.11540  0.46530  Biso   1.000  H
  O3       1.0000 0.42300  0.10822  0.51863  Biso   1.000  O
  O4       1.0000 0.33900  0.00051  0.39900  Biso   1.000  O
  O5       1.0000 0.23510  0.84527  0.47783  Biso   1.000  O
  O6       1.0000 0.40370  0.83821  0.34243  Biso   1.000  O
  O7       1.0000 0.04230  0.77533  0.57441  Biso   1.000  O
  O8       1.0000 0.36660  0.77046  0.60948  Biso   1.000  O
  H2       1.0000 0.46010  0.78840  0.59300  Biso   1.000  H
  O9       1.0000 0.22110  0.66646  0.49614  Biso   1.000  O
  O10      1.0000 0.46280  0.73548  0.22614  Biso   1.000  O
  O11      1.0000 0.67820  0.73342  0.34743  Biso   1.000  O
  H3       1.0000 0.68930  0.70780  0.39200  Biso   1.000  H
  O12      1.0000 0.37500  0.66023  0.35394  Biso   1.000  O
  O13      1.0000 0.57110  0.64180  0.49567  Biso   1.000  O
  O14      1.0000 0.80820  0.64219  0.61662  Biso   1.000  O
  O15      1.0000 0.67790  0.49122  0.56478  Biso   1.000  O
  O16      1.0000 0.87370  0.58470  0.47867  Biso   1.000  O
  H4       1.0000 0.96310  0.61380  0.49700  Biso   1.000  H
  Be4      1.0000 0.10960  0.39110  0.07250  Biso   1.000  Be
  Be5      1.0000 0.12430  0.11800  0.05320  Biso   1.000  Be
  Be6      1.0000 0.11370  0.25060  0.36490  Biso   1.000  Be
  P5       1.0000 0.20486  0.58948  0.05442  Biso   1.000  P
  P6       1.0000 0.28316  0.26350  0.96381  Biso   1.000  P
  P7       1.0000 0.02784  0.24249  0.18336  Biso   1.000  P
  P8       1.0000 0.77250  0.08995  0.95912  Biso   1.000  P
  O17      1.0000 0.22240  0.67456  0.11158  Biso   1.000  O
  O18      1.0000 0.39220  0.57067  0.02238  Biso   1.000  O
  H5       1.0000 0.45900  0.61540  0.03470  Biso   1.000  H
  O19      1.0000 0.07700  0.60822  0.98137  Biso   1.000  O
  O20      1.0000 0.16100  0.50051  0.10100  Biso   1.000  O
  O21      1.0000 0.26490  0.34527  0.02217  Biso   1.000  O
  O22      1.0000 0.09630  0.33821  0.15757  Biso   1.000  O
  O23      1.0000 0.45770  0.27533  0.92559  Biso   1.000  O
  O24      1.0000 0.13340  0.27046  0.89052  Biso   1.000  O
  H6       1.0000 0.03990  0.28840  0.90700  Biso   1.000  H
  O25      1.0000 0.27890  0.16646  0.00386  Biso   1.000  O
  O26      1.0000 0.03720  0.23548  0.27386  Biso   1.000  O
  O27      1.0000 0.82180  0.23342  0.15257  Biso   1.000  O
  H7       1.0000 0.81070  0.20780  0.10800  Biso   1.000  H
  O28      1.0000 0.12500  0.16023  0.14606  Biso   1.000  O
  O29      1.0000 0.92890  0.14180  0.00433  Biso   1.000  O
  O30      1.0000 0.69180  0.14219  0.88338  Biso   1.000  O
  O31      1.0000 0.82210  0.99122  0.93522  Biso   1.000  O
  O32      1.0000 0.62630  0.08470  0.02133  Biso   1.000  O
  H8       1.0000 0.53690  0.11380  0.00300  Biso   1.000  H
  Be7      1.0000 0.60960  0.10890  0.57250  Biso   1.000  Be
  Be8      1.0000 0.62430  0.38200  0.55320  Biso   1.000  Be
  Be9      1.0000 0.61370  0.24940  0.86490  Biso   1.000  Be
  P9       1.0000 0.70486  0.91052  0.55442  Biso   1.000  P
  P10      1.0000 0.78316  0.23650  0.46381  Biso   1.000  P
  P11      1.0000 0.52784  0.25751  0.68336  Biso   1.000  P
  P12      1.0000 0.27250  0.41005  0.45912  Biso   1.000  P
  O33      1.0000 0.72240  0.82544  0.61158  Biso   1.000  O
  O34      1.0000 0.89220  0.92933  0.52238  Biso   1.000  O
  H9       1.0000 0.95900  0.88460  0.53470  Biso   1.000  H
  O35      1.0000 0.57700  0.89178  0.48137  Biso   1.000  O
  O36      1.0000 0.66100  0.99949  0.60100  Biso   1.000  O
  O37      1.0000 0.76490  0.15473  0.52217  Biso   1.000  O
  O38      1.0000 0.59630  0.16179  0.65757  Biso   1.000  O
  O39      1.0000 0.95770  0.22467  0.42559  Biso   1.000  O
  O40      1.0000 0.63340  0.22954  0.39052  Biso   1.000  O
  H10      1.0000 0.53990  0.21160  0.40700  Biso   1.000  H
  O41      1.0000 0.77890  0.33354  0.50386  Biso   1.000  O
  O42      1.0000 0.53720  0.26452  0.77386  Biso   1.000  O
  O43      1.0000 0.32180  0.26658  0.65257  Biso   1.000  O
  H11      1.0000 0.31070  0.29220  0.60800  Biso   1.000  H
  O44      1.0000 0.62500  0.33977  0.64606  Biso   1.000  O
  O45      1.0000 0.42890  0.35820  0.50433  Biso   1.000  O
  O46      1.0000 0.19180  0.35781  0.38338  Biso   1.000  O
  O47      1.0000 0.32210  0.50878  0.43522  Biso   1.000  O
  O48      1.0000 0.12630  0.41530  0.52133  Biso   1.000  O
  H12      1.0000 0.03690  0.38620  0.50300  Biso   1.000  H
  Be10     1.0000 0.89040  0.60890  0.92750  Biso   1.000  Be
  Be11     1.0000 0.87570  0.88200  0.94680  Biso   1.000  Be
  Be12     1.0000 0.88630  0.74940  0.63510  Biso   1.000  Be
  P13      1.0000 0.79514  0.41052  0.94558  Biso   1.000  P
  P14      1.0000 0.71684  0.73650  0.03619  Biso   1.000  P
  P15      1.0000 0.97216  0.75751  0.81664  Biso   1.000  P
  P16      1.0000 0.22750  0.91005  0.04088  Biso   1.000  P
  O49      1.0000 0.77760  0.32544  0.88842  Biso   1.000  O
  O50      1.0000 0.60780  0.42933  0.97762  Biso   1.000  O
  H13      1.0000 0.54100  0.38460  0.96530  Biso   1.000  H
  O51      1.0000 0.92300  0.39178  0.01863  Biso   1.000  O
  O52      1.0000 0.83900  0.49949  0.89900  Biso   1.000  O
  O53      1.0000 0.73510  0.65473  0.97783  Biso   1.000  O
  O54      1.0000 0.90370  0.66179  0.84243  Biso   1.000  O
  O55      1.0000 0.54230  0.72467  0.07441  Biso   1.000  O
  O56      1.0000 0.86660  0.72954  0.10948  Biso   1.000  O
  H14      1.0000 0.96010  0.71160  0.09300  Biso   1.000  H
  O57      1.0000 0.72110  0.83354  0.99614  Biso   1.000  O
  O58      1.0000 0.96280  0.76452  0.72614  Biso   1.000  O
  O59      1.0000 0.17820  0.76658  0.84743  Biso   1.000  O
  H15      1.0000 0.18930  0.79220  0.89200  Biso   1.000  H
  O60      1.0000 0.87500  0.83977  0.85394  Biso   1.000  O
  O61      1.0000 0.07110  0.85820  0.99567  Biso   1.000  O
  O62      1.0000 0.30820  0.85781  0.11662  Biso   1.000  O
  O63      1.0000 0.17790  0.00878  0.06478  Biso   1.000  O
  O64      1.0000 0.37370  0.91530  0.97867  Biso   1.000  O
  H16      1.0000 0.46310  0.88620  0.99700  Biso   1.000  H
