data_image0
_cell_length_a       32.985
_cell_length_b       8.9901
_cell_length_c       34.432
_cell_angle_alpha    90
_cell_angle_beta     115.591
_cell_angle_gamma    90

_symmetry_space_group_name_H-M    "P 1"
_symmetry_int_tables_number       1

loop_
  _symmetry_equiv_pos_as_xyz
  'x, y, z'

loop_
  _atom_site_label
  _atom_site_occupancy
  _atom_site_fract_x
  _atom_site_fract_y
  _atom_site_fract_z
  _atom_site_thermal_displace_type
  _atom_site_B_iso_or_equiv
  _atom_site_type_symbol
  La1      1.0000 0.99640  0.64250  0.11903  Biso   1.000  La
  O1       1.0000 0.04928  0.81900  0.17394  Biso   1.000  O
  O2       1.0000 0.03234  0.62180  0.20213  Biso   1.000  O
  O3       1.0000 0.42873  0.01790  0.36586  Biso   1.000  O
  O4       1.0000 0.46766  0.09740  0.43149  Biso   1.000  O
  O5       1.0000 0.42924  0.90690  0.54928  Biso   1.000  O
  O6       1.0000 0.36753  0.76890  0.52932  Biso   1.000  O
  H1       1.0000 0.37820  0.74440  0.55470  Biso   1.000  H
  O7       1.0000 0.06515  0.70100  0.36154  Biso   1.000  O
  O8       1.0000 0.13330  0.77520  0.40144  Biso   1.000  O
  N1       1.0000 0.17170  0.08280  0.30080  Biso   1.000  N
  H2       1.0000 0.18520  0.12230  0.32590  Biso   1.000  H
  N2       1.0000 0.31570  0.65780  0.37540  Biso   1.000  N
  H3       1.0000 0.29880  0.61260  0.38480  Biso   1.000  H
  C1       1.0000 0.30820  0.62800  0.33175  Biso   1.000  C
  H4       1.0000 0.33640  0.60310  0.33090  Biso   1.000  H
  H5       1.0000 0.29600  0.71580  0.31420  Biso   1.000  H
  C2       1.0000 0.27540  0.49920  0.31402  Biso   1.000  C
  C3       1.0000 0.22930  0.52780  0.29424  Biso   1.000  C
  C4       1.0000 0.19880  0.40920  0.27854  Biso   1.000  C
  C5       1.0000 0.21560  0.26320  0.28328  Biso   1.000  C
  C6       1.0000 0.26220  0.23440  0.30426  Biso   1.000  C
  C7       1.0000 0.29230  0.35400  0.31950  Biso   1.000  C
  C8       1.0000 0.18240  0.13620  0.26675  Biso   1.000  C
  H6       1.0000 0.15520  0.16980  0.24270  Biso   1.000  H
  H7       1.0000 0.19530  0.05610  0.25680  Biso   1.000  H
  C9       1.0000 0.14880  0.43770  0.25790  Biso   1.000  C
  H8       1.0000 0.14280  0.53080  0.26800  Biso   1.000  H
  H9       1.0000 0.13380  0.35900  0.26550  Biso   1.000  H
  H10      1.0000 0.13800  0.44120  0.22720  Biso   1.000  H
  C10      1.0000 0.21160  0.68500  0.29100  Biso   1.000  C
  H11      1.0000 0.23420  0.75420  0.29200  Biso   1.000  H
  H12      1.0000 0.20410  0.70380  0.31450  Biso   1.000  H
  H13      1.0000 0.18520  0.69660  0.26420  Biso   1.000  H
  C11      1.0000 0.34240  0.32220  0.34190  Biso   1.000  C
  H14      1.0000 0.35560  0.34010  0.32230  Biso   1.000  H
  H15      1.0000 0.34710  0.22020  0.35110  Biso   1.000  H
  H16      1.0000 0.35620  0.38610  0.36650  Biso   1.000  H
  C12      1.0000 0.27900  0.07680  0.31060  Biso   1.000  C
  H17      1.0000 0.25480  0.01110  0.29380  Biso   1.000  H
  H18      1.0000 0.29020  0.05080  0.34050  Biso   1.000  H
  H19      1.0000 0.30260  0.06760  0.30160  Biso   1.000  H
  C13      1.0000 0.14090  0.97130  0.29484  Biso   1.000  C
  C14      1.0000 0.11320  0.91410  0.25493  Biso   1.000  C
  H20      1.0000 0.11540  0.95010  0.23060  Biso   1.000  H
  C15      1.0000 0.08213  0.80420  0.25046  Biso   1.000  C
  C16      1.0000 0.07773  0.74900  0.28628  Biso   1.000  C
  H21      1.0000 0.05650  0.67640  0.28330  Biso   1.000  H
  C17      1.0000 0.10600  0.80550  0.32647  Biso   1.000  C
  C18      1.0000 0.13720  0.91300  0.33062  Biso   1.000  C
  H22      1.0000 0.15630  0.94740  0.35790  Biso   1.000  H
  C19      1.0000 0.05273  0.74500  0.20613  Biso   1.000  C
  C20      1.0000 0.43592  0.02110  0.40461  Biso   1.000  C
  C21      1.0000 0.40731  0.93080  0.41928  Biso   1.000  C
  C22      1.0000 0.41610  0.93010  0.46256  Biso   1.000  C
  H23      1.0000 0.43930  0.98710  0.48250  Biso   1.000  H
  C23      1.0000 0.38900  0.84110  0.47565  Biso   1.000  C
  C24      1.0000 0.35550  0.75530  0.44624  Biso   1.000  C
  H24      1.0000 0.33770  0.69800  0.45530  Biso   1.000  H
  C25      1.0000 0.34750  0.75190  0.40293  Biso   1.000  C
  C26      1.0000 0.37380  0.84200  0.38974  Biso   1.000  C
  H25      1.0000 0.36880  0.84240  0.36100  Biso   1.000  H
  C27      1.0000 0.39710  0.84130  0.52199  Biso   1.000  C
  C28      1.0000 0.10000  0.75500  0.36512  Biso   1.000  C
  La2      1.0000 0.49640  0.14250  0.11903  Biso   1.000  La
  O9       1.0000 0.54928  0.31900  0.17394  Biso   1.000  O
  O10      1.0000 0.53234  0.12180  0.20213  Biso   1.000  O
  O11      1.0000 0.92873  0.51790  0.36586  Biso   1.000  O
  O12      1.0000 0.96766  0.59740  0.43149  Biso   1.000  O
  O13      1.0000 0.92924  0.40690  0.54928  Biso   1.000  O
  O14      1.0000 0.86753  0.26890  0.52932  Biso   1.000  O
  H26      1.0000 0.87820  0.24440  0.55470  Biso   1.000  H
  O15      1.0000 0.56515  0.20100  0.36154  Biso   1.000  O
  O16      1.0000 0.63330  0.27520  0.40144  Biso   1.000  O
  N3       1.0000 0.67170  0.58280  0.30080  Biso   1.000  N
  H27      1.0000 0.68520  0.62230  0.32590  Biso   1.000  H
  N4       1.0000 0.81570  0.15780  0.37540  Biso   1.000  N
  H28      1.0000 0.79880  0.11260  0.38480  Biso   1.000  H
  C29      1.0000 0.80820  0.12800  0.33175  Biso   1.000  C
  H29      1.0000 0.83640  0.10310  0.33090  Biso   1.000  H
  H30      1.0000 0.79600  0.21580  0.31420  Biso   1.000  H
  C30      1.0000 0.77540  0.99920  0.31402  Biso   1.000  C
  C31      1.0000 0.72930  0.02780  0.29424  Biso   1.000  C
  C32      1.0000 0.69880  0.90920  0.27854  Biso   1.000  C
  C33      1.0000 0.71560  0.76320  0.28328  Biso   1.000  C
  C34      1.0000 0.76220  0.73440  0.30426  Biso   1.000  C
  C35      1.0000 0.79230  0.85400  0.31950  Biso   1.000  C
  C36      1.0000 0.68240  0.63620  0.26675  Biso   1.000  C
  H31      1.0000 0.65520  0.66980  0.24270  Biso   1.000  H
  H32      1.0000 0.69530  0.55610  0.25680  Biso   1.000  H
  C37      1.0000 0.64880  0.93770  0.25790  Biso   1.000  C
  H33      1.0000 0.64280  0.03080  0.26800  Biso   1.000  H
  H34      1.0000 0.63380  0.85900  0.26550  Biso   1.000  H
  H35      1.0000 0.63800  0.94120  0.22720  Biso   1.000  H
  C38      1.0000 0.71160  0.18500  0.29100  Biso   1.000  C
  H36      1.0000 0.73420  0.25420  0.29200  Biso   1.000  H
  H37      1.0000 0.70410  0.20380  0.31450  Biso   1.000  H
  H38      1.0000 0.68520  0.19660  0.26420  Biso   1.000  H
  C39      1.0000 0.84240  0.82220  0.34190  Biso   1.000  C
  H39      1.0000 0.85560  0.84010  0.32230  Biso   1.000  H
  H40      1.0000 0.84710  0.72020  0.35110  Biso   1.000  H
  H41      1.0000 0.85620  0.88610  0.36650  Biso   1.000  H
  C40      1.0000 0.77900  0.57680  0.31060  Biso   1.000  C
  H42      1.0000 0.75480  0.51110  0.29380  Biso   1.000  H
  H43      1.0000 0.79020  0.55080  0.34050  Biso   1.000  H
  H44      1.0000 0.80260  0.56760  0.30160  Biso   1.000  H
  C41      1.0000 0.64090  0.47130  0.29484  Biso   1.000  C
  C42      1.0000 0.61320  0.41410  0.25493  Biso   1.000  C
  H45      1.0000 0.61540  0.45010  0.23060  Biso   1.000  H
  C43      1.0000 0.58213  0.30420  0.25046  Biso   1.000  C
  C44      1.0000 0.57773  0.24900  0.28628  Biso   1.000  C
  H46      1.0000 0.55650  0.17640  0.28330  Biso   1.000  H
  C45      1.0000 0.60600  0.30550  0.32647  Biso   1.000  C
  C46      1.0000 0.63720  0.41300  0.33062  Biso   1.000  C
  H47      1.0000 0.65630  0.44740  0.35790  Biso   1.000  H
  C47      1.0000 0.55273  0.24500  0.20613  Biso   1.000  C
  C48      1.0000 0.93592  0.52110  0.40461  Biso   1.000  C
  C49      1.0000 0.90731  0.43080  0.41928  Biso   1.000  C
  C50      1.0000 0.91610  0.43010  0.46256  Biso   1.000  C
  H48      1.0000 0.93930  0.48710  0.48250  Biso   1.000  H
  C51      1.0000 0.88900  0.34110  0.47565  Biso   1.000  C
  C52      1.0000 0.85550  0.25530  0.44624  Biso   1.000  C
  H49      1.0000 0.83770  0.19800  0.45530  Biso   1.000  H
  C53      1.0000 0.84750  0.25190  0.40293  Biso   1.000  C
  C54      1.0000 0.87380  0.34200  0.38974  Biso   1.000  C
  H50      1.0000 0.86880  0.34240  0.36100  Biso   1.000  H
  C55      1.0000 0.89710  0.34130  0.52199  Biso   1.000  C
  C56      1.0000 0.60000  0.25500  0.36512  Biso   1.000  C
  La3      1.0000 0.00360  0.64250  0.38097  Biso   1.000  La
  O17      1.0000 0.95072  0.81900  0.32606  Biso   1.000  O
  O18      1.0000 0.96766  0.62180  0.29787  Biso   1.000  O
  O19      1.0000 0.57127  0.01790  0.13414  Biso   1.000  O
  O20      1.0000 0.53234  0.09740  0.06851  Biso   1.000  O
  O21      1.0000 0.57076  0.90690  0.95072  Biso   1.000  O
  O22      1.0000 0.63247  0.76890  0.97068  Biso   1.000  O
  H51      1.0000 0.62180  0.74440  0.94530  Biso   1.000  H
  O23      1.0000 0.93485  0.70100  0.13846  Biso   1.000  O
  O24      1.0000 0.86670  0.77520  0.09856  Biso   1.000  O
  N5       1.0000 0.82830  0.08280  0.19920  Biso   1.000  N
  H52      1.0000 0.81480  0.12230  0.17410  Biso   1.000  H
  N6       1.0000 0.68430  0.65780  0.12460  Biso   1.000  N
  H53      1.0000 0.70120  0.61260  0.11520  Biso   1.000  H
  C57      1.0000 0.69180  0.62800  0.16825  Biso   1.000  C
  H54      1.0000 0.66360  0.60310  0.16910  Biso   1.000  H
  H55      1.0000 0.70400  0.71580  0.18580  Biso   1.000  H
  C58      1.0000 0.72460  0.49920  0.18598  Biso   1.000  C
  C59      1.0000 0.77070  0.52780  0.20576  Biso   1.000  C
  C60      1.0000 0.80120  0.40920  0.22146  Biso   1.000  C
  C61      1.0000 0.78440  0.26320  0.21672  Biso   1.000  C
  C62      1.0000 0.73780  0.23440  0.19574  Biso   1.000  C
  C63      1.0000 0.70770  0.35400  0.18050  Biso   1.000  C
  C64      1.0000 0.81760  0.13620  0.23325  Biso   1.000  C
  H56      1.0000 0.84480  0.16980  0.25730  Biso   1.000  H
  H57      1.0000 0.80470  0.05610  0.24320  Biso   1.000  H
  C65      1.0000 0.85120  0.43770  0.24210  Biso   1.000  C
  H58      1.0000 0.85720  0.53080  0.23200  Biso   1.000  H
  H59      1.0000 0.86620  0.35900  0.23450  Biso   1.000  H
  H60      1.0000 0.86200  0.44120  0.27280  Biso   1.000  H
  C66      1.0000 0.78840  0.68500  0.20900  Biso   1.000  C
  H61      1.0000 0.76580  0.75420  0.20800  Biso   1.000  H
  H62      1.0000 0.79590  0.70380  0.18550  Biso   1.000  H
  H63      1.0000 0.81480  0.69660  0.23580  Biso   1.000  H
  C67      1.0000 0.65760  0.32220  0.15810  Biso   1.000  C
  H64      1.0000 0.64440  0.34010  0.17770  Biso   1.000  H
  H65      1.0000 0.65290  0.22020  0.14890  Biso   1.000  H
  H66      1.0000 0.64380  0.38610  0.13350  Biso   1.000  H
  C68      1.0000 0.72100  0.07680  0.18940  Biso   1.000  C
  H67      1.0000 0.74520  0.01110  0.20620  Biso   1.000  H
  H68      1.0000 0.70980  0.05080  0.15950  Biso   1.000  H
  H69      1.0000 0.69740  0.06760  0.19840  Biso   1.000  H
  C69      1.0000 0.85910  0.97130  0.20516  Biso   1.000  C
  C70      1.0000 0.88680  0.91410  0.24507  Biso   1.000  C
  H70      1.0000 0.88460  0.95010  0.26940  Biso   1.000  H
  C71      1.0000 0.91787  0.80420  0.24954  Biso   1.000  C
  C72      1.0000 0.92227  0.74900  0.21372  Biso   1.000  C
  H71      1.0000 0.94350  0.67640  0.21670  Biso   1.000  H
  C73      1.0000 0.89400  0.80550  0.17353  Biso   1.000  C
  C74      1.0000 0.86280  0.91300  0.16938  Biso   1.000  C
  H72      1.0000 0.84370  0.94740  0.14210  Biso   1.000  H
  C75      1.0000 0.94727  0.74500  0.29387  Biso   1.000  C
  C76      1.0000 0.56408  0.02110  0.09539  Biso   1.000  C
  C77      1.0000 0.59269  0.93080  0.08072  Biso   1.000  C
  C78      1.0000 0.58390  0.93010  0.03744  Biso   1.000  C
  H73      1.0000 0.56070  0.98710  0.01750  Biso   1.000  H
  C79      1.0000 0.61100  0.84110  0.02435  Biso   1.000  C
  C80      1.0000 0.64450  0.75530  0.05376  Biso   1.000  C
  H74      1.0000 0.66230  0.69800  0.04470  Biso   1.000  H
  C81      1.0000 0.65250  0.75190  0.09707  Biso   1.000  C
  C82      1.0000 0.62620  0.84200  0.11026  Biso   1.000  C
  H75      1.0000 0.63120  0.84240  0.13900  Biso   1.000  H
  C83      1.0000 0.60290  0.84130  0.97801  Biso   1.000  C
  C84      1.0000 0.90000  0.75500  0.13488  Biso   1.000  C
  La4      1.0000 0.50360  0.14250  0.38097  Biso   1.000  La
  O25      1.0000 0.45072  0.31900  0.32606  Biso   1.000  O
  O26      1.0000 0.46766  0.12180  0.29787  Biso   1.000  O
  O27      1.0000 0.07127  0.51790  0.13414  Biso   1.000  O
  O28      1.0000 0.03234  0.59740  0.06851  Biso   1.000  O
  O29      1.0000 0.07076  0.40690  0.95072  Biso   1.000  O
  O30      1.0000 0.13247  0.26890  0.97068  Biso   1.000  O
  H76      1.0000 0.12180  0.24440  0.94530  Biso   1.000  H
  O31      1.0000 0.43485  0.20100  0.13846  Biso   1.000  O
  O32      1.0000 0.36670  0.27520  0.09856  Biso   1.000  O
  N7       1.0000 0.32830  0.58280  0.19920  Biso   1.000  N
  H77      1.0000 0.31480  0.62230  0.17410  Biso   1.000  H
  N8       1.0000 0.18430  0.15780  0.12460  Biso   1.000  N
  H78      1.0000 0.20120  0.11260  0.11520  Biso   1.000  H
  C85      1.0000 0.19180  0.12800  0.16825  Biso   1.000  C
  H79      1.0000 0.16360  0.10310  0.16910  Biso   1.000  H
  H80      1.0000 0.20400  0.21580  0.18580  Biso   1.000  H
  C86      1.0000 0.22460  0.99920  0.18598  Biso   1.000  C
  C87      1.0000 0.27070  0.02780  0.20576  Biso   1.000  C
  C88      1.0000 0.30120  0.90920  0.22146  Biso   1.000  C
  C89      1.0000 0.28440  0.76320  0.21672  Biso   1.000  C
  C90      1.0000 0.23780  0.73440  0.19574  Biso   1.000  C
  C91      1.0000 0.20770  0.85400  0.18050  Biso   1.000  C
  C92      1.0000 0.31760  0.63620  0.23325  Biso   1.000  C
  H81      1.0000 0.34480  0.66980  0.25730  Biso   1.000  H
  H82      1.0000 0.30470  0.55610  0.24320  Biso   1.000  H
  C93      1.0000 0.35120  0.93770  0.24210  Biso   1.000  C
  H83      1.0000 0.35720  0.03080  0.23200  Biso   1.000  H
  H84      1.0000 0.36620  0.85900  0.23450  Biso   1.000  H
  H85      1.0000 0.36200  0.94120  0.27280  Biso   1.000  H
  C94      1.0000 0.28840  0.18500  0.20900  Biso   1.000  C
  H86      1.0000 0.26580  0.25420  0.20800  Biso   1.000  H
  H87      1.0000 0.29590  0.20380  0.18550  Biso   1.000  H
  H88      1.0000 0.31480  0.19660  0.23580  Biso   1.000  H
  C95      1.0000 0.15760  0.82220  0.15810  Biso   1.000  C
  H89      1.0000 0.14440  0.84010  0.17770  Biso   1.000  H
  H90      1.0000 0.15290  0.72020  0.14890  Biso   1.000  H
  H91      1.0000 0.14380  0.88610  0.13350  Biso   1.000  H
  C96      1.0000 0.22100  0.57680  0.18940  Biso   1.000  C
  H92      1.0000 0.24520  0.51110  0.20620  Biso   1.000  H
  H93      1.0000 0.20980  0.55080  0.15950  Biso   1.000  H
  H94      1.0000 0.19740  0.56760  0.19840  Biso   1.000  H
  C97      1.0000 0.35910  0.47130  0.20516  Biso   1.000  C
  C98      1.0000 0.38680  0.41410  0.24507  Biso   1.000  C
  H95      1.0000 0.38460  0.45010  0.26940  Biso   1.000  H
  C99      1.0000 0.41787  0.30420  0.24954  Biso   1.000  C
  C100     1.0000 0.42227  0.24900  0.21372  Biso   1.000  C
  H96      1.0000 0.44350  0.17640  0.21670  Biso   1.000  H
  C101     1.0000 0.39400  0.30550  0.17353  Biso   1.000  C
  C102     1.0000 0.36280  0.41300  0.16938  Biso   1.000  C
  H97      1.0000 0.34370  0.44740  0.14210  Biso   1.000  H
  C103     1.0000 0.44727  0.24500  0.29387  Biso   1.000  C
  C104     1.0000 0.06408  0.52110  0.09539  Biso   1.000  C
  C105     1.0000 0.09269  0.43080  0.08072  Biso   1.000  C
  C106     1.0000 0.08390  0.43010  0.03744  Biso   1.000  C
  H98      1.0000 0.06070  0.48710  0.01750  Biso   1.000  H
  C107     1.0000 0.11100  0.34110  0.02435  Biso   1.000  C
  C108     1.0000 0.14450  0.25530  0.05376  Biso   1.000  C
  H99      1.0000 0.16230  0.19800  0.04470  Biso   1.000  H
  C109     1.0000 0.15250  0.25190  0.09707  Biso   1.000  C
  C110     1.0000 0.12620  0.34200  0.11026  Biso   1.000  C
  H100     1.0000 0.13120  0.34240  0.13900  Biso   1.000  H
  C111     1.0000 0.10290  0.34130  0.97801  Biso   1.000  C
  C112     1.0000 0.40000  0.25500  0.13488  Biso   1.000  C
  La5      1.0000 0.00360  0.35750  0.88097  Biso   1.000  La
  O33      1.0000 0.95072  0.18100  0.82606  Biso   1.000  O
  O34      1.0000 0.96766  0.37820  0.79787  Biso   1.000  O
  O35      1.0000 0.57127  0.98210  0.63414  Biso   1.000  O
  O36      1.0000 0.53234  0.90260  0.56851  Biso   1.000  O
  O37      1.0000 0.57076  0.09310  0.45072  Biso   1.000  O
  O38      1.0000 0.63247  0.23110  0.47068  Biso   1.000  O
  H101     1.0000 0.62180  0.25560  0.44530  Biso   1.000  H
  O39      1.0000 0.93485  0.29900  0.63846  Biso   1.000  O
  O40      1.0000 0.86670  0.22480  0.59856  Biso   1.000  O
  N9       1.0000 0.82830  0.91720  0.69920  Biso   1.000  N
  H102     1.0000 0.81480  0.87770  0.67410  Biso   1.000  H
  N10      1.0000 0.68430  0.34220  0.62460  Biso   1.000  N
  H103     1.0000 0.70120  0.38740  0.61520  Biso   1.000  H
  C113     1.0000 0.69180  0.37200  0.66825  Biso   1.000  C
  H104     1.0000 0.66360  0.39690  0.66910  Biso   1.000  H
  H105     1.0000 0.70400  0.28420  0.68580  Biso   1.000  H
  C114     1.0000 0.72460  0.50080  0.68598  Biso   1.000  C
  C115     1.0000 0.77070  0.47220  0.70576  Biso   1.000  C
  C116     1.0000 0.80120  0.59080  0.72146  Biso   1.000  C
  C117     1.0000 0.78440  0.73680  0.71672  Biso   1.000  C
  C118     1.0000 0.73780  0.76560  0.69574  Biso   1.000  C
  C119     1.0000 0.70770  0.64600  0.68050  Biso   1.000  C
  C120     1.0000 0.81760  0.86380  0.73325  Biso   1.000  C
  H106     1.0000 0.84480  0.83020  0.75730  Biso   1.000  H
  H107     1.0000 0.80470  0.94390  0.74320  Biso   1.000  H
  C121     1.0000 0.85120  0.56230  0.74210  Biso   1.000  C
  H108     1.0000 0.85720  0.46920  0.73200  Biso   1.000  H
  H109     1.0000 0.86620  0.64100  0.73450  Biso   1.000  H
  H110     1.0000 0.86200  0.55880  0.77280  Biso   1.000  H
  C122     1.0000 0.78840  0.31500  0.70900  Biso   1.000  C
  H111     1.0000 0.76580  0.24580  0.70800  Biso   1.000  H
  H112     1.0000 0.79590  0.29620  0.68550  Biso   1.000  H
  H113     1.0000 0.81480  0.30340  0.73580  Biso   1.000  H
  C123     1.0000 0.65760  0.67780  0.65810  Biso   1.000  C
  H114     1.0000 0.64440  0.65990  0.67770  Biso   1.000  H
  H115     1.0000 0.65290  0.77980  0.64890  Biso   1.000  H
  H116     1.0000 0.64380  0.61390  0.63350  Biso   1.000  H
  C124     1.0000 0.72100  0.92320  0.68940  Biso   1.000  C
  H117     1.0000 0.74520  0.98890  0.70620  Biso   1.000  H
  H118     1.0000 0.70980  0.94920  0.65950  Biso   1.000  H
  H119     1.0000 0.69740  0.93240  0.69840  Biso   1.000  H
  C125     1.0000 0.85910  0.02870  0.70516  Biso   1.000  C
  C126     1.0000 0.88680  0.08590  0.74507  Biso   1.000  C
  H120     1.0000 0.88460  0.04990  0.76940  Biso   1.000  H
  C127     1.0000 0.91787  0.19580  0.74954  Biso   1.000  C
  C128     1.0000 0.92227  0.25100  0.71372  Biso   1.000  C
  H121     1.0000 0.94350  0.32360  0.71670  Biso   1.000  H
  C129     1.0000 0.89400  0.19450  0.67353  Biso   1.000  C
  C130     1.0000 0.86280  0.08700  0.66938  Biso   1.000  C
  H122     1.0000 0.84370  0.05260  0.64210  Biso   1.000  H
  C131     1.0000 0.94727  0.25500  0.79387  Biso   1.000  C
  C132     1.0000 0.56408  0.97890  0.59539  Biso   1.000  C
  C133     1.0000 0.59269  0.06920  0.58072  Biso   1.000  C
  C134     1.0000 0.58390  0.06990  0.53744  Biso   1.000  C
  H123     1.0000 0.56070  0.01290  0.51750  Biso   1.000  H
  C135     1.0000 0.61100  0.15890  0.52435  Biso   1.000  C
  C136     1.0000 0.64450  0.24470  0.55376  Biso   1.000  C
  H124     1.0000 0.66230  0.30200  0.54470  Biso   1.000  H
  C137     1.0000 0.65250  0.24810  0.59707  Biso   1.000  C
  C138     1.0000 0.62620  0.15800  0.61026  Biso   1.000  C
  H125     1.0000 0.63120  0.15760  0.63900  Biso   1.000  H
  C139     1.0000 0.60290  0.15870  0.47801  Biso   1.000  C
  C140     1.0000 0.90000  0.24500  0.63488  Biso   1.000  C
  La6      1.0000 0.50360  0.85750  0.88097  Biso   1.000  La
  O41      1.0000 0.45072  0.68100  0.82606  Biso   1.000  O
  O42      1.0000 0.46766  0.87820  0.79787  Biso   1.000  O
  O43      1.0000 0.07127  0.48210  0.63414  Biso   1.000  O
  O44      1.0000 0.03234  0.40260  0.56851  Biso   1.000  O
  O45      1.0000 0.07076  0.59310  0.45072  Biso   1.000  O
  O46      1.0000 0.13247  0.73110  0.47068  Biso   1.000  O
  H126     1.0000 0.12180  0.75560  0.44530  Biso   1.000  H
  O47      1.0000 0.43485  0.79900  0.63846  Biso   1.000  O
  O48      1.0000 0.36670  0.72480  0.59856  Biso   1.000  O
  N11      1.0000 0.32830  0.41720  0.69920  Biso   1.000  N
  H127     1.0000 0.31480  0.37770  0.67410  Biso   1.000  H
  N12      1.0000 0.18430  0.84220  0.62460  Biso   1.000  N
  H128     1.0000 0.20120  0.88740  0.61520  Biso   1.000  H
  C141     1.0000 0.19180  0.87200  0.66825  Biso   1.000  C
  H129     1.0000 0.16360  0.89690  0.66910  Biso   1.000  H
  H130     1.0000 0.20400  0.78420  0.68580  Biso   1.000  H
  C142     1.0000 0.22460  0.00080  0.68598  Biso   1.000  C
  C143     1.0000 0.27070  0.97220  0.70576  Biso   1.000  C
  C144     1.0000 0.30120  0.09080  0.72146  Biso   1.000  C
  C145     1.0000 0.28440  0.23680  0.71672  Biso   1.000  C
  C146     1.0000 0.23780  0.26560  0.69574  Biso   1.000  C
  C147     1.0000 0.20770  0.14600  0.68050  Biso   1.000  C
  C148     1.0000 0.31760  0.36380  0.73325  Biso   1.000  C
  H131     1.0000 0.34480  0.33020  0.75730  Biso   1.000  H
  H132     1.0000 0.30470  0.44390  0.74320  Biso   1.000  H
  C149     1.0000 0.35120  0.06230  0.74210  Biso   1.000  C
  H133     1.0000 0.35720  0.96920  0.73200  Biso   1.000  H
  H134     1.0000 0.36620  0.14100  0.73450  Biso   1.000  H
  H135     1.0000 0.36200  0.05880  0.77280  Biso   1.000  H
  C150     1.0000 0.28840  0.81500  0.70900  Biso   1.000  C
  H136     1.0000 0.26580  0.74580  0.70800  Biso   1.000  H
  H137     1.0000 0.29590  0.79620  0.68550  Biso   1.000  H
  H138     1.0000 0.31480  0.80340  0.73580  Biso   1.000  H
  C151     1.0000 0.15760  0.17780  0.65810  Biso   1.000  C
  H139     1.0000 0.14440  0.15990  0.67770  Biso   1.000  H
  H140     1.0000 0.15290  0.27980  0.64890  Biso   1.000  H
  H141     1.0000 0.14380  0.11390  0.63350  Biso   1.000  H
  C152     1.0000 0.22100  0.42320  0.68940  Biso   1.000  C
  H142     1.0000 0.24520  0.48890  0.70620  Biso   1.000  H
  H143     1.0000 0.20980  0.44920  0.65950  Biso   1.000  H
  H144     1.0000 0.19740  0.43240  0.69840  Biso   1.000  H
  C153     1.0000 0.35910  0.52870  0.70516  Biso   1.000  C
  C154     1.0000 0.38680  0.58590  0.74507  Biso   1.000  C
  H145     1.0000 0.38460  0.54990  0.76940  Biso   1.000  H
  C155     1.0000 0.41787  0.69580  0.74954  Biso   1.000  C
  C156     1.0000 0.42227  0.75100  0.71372  Biso   1.000  C
  H146     1.0000 0.44350  0.82360  0.71670  Biso   1.000  H
  C157     1.0000 0.39400  0.69450  0.67353  Biso   1.000  C
  C158     1.0000 0.36280  0.58700  0.66938  Biso   1.000  C
  H147     1.0000 0.34370  0.55260  0.64210  Biso   1.000  H
  C159     1.0000 0.44727  0.75500  0.79387  Biso   1.000  C
  C160     1.0000 0.06408  0.47890  0.59539  Biso   1.000  C
  C161     1.0000 0.09269  0.56920  0.58072  Biso   1.000  C
  C162     1.0000 0.08390  0.56990  0.53744  Biso   1.000  C
  H148     1.0000 0.06070  0.51290  0.51750  Biso   1.000  H
  C163     1.0000 0.11100  0.65890  0.52435  Biso   1.000  C
  C164     1.0000 0.14450  0.74470  0.55376  Biso   1.000  C
  H149     1.0000 0.16230  0.80200  0.54470  Biso   1.000  H
  C165     1.0000 0.15250  0.74810  0.59707  Biso   1.000  C
  C166     1.0000 0.12620  0.65800  0.61026  Biso   1.000  C
  H150     1.0000 0.13120  0.65760  0.63900  Biso   1.000  H
  C167     1.0000 0.10290  0.65870  0.47801  Biso   1.000  C
  C168     1.0000 0.40000  0.74500  0.63488  Biso   1.000  C
  La7      1.0000 0.99640  0.35750  0.61903  Biso   1.000  La
  O49      1.0000 0.04928  0.18100  0.67394  Biso   1.000  O
  O50      1.0000 0.03234  0.37820  0.70213  Biso   1.000  O
  O51      1.0000 0.42873  0.98210  0.86586  Biso   1.000  O
  O52      1.0000 0.46766  0.90260  0.93149  Biso   1.000  O
  O53      1.0000 0.42924  0.09310  0.04928  Biso   1.000  O
  O54      1.0000 0.36753  0.23110  0.02932  Biso   1.000  O
  H151     1.0000 0.37820  0.25560  0.05470  Biso   1.000  H
  O55      1.0000 0.06515  0.29900  0.86154  Biso   1.000  O
  O56      1.0000 0.13330  0.22480  0.90144  Biso   1.000  O
  N13      1.0000 0.17170  0.91720  0.80080  Biso   1.000  N
  H152     1.0000 0.18520  0.87770  0.82590  Biso   1.000  H
  N14      1.0000 0.31570  0.34220  0.87540  Biso   1.000  N
  H153     1.0000 0.29880  0.38740  0.88480  Biso   1.000  H
  C169     1.0000 0.30820  0.37200  0.83175  Biso   1.000  C
  H154     1.0000 0.33640  0.39690  0.83090  Biso   1.000  H
  H155     1.0000 0.29600  0.28420  0.81420  Biso   1.000  H
  C170     1.0000 0.27540  0.50080  0.81402  Biso   1.000  C
  C171     1.0000 0.22930  0.47220  0.79424  Biso   1.000  C
  C172     1.0000 0.19880  0.59080  0.77854  Biso   1.000  C
  C173     1.0000 0.21560  0.73680  0.78328  Biso   1.000  C
  C174     1.0000 0.26220  0.76560  0.80426  Biso   1.000  C
  C175     1.0000 0.29230  0.64600  0.81950  Biso   1.000  C
  C176     1.0000 0.18240  0.86380  0.76675  Biso   1.000  C
  H156     1.0000 0.15520  0.83020  0.74270  Biso   1.000  H
  H157     1.0000 0.19530  0.94390  0.75680  Biso   1.000  H
  C177     1.0000 0.14880  0.56230  0.75790  Biso   1.000  C
  H158     1.0000 0.14280  0.46920  0.76800  Biso   1.000  H
  H159     1.0000 0.13380  0.64100  0.76550  Biso   1.000  H
  H160     1.0000 0.13800  0.55880  0.72720  Biso   1.000  H
  C178     1.0000 0.21160  0.31500  0.79100  Biso   1.000  C
  H161     1.0000 0.23420  0.24580  0.79200  Biso   1.000  H
  H162     1.0000 0.20410  0.29620  0.81450  Biso   1.000  H
  H163     1.0000 0.18520  0.30340  0.76420  Biso   1.000  H
  C179     1.0000 0.34240  0.67780  0.84190  Biso   1.000  C
  H164     1.0000 0.35560  0.65990  0.82230  Biso   1.000  H
  H165     1.0000 0.34710  0.77980  0.85110  Biso   1.000  H
  H166     1.0000 0.35620  0.61390  0.86650  Biso   1.000  H
  C180     1.0000 0.27900  0.92320  0.81060  Biso   1.000  C
  H167     1.0000 0.25480  0.98890  0.79380  Biso   1.000  H
  H168     1.0000 0.29020  0.94920  0.84050  Biso   1.000  H
  H169     1.0000 0.30260  0.93240  0.80160  Biso   1.000  H
  C181     1.0000 0.14090  0.02870  0.79484  Biso   1.000  C
  C182     1.0000 0.11320  0.08590  0.75493  Biso   1.000  C
  H170     1.0000 0.11540  0.04990  0.73060  Biso   1.000  H
  C183     1.0000 0.08213  0.19580  0.75046  Biso   1.000  C
  C184     1.0000 0.07773  0.25100  0.78628  Biso   1.000  C
  H171     1.0000 0.05650  0.32360  0.78330  Biso   1.000  H
  C185     1.0000 0.10600  0.19450  0.82647  Biso   1.000  C
  C186     1.0000 0.13720  0.08700  0.83062  Biso   1.000  C
  H172     1.0000 0.15630  0.05260  0.85790  Biso   1.000  H
  C187     1.0000 0.05273  0.25500  0.70613  Biso   1.000  C
  C188     1.0000 0.43592  0.97890  0.90461  Biso   1.000  C
  C189     1.0000 0.40731  0.06920  0.91928  Biso   1.000  C
  C190     1.0000 0.41610  0.06990  0.96256  Biso   1.000  C
  H173     1.0000 0.43930  0.01290  0.98250  Biso   1.000  H
  C191     1.0000 0.38900  0.15890  0.97565  Biso   1.000  C
  C192     1.0000 0.35550  0.24470  0.94624  Biso   1.000  C
  H174     1.0000 0.33770  0.30200  0.95530  Biso   1.000  H
  C193     1.0000 0.34750  0.24810  0.90293  Biso   1.000  C
  C194     1.0000 0.37380  0.15800  0.88974  Biso   1.000  C
  H175     1.0000 0.36880  0.15760  0.86100  Biso   1.000  H
  C195     1.0000 0.39710  0.15870  0.02199  Biso   1.000  C
  C196     1.0000 0.10000  0.24500  0.86512  Biso   1.000  C
  La8      1.0000 0.49640  0.85750  0.61903  Biso   1.000  La
  O57      1.0000 0.54928  0.68100  0.67394  Biso   1.000  O
  O58      1.0000 0.53234  0.87820  0.70213  Biso   1.000  O
  O59      1.0000 0.92873  0.48210  0.86586  Biso   1.000  O
  O60      1.0000 0.96766  0.40260  0.93149  Biso   1.000  O
  O61      1.0000 0.92924  0.59310  0.04928  Biso   1.000  O
  O62      1.0000 0.86753  0.73110  0.02932  Biso   1.000  O
  H176     1.0000 0.87820  0.75560  0.05470  Biso   1.000  H
  O63      1.0000 0.56515  0.79900  0.86154  Biso   1.000  O
  O64      1.0000 0.63330  0.72480  0.90144  Biso   1.000  O
  N15      1.0000 0.67170  0.41720  0.80080  Biso   1.000  N
  H177     1.0000 0.68520  0.37770  0.82590  Biso   1.000  H
  N16      1.0000 0.81570  0.84220  0.87540  Biso   1.000  N
  H178     1.0000 0.79880  0.88740  0.88480  Biso   1.000  H
  C197     1.0000 0.80820  0.87200  0.83175  Biso   1.000  C
  H179     1.0000 0.83640  0.89690  0.83090  Biso   1.000  H
  H180     1.0000 0.79600  0.78420  0.81420  Biso   1.000  H
  C198     1.0000 0.77540  0.00080  0.81402  Biso   1.000  C
  C199     1.0000 0.72930  0.97220  0.79424  Biso   1.000  C
  C200     1.0000 0.69880  0.09080  0.77854  Biso   1.000  C
  C201     1.0000 0.71560  0.23680  0.78328  Biso   1.000  C
  C202     1.0000 0.76220  0.26560  0.80426  Biso   1.000  C
  C203     1.0000 0.79230  0.14600  0.81950  Biso   1.000  C
  C204     1.0000 0.68240  0.36380  0.76675  Biso   1.000  C
  H181     1.0000 0.65520  0.33020  0.74270  Biso   1.000  H
  H182     1.0000 0.69530  0.44390  0.75680  Biso   1.000  H
  C205     1.0000 0.64880  0.06230  0.75790  Biso   1.000  C
  H183     1.0000 0.64280  0.96920  0.76800  Biso   1.000  H
  H184     1.0000 0.63380  0.14100  0.76550  Biso   1.000  H
  H185     1.0000 0.63800  0.05880  0.72720  Biso   1.000  H
  C206     1.0000 0.71160  0.81500  0.79100  Biso   1.000  C
  H186     1.0000 0.73420  0.74580  0.79200  Biso   1.000  H
  H187     1.0000 0.70410  0.79620  0.81450  Biso   1.000  H
  H188     1.0000 0.68520  0.80340  0.76420  Biso   1.000  H
  C207     1.0000 0.84240  0.17780  0.84190  Biso   1.000  C
  H189     1.0000 0.85560  0.15990  0.82230  Biso   1.000  H
  H190     1.0000 0.84710  0.27980  0.85110  Biso   1.000  H
  H191     1.0000 0.85620  0.11390  0.86650  Biso   1.000  H
  C208     1.0000 0.77900  0.42320  0.81060  Biso   1.000  C
  H192     1.0000 0.75480  0.48890  0.79380  Biso   1.000  H
  H193     1.0000 0.79020  0.44920  0.84050  Biso   1.000  H
  H194     1.0000 0.80260  0.43240  0.80160  Biso   1.000  H
  C209     1.0000 0.64090  0.52870  0.79484  Biso   1.000  C
  C210     1.0000 0.61320  0.58590  0.75493  Biso   1.000  C
  H195     1.0000 0.61540  0.54990  0.73060  Biso   1.000  H
  C211     1.0000 0.58213  0.69580  0.75046  Biso   1.000  C
  C212     1.0000 0.57773  0.75100  0.78628  Biso   1.000  C
  H196     1.0000 0.55650  0.82360  0.78330  Biso   1.000  H
  C213     1.0000 0.60600  0.69450  0.82647  Biso   1.000  C
  C214     1.0000 0.63720  0.58700  0.83062  Biso   1.000  C
  H197     1.0000 0.65630  0.55260  0.85790  Biso   1.000  H
  C215     1.0000 0.55273  0.75500  0.70613  Biso   1.000  C
  C216     1.0000 0.93592  0.47890  0.90461  Biso   1.000  C
  C217     1.0000 0.90731  0.56920  0.91928  Biso   1.000  C
  C218     1.0000 0.91610  0.56990  0.96256  Biso   1.000  C
  H198     1.0000 0.93930  0.51290  0.98250  Biso   1.000  H
  C219     1.0000 0.88900  0.65890  0.97565  Biso   1.000  C
  C220     1.0000 0.85550  0.74470  0.94624  Biso   1.000  C
  H199     1.0000 0.83770  0.80200  0.95530  Biso   1.000  H
  C221     1.0000 0.84750  0.74810  0.90293  Biso   1.000  C
  C222     1.0000 0.87380  0.65800  0.88974  Biso   1.000  C
  H200     1.0000 0.86880  0.65760  0.86100  Biso   1.000  H
  C223     1.0000 0.89710  0.65870  0.02199  Biso   1.000  C
  C224     1.0000 0.60000  0.74500  0.86512  Biso   1.000  C
