data_image0
_cell_length_a       32.14
_cell_length_b       9.156
_cell_length_c       26.864
_cell_angle_alpha    90
_cell_angle_beta     112.859
_cell_angle_gamma    90

_symmetry_space_group_name_H-M    "P 1"
_symmetry_int_tables_number       1

loop_
  _symmetry_equiv_pos_as_xyz
  'x, y, z'

loop_
  _atom_site_label
  _atom_site_occupancy
  _atom_site_fract_x
  _atom_site_fract_y
  _atom_site_fract_z
  _atom_site_thermal_displace_type
  _atom_site_B_iso_or_equiv
  _atom_site_type_symbol
  Sm1      1.0000 0.11166  0.89489  0.90881  Biso   1.000  Sm
  O1       1.0000 0.42300  0.41620  0.69280  Biso   1.000  O
  O2       1.0000 0.37670  0.23660  0.65650  Biso   1.000  O
  O3       1.0000 0.53780  0.30720  0.88410  Biso   1.000  O
  O4       1.0000 0.52260  0.12500  0.92930  Biso   1.000  O
  O5       1.0000 0.17110  0.03310  0.89730  Biso   1.000  O
  O6       1.0000 0.19220  0.91430  0.97190  Biso   1.000  O
  O7       1.0000 0.40550  0.01360  0.03010  Biso   1.000  O
  H1       1.0000 0.42430  0.94790  0.03680  Biso   1.000  H
  O8       1.0000 0.36750  0.84140  0.04960  Biso   1.000  O
  N1       1.0000 0.37120  0.93840  0.81170  Biso   1.000  N
  H2       1.0000 0.38040  0.89330  0.84220  Biso   1.000  H
  N2       1.0000 0.29820  0.37110  0.91290  Biso   1.000  N
  H3       1.0000 0.32320  0.41900  0.92550  Biso   1.000  H
  C1       1.0000 0.51280  0.20940  0.88910  Biso   1.000  C
  C2       1.0000 0.46740  0.18810  0.84300  Biso   1.000  C
  C3       1.0000 0.45580  0.26160  0.79400  Biso   1.000  C
  H4       1.0000 0.47490  0.33330  0.79040  Biso   1.000  H
  C4       1.0000 0.41630  0.22930  0.75090  Biso   1.000  C
  C5       1.0000 0.38750  0.11970  0.75570  Biso   1.000  C
  H5       1.0000 0.36140  0.09470  0.72610  Biso   1.000  H
  C6       1.0000 0.39840  0.04780  0.80570  Biso   1.000  C
  C7       1.0000 0.43810  0.08040  0.84790  Biso   1.000  C
  H6       1.0000 0.44570  0.03040  0.88040  Biso   1.000  H
  C8       1.0000 0.40420  0.29750  0.69740  Biso   1.000  C
  C9       1.0000 0.32890  0.89410  0.77100  Biso   1.000  C
  H7       1.0000 0.33320  0.86450  0.73860  Biso   1.000  H
  H8       1.0000 0.30780  0.97510  0.76190  Biso   1.000  H
  C10      1.0000 0.31010  0.76650  0.79260  Biso   1.000  C
  C11      1.0000 0.32070  0.62390  0.78470  Biso   1.000  C
  C12      1.0000 0.30490  0.50990  0.80790  Biso   1.000  C
  C13      1.0000 0.27880  0.54380  0.83820  Biso   1.000  C
  C14      1.0000 0.26920  0.68640  0.84650  Biso   1.000  C
  C15      1.0000 0.28560  0.79760  0.82300  Biso   1.000  C
  C16      1.0000 0.27680  0.95540  0.83570  Biso   1.000  C
  H9       1.0000 0.28940  0.02170  0.81760  Biso   1.000  H
  H10      1.0000 0.29070  0.97150  0.87390  Biso   1.000  H
  H11      1.0000 0.24490  0.97150  0.82340  Biso   1.000  H
  C17      1.0000 0.24270  0.71860  0.88030  Biso   1.000  C
  H12      1.0000 0.21770  0.65220  0.87090  Biso   1.000  H
  H13      1.0000 0.23160  0.81700  0.87380  Biso   1.000  H
  H14      1.0000 0.26180  0.70720  0.91780  Biso   1.000  H
  C18      1.0000 0.31590  0.35010  0.80110  Biso   1.000  C
  H15      1.0000 0.31040  0.33190  0.76380  Biso   1.000  H
  H16      1.0000 0.29710  0.28730  0.81200  Biso   1.000  H
  H17      1.0000 0.34710  0.33110  0.82300  Biso   1.000  H
  C19      1.0000 0.34790  0.58830  0.75110  Biso   1.000  C
  H18      1.0000 0.34170  0.65940  0.72290  Biso   1.000  H
  H19      1.0000 0.33980  0.49290  0.73550  Biso   1.000  H
  H20      1.0000 0.37950  0.59000  0.77370  Biso   1.000  H
  C20      1.0000 0.26160  0.41950  0.86350  Biso   1.000  C
  H21      1.0000 0.23640  0.45350  0.87170  Biso   1.000  H
  H22      1.0000 0.25130  0.33880  0.83830  Biso   1.000  H
  C21      1.0000 0.29240  0.24770  0.93930  Biso   1.000  C
  C22      1.0000 0.25070  0.18610  0.92910  Biso   1.000  C
  H23      1.0000 0.22510  0.22950  0.90380  Biso   1.000  H
  C23      1.0000 0.24600  0.06170  0.95560  Biso   1.000  C
  C24      1.0000 0.28460  0.98970  0.99110  Biso   1.000  C
  H24      1.0000 0.28210  0.90520  0.00890  Biso   1.000  H
  C25      1.0000 0.32650  0.04680  0.99920  Biso   1.000  C
  C26      1.0000 0.33120  0.17690  0.97540  Biso   1.000  C
  H25      1.0000 0.35960  0.21700  0.98330  Biso   1.000  H
  C27      1.0000 0.36720  0.96010  0.02870  Biso   1.000  C
  C28      1.0000 0.20080  0.99900  0.94210  Biso   1.000  C
  Sm2      1.0000 0.61166  0.39489  0.90881  Biso   1.000  Sm
  O9       1.0000 0.92300  0.91620  0.69280  Biso   1.000  O
  O10      1.0000 0.87670  0.73660  0.65650  Biso   1.000  O
  O11      1.0000 0.03780  0.80720  0.88410  Biso   1.000  O
  O12      1.0000 0.02260  0.62500  0.92930  Biso   1.000  O
  O13      1.0000 0.67110  0.53310  0.89730  Biso   1.000  O
  O14      1.0000 0.69220  0.41430  0.97190  Biso   1.000  O
  O15      1.0000 0.90550  0.51360  0.03010  Biso   1.000  O
  H26      1.0000 0.92430  0.44790  0.03680  Biso   1.000  H
  O16      1.0000 0.86750  0.34140  0.04960  Biso   1.000  O
  N3       1.0000 0.87120  0.43840  0.81170  Biso   1.000  N
  H27      1.0000 0.88040  0.39330  0.84220  Biso   1.000  H
  N4       1.0000 0.79820  0.87110  0.91290  Biso   1.000  N
  H28      1.0000 0.82320  0.91900  0.92550  Biso   1.000  H
  C29      1.0000 0.01280  0.70940  0.88910  Biso   1.000  C
  C30      1.0000 0.96740  0.68810  0.84300  Biso   1.000  C
  C31      1.0000 0.95580  0.76160  0.79400  Biso   1.000  C
  H29      1.0000 0.97490  0.83330  0.79040  Biso   1.000  H
  C32      1.0000 0.91630  0.72930  0.75090  Biso   1.000  C
  C33      1.0000 0.88750  0.61970  0.75570  Biso   1.000  C
  H30      1.0000 0.86140  0.59470  0.72610  Biso   1.000  H
  C34      1.0000 0.89840  0.54780  0.80570  Biso   1.000  C
  C35      1.0000 0.93810  0.58040  0.84790  Biso   1.000  C
  H31      1.0000 0.94570  0.53040  0.88040  Biso   1.000  H
  C36      1.0000 0.90420  0.79750  0.69740  Biso   1.000  C
  C37      1.0000 0.82890  0.39410  0.77100  Biso   1.000  C
  H32      1.0000 0.83320  0.36450  0.73860  Biso   1.000  H
  H33      1.0000 0.80780  0.47510  0.76190  Biso   1.000  H
  C38      1.0000 0.81010  0.26650  0.79260  Biso   1.000  C
  C39      1.0000 0.82070  0.12390  0.78470  Biso   1.000  C
  C40      1.0000 0.80490  0.00990  0.80790  Biso   1.000  C
  C41      1.0000 0.77880  0.04380  0.83820  Biso   1.000  C
  C42      1.0000 0.76920  0.18640  0.84650  Biso   1.000  C
  C43      1.0000 0.78560  0.29760  0.82300  Biso   1.000  C
  C44      1.0000 0.77680  0.45540  0.83570  Biso   1.000  C
  H34      1.0000 0.78940  0.52170  0.81760  Biso   1.000  H
  H35      1.0000 0.79070  0.47150  0.87390  Biso   1.000  H
  H36      1.0000 0.74490  0.47150  0.82340  Biso   1.000  H
  C45      1.0000 0.74270  0.21860  0.88030  Biso   1.000  C
  H37      1.0000 0.71770  0.15220  0.87090  Biso   1.000  H
  H38      1.0000 0.73160  0.31700  0.87380  Biso   1.000  H
  H39      1.0000 0.76180  0.20720  0.91780  Biso   1.000  H
  C46      1.0000 0.81590  0.85010  0.80110  Biso   1.000  C
  H40      1.0000 0.81040  0.83190  0.76380  Biso   1.000  H
  H41      1.0000 0.79710  0.78730  0.81200  Biso   1.000  H
  H42      1.0000 0.84710  0.83110  0.82300  Biso   1.000  H
  C47      1.0000 0.84790  0.08830  0.75110  Biso   1.000  C
  H43      1.0000 0.84170  0.15940  0.72290  Biso   1.000  H
  H44      1.0000 0.83980  0.99290  0.73550  Biso   1.000  H
  H45      1.0000 0.87950  0.09000  0.77370  Biso   1.000  H
  C48      1.0000 0.76160  0.91950  0.86350  Biso   1.000  C
  H46      1.0000 0.73640  0.95350  0.87170  Biso   1.000  H
  H47      1.0000 0.75130  0.83880  0.83830  Biso   1.000  H
  C49      1.0000 0.79240  0.74770  0.93930  Biso   1.000  C
  C50      1.0000 0.75070  0.68610  0.92910  Biso   1.000  C
  H48      1.0000 0.72510  0.72950  0.90380  Biso   1.000  H
  C51      1.0000 0.74600  0.56170  0.95560  Biso   1.000  C
  C52      1.0000 0.78460  0.48970  0.99110  Biso   1.000  C
  H49      1.0000 0.78210  0.40520  0.00890  Biso   1.000  H
  C53      1.0000 0.82650  0.54680  0.99920  Biso   1.000  C
  C54      1.0000 0.83120  0.67690  0.97540  Biso   1.000  C
  H50      1.0000 0.85960  0.71700  0.98330  Biso   1.000  H
  C55      1.0000 0.86720  0.46010  0.02870  Biso   1.000  C
  C56      1.0000 0.70080  0.49900  0.94210  Biso   1.000  C
  Sm3      1.0000 0.88834  0.89489  0.59119  Biso   1.000  Sm
  O17      1.0000 0.57700  0.41620  0.80720  Biso   1.000  O
  O18      1.0000 0.62330  0.23660  0.84350  Biso   1.000  O
  O19      1.0000 0.46220  0.30720  0.61590  Biso   1.000  O
  O20      1.0000 0.47740  0.12500  0.57070  Biso   1.000  O
  O21      1.0000 0.82890  0.03310  0.60270  Biso   1.000  O
  O22      1.0000 0.80780  0.91430  0.52810  Biso   1.000  O
  O23      1.0000 0.59450  0.01360  0.46990  Biso   1.000  O
  H51      1.0000 0.57570  0.94790  0.46320  Biso   1.000  H
  O24      1.0000 0.63250  0.84140  0.45040  Biso   1.000  O
  N5       1.0000 0.62880  0.93840  0.68830  Biso   1.000  N
  H52      1.0000 0.61960  0.89330  0.65780  Biso   1.000  H
  N6       1.0000 0.70180  0.37110  0.58710  Biso   1.000  N
  H53      1.0000 0.67680  0.41900  0.57450  Biso   1.000  H
  C57      1.0000 0.48720  0.20940  0.61090  Biso   1.000  C
  C58      1.0000 0.53260  0.18810  0.65700  Biso   1.000  C
  C59      1.0000 0.54420  0.26160  0.70600  Biso   1.000  C
  H54      1.0000 0.52510  0.33330  0.70960  Biso   1.000  H
  C60      1.0000 0.58370  0.22930  0.74910  Biso   1.000  C
  C61      1.0000 0.61250  0.11970  0.74430  Biso   1.000  C
  H55      1.0000 0.63860  0.09470  0.77390  Biso   1.000  H
  C62      1.0000 0.60160  0.04780  0.69430  Biso   1.000  C
  C63      1.0000 0.56190  0.08040  0.65210  Biso   1.000  C
  H56      1.0000 0.55430  0.03040  0.61960  Biso   1.000  H
  C64      1.0000 0.59580  0.29750  0.80260  Biso   1.000  C
  C65      1.0000 0.67110  0.89410  0.72900  Biso   1.000  C
  H57      1.0000 0.66680  0.86450  0.76140  Biso   1.000  H
  H58      1.0000 0.69220  0.97510  0.73810  Biso   1.000  H
  C66      1.0000 0.68990  0.76650  0.70740  Biso   1.000  C
  C67      1.0000 0.67930  0.62390  0.71530  Biso   1.000  C
  C68      1.0000 0.69510  0.50990  0.69210  Biso   1.000  C
  C69      1.0000 0.72120  0.54380  0.66180  Biso   1.000  C
  C70      1.0000 0.73080  0.68640  0.65350  Biso   1.000  C
  C71      1.0000 0.71440  0.79760  0.67700  Biso   1.000  C
  C72      1.0000 0.72320  0.95540  0.66430  Biso   1.000  C
  H59      1.0000 0.71060  0.02170  0.68240  Biso   1.000  H
  H60      1.0000 0.70930  0.97150  0.62610  Biso   1.000  H
  H61      1.0000 0.75510  0.97150  0.67660  Biso   1.000  H
  C73      1.0000 0.75730  0.71860  0.61970  Biso   1.000  C
  H62      1.0000 0.78230  0.65220  0.62910  Biso   1.000  H
  H63      1.0000 0.76840  0.81700  0.62620  Biso   1.000  H
  H64      1.0000 0.73820  0.70720  0.58220  Biso   1.000  H
  C74      1.0000 0.68410  0.35010  0.69890  Biso   1.000  C
  H65      1.0000 0.68960  0.33190  0.73620  Biso   1.000  H
  H66      1.0000 0.70290  0.28730  0.68800  Biso   1.000  H
  H67      1.0000 0.65290  0.33110  0.67700  Biso   1.000  H
  C75      1.0000 0.65210  0.58830  0.74890  Biso   1.000  C
  H68      1.0000 0.65830  0.65940  0.77710  Biso   1.000  H
  H69      1.0000 0.66020  0.49290  0.76450  Biso   1.000  H
  H70      1.0000 0.62050  0.59000  0.72630  Biso   1.000  H
  C76      1.0000 0.73840  0.41950  0.63650  Biso   1.000  C
  H71      1.0000 0.76360  0.45350  0.62830  Biso   1.000  H
  H72      1.0000 0.74870  0.33880  0.66170  Biso   1.000  H
  C77      1.0000 0.70760  0.24770  0.56070  Biso   1.000  C
  C78      1.0000 0.74930  0.18610  0.57090  Biso   1.000  C
  H73      1.0000 0.77490  0.22950  0.59620  Biso   1.000  H
  C79      1.0000 0.75400  0.06170  0.54440  Biso   1.000  C
  C80      1.0000 0.71540  0.98970  0.50890  Biso   1.000  C
  H74      1.0000 0.71790  0.90520  0.49110  Biso   1.000  H
  C81      1.0000 0.67350  0.04680  0.50080  Biso   1.000  C
  C82      1.0000 0.66880  0.17690  0.52460  Biso   1.000  C
  H75      1.0000 0.64040  0.21700  0.51670  Biso   1.000  H
  C83      1.0000 0.63280  0.96010  0.47130  Biso   1.000  C
  C84      1.0000 0.79920  0.99900  0.55790  Biso   1.000  C
  Sm4      1.0000 0.38834  0.39489  0.59119  Biso   1.000  Sm
  O25      1.0000 0.07700  0.91620  0.80720  Biso   1.000  O
  O26      1.0000 0.12330  0.73660  0.84350  Biso   1.000  O
  O27      1.0000 0.96220  0.80720  0.61590  Biso   1.000  O
  O28      1.0000 0.97740  0.62500  0.57070  Biso   1.000  O
  O29      1.0000 0.32890  0.53310  0.60270  Biso   1.000  O
  O30      1.0000 0.30780  0.41430  0.52810  Biso   1.000  O
  O31      1.0000 0.09450  0.51360  0.46990  Biso   1.000  O
  H76      1.0000 0.07570  0.44790  0.46320  Biso   1.000  H
  O32      1.0000 0.13250  0.34140  0.45040  Biso   1.000  O
  N7       1.0000 0.12880  0.43840  0.68830  Biso   1.000  N
  H77      1.0000 0.11960  0.39330  0.65780  Biso   1.000  H
  N8       1.0000 0.20180  0.87110  0.58710  Biso   1.000  N
  H78      1.0000 0.17680  0.91900  0.57450  Biso   1.000  H
  C85      1.0000 0.98720  0.70940  0.61090  Biso   1.000  C
  C86      1.0000 0.03260  0.68810  0.65700  Biso   1.000  C
  C87      1.0000 0.04420  0.76160  0.70600  Biso   1.000  C
  H79      1.0000 0.02510  0.83330  0.70960  Biso   1.000  H
  C88      1.0000 0.08370  0.72930  0.74910  Biso   1.000  C
  C89      1.0000 0.11250  0.61970  0.74430  Biso   1.000  C
  H80      1.0000 0.13860  0.59470  0.77390  Biso   1.000  H
  C90      1.0000 0.10160  0.54780  0.69430  Biso   1.000  C
  C91      1.0000 0.06190  0.58040  0.65210  Biso   1.000  C
  H81      1.0000 0.05430  0.53040  0.61960  Biso   1.000  H
  C92      1.0000 0.09580  0.79750  0.80260  Biso   1.000  C
  C93      1.0000 0.17110  0.39410  0.72900  Biso   1.000  C
  H82      1.0000 0.16680  0.36450  0.76140  Biso   1.000  H
  H83      1.0000 0.19220  0.47510  0.73810  Biso   1.000  H
  C94      1.0000 0.18990  0.26650  0.70740  Biso   1.000  C
  C95      1.0000 0.17930  0.12390  0.71530  Biso   1.000  C
  C96      1.0000 0.19510  0.00990  0.69210  Biso   1.000  C
  C97      1.0000 0.22120  0.04380  0.66180  Biso   1.000  C
  C98      1.0000 0.23080  0.18640  0.65350  Biso   1.000  C
  C99      1.0000 0.21440  0.29760  0.67700  Biso   1.000  C
  C100     1.0000 0.22320  0.45540  0.66430  Biso   1.000  C
  H84      1.0000 0.21060  0.52170  0.68240  Biso   1.000  H
  H85      1.0000 0.20930  0.47150  0.62610  Biso   1.000  H
  H86      1.0000 0.25510  0.47150  0.67660  Biso   1.000  H
  C101     1.0000 0.25730  0.21860  0.61970  Biso   1.000  C
  H87      1.0000 0.28230  0.15220  0.62910  Biso   1.000  H
  H88      1.0000 0.26840  0.31700  0.62620  Biso   1.000  H
  H89      1.0000 0.23820  0.20720  0.58220  Biso   1.000  H
  C102     1.0000 0.18410  0.85010  0.69890  Biso   1.000  C
  H90      1.0000 0.18960  0.83190  0.73620  Biso   1.000  H
  H91      1.0000 0.20290  0.78730  0.68800  Biso   1.000  H
  H92      1.0000 0.15290  0.83110  0.67700  Biso   1.000  H
  C103     1.0000 0.15210  0.08830  0.74890  Biso   1.000  C
  H93      1.0000 0.15830  0.15940  0.77710  Biso   1.000  H
  H94      1.0000 0.16020  0.99290  0.76450  Biso   1.000  H
  H95      1.0000 0.12050  0.09000  0.72630  Biso   1.000  H
  C104     1.0000 0.23840  0.91950  0.63650  Biso   1.000  C
  H96      1.0000 0.26360  0.95350  0.62830  Biso   1.000  H
  H97      1.0000 0.24870  0.83880  0.66170  Biso   1.000  H
  C105     1.0000 0.20760  0.74770  0.56070  Biso   1.000  C
  C106     1.0000 0.24930  0.68610  0.57090  Biso   1.000  C
  H98      1.0000 0.27490  0.72950  0.59620  Biso   1.000  H
  C107     1.0000 0.25400  0.56170  0.54440  Biso   1.000  C
  C108     1.0000 0.21540  0.48970  0.50890  Biso   1.000  C
  H99      1.0000 0.21790  0.40520  0.49110  Biso   1.000  H
  C109     1.0000 0.17350  0.54680  0.50080  Biso   1.000  C
  C110     1.0000 0.16880  0.67690  0.52460  Biso   1.000  C
  H100     1.0000 0.14040  0.71700  0.51670  Biso   1.000  H
  C111     1.0000 0.13280  0.46010  0.47130  Biso   1.000  C
  C112     1.0000 0.29920  0.49900  0.55790  Biso   1.000  C
  Sm5      1.0000 0.88834  0.10511  0.09119  Biso   1.000  Sm
  O33      1.0000 0.57700  0.58380  0.30720  Biso   1.000  O
  O34      1.0000 0.62330  0.76340  0.34350  Biso   1.000  O
  O35      1.0000 0.46220  0.69280  0.11590  Biso   1.000  O
  O36      1.0000 0.47740  0.87500  0.07070  Biso   1.000  O
  O37      1.0000 0.82890  0.96690  0.10270  Biso   1.000  O
  O38      1.0000 0.80780  0.08570  0.02810  Biso   1.000  O
  O39      1.0000 0.59450  0.98640  0.96990  Biso   1.000  O
  H101     1.0000 0.57570  0.05210  0.96320  Biso   1.000  H
  O40      1.0000 0.63250  0.15860  0.95040  Biso   1.000  O
  N9       1.0000 0.62880  0.06160  0.18830  Biso   1.000  N
  H102     1.0000 0.61960  0.10670  0.15780  Biso   1.000  H
  N10      1.0000 0.70180  0.62890  0.08710  Biso   1.000  N
  H103     1.0000 0.67680  0.58100  0.07450  Biso   1.000  H
  C113     1.0000 0.48720  0.79060  0.11090  Biso   1.000  C
  C114     1.0000 0.53260  0.81190  0.15700  Biso   1.000  C
  C115     1.0000 0.54420  0.73840  0.20600  Biso   1.000  C
  H104     1.0000 0.52510  0.66670  0.20960  Biso   1.000  H
  C116     1.0000 0.58370  0.77070  0.24910  Biso   1.000  C
  C117     1.0000 0.61250  0.88030  0.24430  Biso   1.000  C
  H105     1.0000 0.63860  0.90530  0.27390  Biso   1.000  H
  C118     1.0000 0.60160  0.95220  0.19430  Biso   1.000  C
  C119     1.0000 0.56190  0.91960  0.15210  Biso   1.000  C
  H106     1.0000 0.55430  0.96960  0.11960  Biso   1.000  H
  C120     1.0000 0.59580  0.70250  0.30260  Biso   1.000  C
  C121     1.0000 0.67110  0.10590  0.22900  Biso   1.000  C
  H107     1.0000 0.66680  0.13550  0.26140  Biso   1.000  H
  H108     1.0000 0.69220  0.02490  0.23810  Biso   1.000  H
  C122     1.0000 0.68990  0.23350  0.20740  Biso   1.000  C
  C123     1.0000 0.67930  0.37610  0.21530  Biso   1.000  C
  C124     1.0000 0.69510  0.49010  0.19210  Biso   1.000  C
  C125     1.0000 0.72120  0.45620  0.16180  Biso   1.000  C
  C126     1.0000 0.73080  0.31360  0.15350  Biso   1.000  C
  C127     1.0000 0.71440  0.20240  0.17700  Biso   1.000  C
  C128     1.0000 0.72320  0.04460  0.16430  Biso   1.000  C
  H109     1.0000 0.71060  0.97830  0.18240  Biso   1.000  H
  H110     1.0000 0.70930  0.02850  0.12610  Biso   1.000  H
  H111     1.0000 0.75510  0.02850  0.17660  Biso   1.000  H
  C129     1.0000 0.75730  0.28140  0.11970  Biso   1.000  C
  H112     1.0000 0.78230  0.34780  0.12910  Biso   1.000  H
  H113     1.0000 0.76840  0.18300  0.12620  Biso   1.000  H
  H114     1.0000 0.73820  0.29280  0.08220  Biso   1.000  H
  C130     1.0000 0.68410  0.64990  0.19890  Biso   1.000  C
  H115     1.0000 0.68960  0.66810  0.23620  Biso   1.000  H
  H116     1.0000 0.70290  0.71270  0.18800  Biso   1.000  H
  H117     1.0000 0.65290  0.66890  0.17700  Biso   1.000  H
  C131     1.0000 0.65210  0.41170  0.24890  Biso   1.000  C
  H118     1.0000 0.65830  0.34060  0.27710  Biso   1.000  H
  H119     1.0000 0.66020  0.50710  0.26450  Biso   1.000  H
  H120     1.0000 0.62050  0.41000  0.22630  Biso   1.000  H
  C132     1.0000 0.73840  0.58050  0.13650  Biso   1.000  C
  H121     1.0000 0.76360  0.54650  0.12830  Biso   1.000  H
  H122     1.0000 0.74870  0.66120  0.16170  Biso   1.000  H
  C133     1.0000 0.70760  0.75230  0.06070  Biso   1.000  C
  C134     1.0000 0.74930  0.81390  0.07090  Biso   1.000  C
  H123     1.0000 0.77490  0.77050  0.09620  Biso   1.000  H
  C135     1.0000 0.75400  0.93830  0.04440  Biso   1.000  C
  C136     1.0000 0.71540  0.01030  0.00890  Biso   1.000  C
  H124     1.0000 0.71790  0.09480  0.99110  Biso   1.000  H
  C137     1.0000 0.67350  0.95320  0.00080  Biso   1.000  C
  C138     1.0000 0.66880  0.82310  0.02460  Biso   1.000  C
  H125     1.0000 0.64040  0.78300  0.01670  Biso   1.000  H
  C139     1.0000 0.63280  0.03990  0.97130  Biso   1.000  C
  C140     1.0000 0.79920  0.00100  0.05790  Biso   1.000  C
  Sm6      1.0000 0.38834  0.60511  0.09119  Biso   1.000  Sm
  O41      1.0000 0.07700  0.08380  0.30720  Biso   1.000  O
  O42      1.0000 0.12330  0.26340  0.34350  Biso   1.000  O
  O43      1.0000 0.96220  0.19280  0.11590  Biso   1.000  O
  O44      1.0000 0.97740  0.37500  0.07070  Biso   1.000  O
  O45      1.0000 0.32890  0.46690  0.10270  Biso   1.000  O
  O46      1.0000 0.30780  0.58570  0.02810  Biso   1.000  O
  O47      1.0000 0.09450  0.48640  0.96990  Biso   1.000  O
  H126     1.0000 0.07570  0.55210  0.96320  Biso   1.000  H
  O48      1.0000 0.13250  0.65860  0.95040  Biso   1.000  O
  N11      1.0000 0.12880  0.56160  0.18830  Biso   1.000  N
  H127     1.0000 0.11960  0.60670  0.15780  Biso   1.000  H
  N12      1.0000 0.20180  0.12890  0.08710  Biso   1.000  N
  H128     1.0000 0.17680  0.08100  0.07450  Biso   1.000  H
  C141     1.0000 0.98720  0.29060  0.11090  Biso   1.000  C
  C142     1.0000 0.03260  0.31190  0.15700  Biso   1.000  C
  C143     1.0000 0.04420  0.23840  0.20600  Biso   1.000  C
  H129     1.0000 0.02510  0.16670  0.20960  Biso   1.000  H
  C144     1.0000 0.08370  0.27070  0.24910  Biso   1.000  C
  C145     1.0000 0.11250  0.38030  0.24430  Biso   1.000  C
  H130     1.0000 0.13860  0.40530  0.27390  Biso   1.000  H
  C146     1.0000 0.10160  0.45220  0.19430  Biso   1.000  C
  C147     1.0000 0.06190  0.41960  0.15210  Biso   1.000  C
  H131     1.0000 0.05430  0.46960  0.11960  Biso   1.000  H
  C148     1.0000 0.09580  0.20250  0.30260  Biso   1.000  C
  C149     1.0000 0.17110  0.60590  0.22900  Biso   1.000  C
  H132     1.0000 0.16680  0.63550  0.26140  Biso   1.000  H
  H133     1.0000 0.19220  0.52490  0.23810  Biso   1.000  H
  C150     1.0000 0.18990  0.73350  0.20740  Biso   1.000  C
  C151     1.0000 0.17930  0.87610  0.21530  Biso   1.000  C
  C152     1.0000 0.19510  0.99010  0.19210  Biso   1.000  C
  C153     1.0000 0.22120  0.95620  0.16180  Biso   1.000  C
  C154     1.0000 0.23080  0.81360  0.15350  Biso   1.000  C
  C155     1.0000 0.21440  0.70240  0.17700  Biso   1.000  C
  C156     1.0000 0.22320  0.54460  0.16430  Biso   1.000  C
  H134     1.0000 0.21060  0.47830  0.18240  Biso   1.000  H
  H135     1.0000 0.20930  0.52850  0.12610  Biso   1.000  H
  H136     1.0000 0.25510  0.52850  0.17660  Biso   1.000  H
  C157     1.0000 0.25730  0.78140  0.11970  Biso   1.000  C
  H137     1.0000 0.28230  0.84780  0.12910  Biso   1.000  H
  H138     1.0000 0.26840  0.68300  0.12620  Biso   1.000  H
  H139     1.0000 0.23820  0.79280  0.08220  Biso   1.000  H
  C158     1.0000 0.18410  0.14990  0.19890  Biso   1.000  C
  H140     1.0000 0.18960  0.16810  0.23620  Biso   1.000  H
  H141     1.0000 0.20290  0.21270  0.18800  Biso   1.000  H
  H142     1.0000 0.15290  0.16890  0.17700  Biso   1.000  H
  C159     1.0000 0.15210  0.91170  0.24890  Biso   1.000  C
  H143     1.0000 0.15830  0.84060  0.27710  Biso   1.000  H
  H144     1.0000 0.16020  0.00710  0.26450  Biso   1.000  H
  H145     1.0000 0.12050  0.91000  0.22630  Biso   1.000  H
  C160     1.0000 0.23840  0.08050  0.13650  Biso   1.000  C
  H146     1.0000 0.26360  0.04650  0.12830  Biso   1.000  H
  H147     1.0000 0.24870  0.16120  0.16170  Biso   1.000  H
  C161     1.0000 0.20760  0.25230  0.06070  Biso   1.000  C
  C162     1.0000 0.24930  0.31390  0.07090  Biso   1.000  C
  H148     1.0000 0.27490  0.27050  0.09620  Biso   1.000  H
  C163     1.0000 0.25400  0.43830  0.04440  Biso   1.000  C
  C164     1.0000 0.21540  0.51030  0.00890  Biso   1.000  C
  H149     1.0000 0.21790  0.59480  0.99110  Biso   1.000  H
  C165     1.0000 0.17350  0.45320  0.00080  Biso   1.000  C
  C166     1.0000 0.16880  0.32310  0.02460  Biso   1.000  C
  H150     1.0000 0.14040  0.28300  0.01670  Biso   1.000  H
  C167     1.0000 0.13280  0.53990  0.97130  Biso   1.000  C
  C168     1.0000 0.29920  0.50100  0.05790  Biso   1.000  C
  Sm7      1.0000 0.11166  0.10511  0.40881  Biso   1.000  Sm
  O49      1.0000 0.42300  0.58380  0.19280  Biso   1.000  O
  O50      1.0000 0.37670  0.76340  0.15650  Biso   1.000  O
  O51      1.0000 0.53780  0.69280  0.38410  Biso   1.000  O
  O52      1.0000 0.52260  0.87500  0.42930  Biso   1.000  O
  O53      1.0000 0.17110  0.96690  0.39730  Biso   1.000  O
  O54      1.0000 0.19220  0.08570  0.47190  Biso   1.000  O
  O55      1.0000 0.40550  0.98640  0.53010  Biso   1.000  O
  H151     1.0000 0.42430  0.05210  0.53680  Biso   1.000  H
  O56      1.0000 0.36750  0.15860  0.54960  Biso   1.000  O
  N13      1.0000 0.37120  0.06160  0.31170  Biso   1.000  N
  H152     1.0000 0.38040  0.10670  0.34220  Biso   1.000  H
  N14      1.0000 0.29820  0.62890  0.41290  Biso   1.000  N
  H153     1.0000 0.32320  0.58100  0.42550  Biso   1.000  H
  C169     1.0000 0.51280  0.79060  0.38910  Biso   1.000  C
  C170     1.0000 0.46740  0.81190  0.34300  Biso   1.000  C
  C171     1.0000 0.45580  0.73840  0.29400  Biso   1.000  C
  H154     1.0000 0.47490  0.66670  0.29040  Biso   1.000  H
  C172     1.0000 0.41630  0.77070  0.25090  Biso   1.000  C
  C173     1.0000 0.38750  0.88030  0.25570  Biso   1.000  C
  H155     1.0000 0.36140  0.90530  0.22610  Biso   1.000  H
  C174     1.0000 0.39840  0.95220  0.30570  Biso   1.000  C
  C175     1.0000 0.43810  0.91960  0.34790  Biso   1.000  C
  H156     1.0000 0.44570  0.96960  0.38040  Biso   1.000  H
  C176     1.0000 0.40420  0.70250  0.19740  Biso   1.000  C
  C177     1.0000 0.32890  0.10590  0.27100  Biso   1.000  C
  H157     1.0000 0.33320  0.13550  0.23860  Biso   1.000  H
  H158     1.0000 0.30780  0.02490  0.26190  Biso   1.000  H
  C178     1.0000 0.31010  0.23350  0.29260  Biso   1.000  C
  C179     1.0000 0.32070  0.37610  0.28470  Biso   1.000  C
  C180     1.0000 0.30490  0.49010  0.30790  Biso   1.000  C
  C181     1.0000 0.27880  0.45620  0.33820  Biso   1.000  C
  C182     1.0000 0.26920  0.31360  0.34650  Biso   1.000  C
  C183     1.0000 0.28560  0.20240  0.32300  Biso   1.000  C
  C184     1.0000 0.27680  0.04460  0.33570  Biso   1.000  C
  H159     1.0000 0.28940  0.97830  0.31760  Biso   1.000  H
  H160     1.0000 0.29070  0.02850  0.37390  Biso   1.000  H
  H161     1.0000 0.24490  0.02850  0.32340  Biso   1.000  H
  C185     1.0000 0.24270  0.28140  0.38030  Biso   1.000  C
  H162     1.0000 0.21770  0.34780  0.37090  Biso   1.000  H
  H163     1.0000 0.23160  0.18300  0.37380  Biso   1.000  H
  H164     1.0000 0.26180  0.29280  0.41780  Biso   1.000  H
  C186     1.0000 0.31590  0.64990  0.30110  Biso   1.000  C
  H165     1.0000 0.31040  0.66810  0.26380  Biso   1.000  H
  H166     1.0000 0.29710  0.71270  0.31200  Biso   1.000  H
  H167     1.0000 0.34710  0.66890  0.32300  Biso   1.000  H
  C187     1.0000 0.34790  0.41170  0.25110  Biso   1.000  C
  H168     1.0000 0.34170  0.34060  0.22290  Biso   1.000  H
  H169     1.0000 0.33980  0.50710  0.23550  Biso   1.000  H
  H170     1.0000 0.37950  0.41000  0.27370  Biso   1.000  H
  C188     1.0000 0.26160  0.58050  0.36350  Biso   1.000  C
  H171     1.0000 0.23640  0.54650  0.37170  Biso   1.000  H
  H172     1.0000 0.25130  0.66120  0.33830  Biso   1.000  H
  C189     1.0000 0.29240  0.75230  0.43930  Biso   1.000  C
  C190     1.0000 0.25070  0.81390  0.42910  Biso   1.000  C
  H173     1.0000 0.22510  0.77050  0.40380  Biso   1.000  H
  C191     1.0000 0.24600  0.93830  0.45560  Biso   1.000  C
  C192     1.0000 0.28460  0.01030  0.49110  Biso   1.000  C
  H174     1.0000 0.28210  0.09480  0.50890  Biso   1.000  H
  C193     1.0000 0.32650  0.95320  0.49920  Biso   1.000  C
  C194     1.0000 0.33120  0.82310  0.47540  Biso   1.000  C
  H175     1.0000 0.35960  0.78300  0.48330  Biso   1.000  H
  C195     1.0000 0.36720  0.03990  0.52870  Biso   1.000  C
  C196     1.0000 0.20080  0.00100  0.44210  Biso   1.000  C
  Sm8      1.0000 0.61166  0.60511  0.40881  Biso   1.000  Sm
  O57      1.0000 0.92300  0.08380  0.19280  Biso   1.000  O
  O58      1.0000 0.87670  0.26340  0.15650  Biso   1.000  O
  O59      1.0000 0.03780  0.19280  0.38410  Biso   1.000  O
  O60      1.0000 0.02260  0.37500  0.42930  Biso   1.000  O
  O61      1.0000 0.67110  0.46690  0.39730  Biso   1.000  O
  O62      1.0000 0.69220  0.58570  0.47190  Biso   1.000  O
  O63      1.0000 0.90550  0.48640  0.53010  Biso   1.000  O
  H176     1.0000 0.92430  0.55210  0.53680  Biso   1.000  H
  O64      1.0000 0.86750  0.65860  0.54960  Biso   1.000  O
  N15      1.0000 0.87120  0.56160  0.31170  Biso   1.000  N
  H177     1.0000 0.88040  0.60670  0.34220  Biso   1.000  H
  N16      1.0000 0.79820  0.12890  0.41290  Biso   1.000  N
  H178     1.0000 0.82320  0.08100  0.42550  Biso   1.000  H
  C197     1.0000 0.01280  0.29060  0.38910  Biso   1.000  C
  C198     1.0000 0.96740  0.31190  0.34300  Biso   1.000  C
  C199     1.0000 0.95580  0.23840  0.29400  Biso   1.000  C
  H179     1.0000 0.97490  0.16670  0.29040  Biso   1.000  H
  C200     1.0000 0.91630  0.27070  0.25090  Biso   1.000  C
  C201     1.0000 0.88750  0.38030  0.25570  Biso   1.000  C
  H180     1.0000 0.86140  0.40530  0.22610  Biso   1.000  H
  C202     1.0000 0.89840  0.45220  0.30570  Biso   1.000  C
  C203     1.0000 0.93810  0.41960  0.34790  Biso   1.000  C
  H181     1.0000 0.94570  0.46960  0.38040  Biso   1.000  H
  C204     1.0000 0.90420  0.20250  0.19740  Biso   1.000  C
  C205     1.0000 0.82890  0.60590  0.27100  Biso   1.000  C
  H182     1.0000 0.83320  0.63550  0.23860  Biso   1.000  H
  H183     1.0000 0.80780  0.52490  0.26190  Biso   1.000  H
  C206     1.0000 0.81010  0.73350  0.29260  Biso   1.000  C
  C207     1.0000 0.82070  0.87610  0.28470  Biso   1.000  C
  C208     1.0000 0.80490  0.99010  0.30790  Biso   1.000  C
  C209     1.0000 0.77880  0.95620  0.33820  Biso   1.000  C
  C210     1.0000 0.76920  0.81360  0.34650  Biso   1.000  C
  C211     1.0000 0.78560  0.70240  0.32300  Biso   1.000  C
  C212     1.0000 0.77680  0.54460  0.33570  Biso   1.000  C
  H184     1.0000 0.78940  0.47830  0.31760  Biso   1.000  H
  H185     1.0000 0.79070  0.52850  0.37390  Biso   1.000  H
  H186     1.0000 0.74490  0.52850  0.32340  Biso   1.000  H
  C213     1.0000 0.74270  0.78140  0.38030  Biso   1.000  C
  H187     1.0000 0.71770  0.84780  0.37090  Biso   1.000  H
  H188     1.0000 0.73160  0.68300  0.37380  Biso   1.000  H
  H189     1.0000 0.76180  0.79280  0.41780  Biso   1.000  H
  C214     1.0000 0.81590  0.14990  0.30110  Biso   1.000  C
  H190     1.0000 0.81040  0.16810  0.26380  Biso   1.000  H
  H191     1.0000 0.79710  0.21270  0.31200  Biso   1.000  H
  H192     1.0000 0.84710  0.16890  0.32300  Biso   1.000  H
  C215     1.0000 0.84790  0.91170  0.25110  Biso   1.000  C
  H193     1.0000 0.84170  0.84060  0.22290  Biso   1.000  H
  H194     1.0000 0.83980  0.00710  0.23550  Biso   1.000  H
  H195     1.0000 0.87950  0.91000  0.27370  Biso   1.000  H
  C216     1.0000 0.76160  0.08050  0.36350  Biso   1.000  C
  H196     1.0000 0.73640  0.04650  0.37170  Biso   1.000  H
  H197     1.0000 0.75130  0.16120  0.33830  Biso   1.000  H
  C217     1.0000 0.79240  0.25230  0.43930  Biso   1.000  C
  C218     1.0000 0.75070  0.31390  0.42910  Biso   1.000  C
  H198     1.0000 0.72510  0.27050  0.40380  Biso   1.000  H
  C219     1.0000 0.74600  0.43830  0.45560  Biso   1.000  C
  C220     1.0000 0.78460  0.51030  0.49110  Biso   1.000  C
  H199     1.0000 0.78210  0.59480  0.50890  Biso   1.000  H
  C221     1.0000 0.82650  0.45320  0.49920  Biso   1.000  C
  C222     1.0000 0.83120  0.32310  0.47540  Biso   1.000  C
  H200     1.0000 0.85960  0.28300  0.48330  Biso   1.000  H
  C223     1.0000 0.86720  0.53990  0.52870  Biso   1.000  C
  C224     1.0000 0.70080  0.50100  0.44210  Biso   1.000  C
