data_image0
_cell_length_a       32.84
_cell_length_b       8.998
_cell_length_c       34.21
_cell_angle_alpha    90
_cell_angle_beta     115.564
_cell_angle_gamma    90

_symmetry_space_group_name_H-M    "P 1"
_symmetry_int_tables_number       1

loop_
  _symmetry_equiv_pos_as_xyz
  'x, y, z'

loop_
  _atom_site_label
  _atom_site_occupancy
  _atom_site_fract_x
  _atom_site_fract_y
  _atom_site_fract_z
  _atom_site_thermal_displace_type
  _atom_site_B_iso_or_equiv
  _atom_site_type_symbol
  Sm1      1.0000 0.00381  0.85755  0.88103  Biso   1.000  Sm
  O1       1.0000 0.06850  0.91350  0.94906  Biso   1.000  O
  O2       1.0000 0.13090  0.77110  0.96950  Biso   1.000  O
  O3       1.0000 0.02980  0.09860  0.06839  Biso   1.000  O
  O4       1.0000 0.07050  0.02900  0.13444  Biso   1.000  O
  O5       1.0000 0.45320  0.81760  0.32786  Biso   1.000  O
  O6       1.0000 0.46890  0.61710  0.30034  Biso   1.000  O
  O7       1.0000 0.43880  0.70470  0.13940  Biso   1.000  O
  O8       1.0000 0.36840  0.77040  0.09960  Biso   1.000  O
  H1       1.0000 0.37350  0.73640  0.07990  Biso   1.000  H
  N1       1.0000 0.33060  0.08200  0.20000  Biso   1.000  N
  H2       1.0000 0.31760  0.12180  0.17480  Biso   1.000  H
  N2       1.0000 0.18330  0.65990  0.12470  Biso   1.000  N
  H3       1.0000 0.19990  0.61400  0.11490  Biso   1.000  H
  C1       1.0000 0.40280  0.75190  0.13560  Biso   1.000  C
  C2       1.0000 0.39730  0.80800  0.17550  Biso   1.000  C
  C3       1.0000 0.42450  0.74790  0.21540  Biso   1.000  C
  H4       1.0000 0.44500  0.67260  0.21820  Biso   1.000  H
  C4       1.0000 0.42020  0.80390  0.25110  Biso   1.000  C
  C5       1.0000 0.38930  0.91280  0.24710  Biso   1.000  C
  H5       1.0000 0.38680  0.94740  0.27160  Biso   1.000  H
  C6       1.0000 0.36120  0.97280  0.20570  Biso   1.000  C
  C7       1.0000 0.36480  0.91220  0.17020  Biso   1.000  C
  H6       1.0000 0.34510  0.94230  0.14250  Biso   1.000  H
  C8       1.0000 0.44960  0.74110  0.29600  Biso   1.000  C
  C9       1.0000 0.31800  0.13750  0.23350  Biso   1.000  C
  H7       1.0000 0.34480  0.17230  0.25810  Biso   1.000  H
  H8       1.0000 0.30510  0.05700  0.24340  Biso   1.000  H
  C10      1.0000 0.28420  0.26320  0.21680  Biso   1.000  C
  C11      1.0000 0.23770  0.23280  0.19510  Biso   1.000  C
  C12      1.0000 0.20800  0.35670  0.18020  Biso   1.000  C
  C13      1.0000 0.22420  0.50010  0.18590  Biso   1.000  C
  C14      1.0000 0.27050  0.52970  0.20520  Biso   1.000  C
  C15      1.0000 0.30050  0.41170  0.22100  Biso   1.000  C
  C16      1.0000 0.22060  0.07540  0.18890  Biso   1.000  C
  H9       1.0000 0.21240  0.04510  0.15950  Biso   1.000  H
  H10      1.0000 0.19460  0.06950  0.19480  Biso   1.000  H
  H11      1.0000 0.24380  0.01100  0.20830  Biso   1.000  H
  C17      1.0000 0.15750  0.32500  0.15810  Biso   1.000  C
  H12      1.0000 0.14510  0.33520  0.17870  Biso   1.000  H
  H13      1.0000 0.15260  0.22550  0.14680  Biso   1.000  H
  H14      1.0000 0.14300  0.39410  0.13480  Biso   1.000  H
  C18      1.0000 0.35170  0.44400  0.24090  Biso   1.000  C
  H15      1.0000 0.36800  0.35220  0.24530  Biso   1.000  H
  H16      1.0000 0.36060  0.49370  0.26820  Biso   1.000  H
  H17      1.0000 0.35830  0.50630  0.22160  Biso   1.000  H
  C19      1.0000 0.19110  0.63050  0.16850  Biso   1.000  C
  H18      1.0000 0.16280  0.60590  0.16970  Biso   1.000  H
  H19      1.0000 0.20360  0.71790  0.18630  Biso   1.000  H
  C20      1.0000 0.15140  0.75540  0.09720  Biso   1.000  C
  C21      1.0000 0.14360  0.76010  0.05380  Biso   1.000  C
  H20      1.0000 0.16170  0.70460  0.04450  Biso   1.000  H
  C22      1.0000 0.10880  0.84730  0.02410  Biso   1.000  C
  C23      1.0000 0.08210  0.93560  0.03710  Biso   1.000  C
  H21      1.0000 0.05930  0.99470  0.01730  Biso   1.000  H
  C24      1.0000 0.09060  0.93260  0.08050  Biso   1.000  C
  C25      1.0000 0.12480  0.84610  0.11010  Biso   1.000  C
  H22      1.0000 0.13020  0.84810  0.13910  Biso   1.000  H
  C26      1.0000 0.10120  0.84430  0.97670  Biso   1.000  C
  C27      1.0000 0.06320  0.03000  0.09600  Biso   1.000  C
  C28      1.0000 0.28870  0.68600  0.20910  Biso   1.000  C
  H23      1.0000 0.26450  0.75240  0.19240  Biso   1.000  H
  H24      1.0000 0.31130  0.68890  0.19830  Biso   1.000  H
  H25      1.0000 0.30180  0.71580  0.23890  Biso   1.000  H
  Sm2      1.0000 0.50381  0.35755  0.88103  Biso   1.000  Sm
  O9       1.0000 0.56850  0.41350  0.94906  Biso   1.000  O
  O10      1.0000 0.63090  0.27110  0.96950  Biso   1.000  O
  O11      1.0000 0.52980  0.59860  0.06839  Biso   1.000  O
  O12      1.0000 0.57050  0.52900  0.13444  Biso   1.000  O
  O13      1.0000 0.95320  0.31760  0.32786  Biso   1.000  O
  O14      1.0000 0.96890  0.11710  0.30034  Biso   1.000  O
  O15      1.0000 0.93880  0.20470  0.13940  Biso   1.000  O
  O16      1.0000 0.86840  0.27040  0.09960  Biso   1.000  O
  H26      1.0000 0.87350  0.23640  0.07990  Biso   1.000  H
  N3       1.0000 0.83060  0.58200  0.20000  Biso   1.000  N
  H27      1.0000 0.81760  0.62180  0.17480  Biso   1.000  H
  N4       1.0000 0.68330  0.15990  0.12470  Biso   1.000  N
  H28      1.0000 0.69990  0.11400  0.11490  Biso   1.000  H
  C29      1.0000 0.90280  0.25190  0.13560  Biso   1.000  C
  C30      1.0000 0.89730  0.30800  0.17550  Biso   1.000  C
  C31      1.0000 0.92450  0.24790  0.21540  Biso   1.000  C
  H29      1.0000 0.94500  0.17260  0.21820  Biso   1.000  H
  C32      1.0000 0.92020  0.30390  0.25110  Biso   1.000  C
  C33      1.0000 0.88930  0.41280  0.24710  Biso   1.000  C
  H30      1.0000 0.88680  0.44740  0.27160  Biso   1.000  H
  C34      1.0000 0.86120  0.47280  0.20570  Biso   1.000  C
  C35      1.0000 0.86480  0.41220  0.17020  Biso   1.000  C
  H31      1.0000 0.84510  0.44230  0.14250  Biso   1.000  H
  C36      1.0000 0.94960  0.24110  0.29600  Biso   1.000  C
  C37      1.0000 0.81800  0.63750  0.23350  Biso   1.000  C
  H32      1.0000 0.84480  0.67230  0.25810  Biso   1.000  H
  H33      1.0000 0.80510  0.55700  0.24340  Biso   1.000  H
  C38      1.0000 0.78420  0.76320  0.21680  Biso   1.000  C
  C39      1.0000 0.73770  0.73280  0.19510  Biso   1.000  C
  C40      1.0000 0.70800  0.85670  0.18020  Biso   1.000  C
  C41      1.0000 0.72420  0.00010  0.18590  Biso   1.000  C
  C42      1.0000 0.77050  0.02970  0.20520  Biso   1.000  C
  C43      1.0000 0.80050  0.91170  0.22100  Biso   1.000  C
  C44      1.0000 0.72060  0.57540  0.18890  Biso   1.000  C
  H34      1.0000 0.71240  0.54510  0.15950  Biso   1.000  H
  H35      1.0000 0.69460  0.56950  0.19480  Biso   1.000  H
  H36      1.0000 0.74380  0.51100  0.20830  Biso   1.000  H
  C45      1.0000 0.65750  0.82500  0.15810  Biso   1.000  C
  H37      1.0000 0.64510  0.83520  0.17870  Biso   1.000  H
  H38      1.0000 0.65260  0.72550  0.14680  Biso   1.000  H
  H39      1.0000 0.64300  0.89410  0.13480  Biso   1.000  H
  C46      1.0000 0.85170  0.94400  0.24090  Biso   1.000  C
  H40      1.0000 0.86800  0.85220  0.24530  Biso   1.000  H
  H41      1.0000 0.86060  0.99370  0.26820  Biso   1.000  H
  H42      1.0000 0.85830  0.00630  0.22160  Biso   1.000  H
  C47      1.0000 0.69110  0.13050  0.16850  Biso   1.000  C
  H43      1.0000 0.66280  0.10590  0.16970  Biso   1.000  H
  H44      1.0000 0.70360  0.21790  0.18630  Biso   1.000  H
  C48      1.0000 0.65140  0.25540  0.09720  Biso   1.000  C
  C49      1.0000 0.64360  0.26010  0.05380  Biso   1.000  C
  H45      1.0000 0.66170  0.20460  0.04450  Biso   1.000  H
  C50      1.0000 0.60880  0.34730  0.02410  Biso   1.000  C
  C51      1.0000 0.58210  0.43560  0.03710  Biso   1.000  C
  H46      1.0000 0.55930  0.49470  0.01730  Biso   1.000  H
  C52      1.0000 0.59060  0.43260  0.08050  Biso   1.000  C
  C53      1.0000 0.62480  0.34610  0.11010  Biso   1.000  C
  H47      1.0000 0.63020  0.34810  0.13910  Biso   1.000  H
  C54      1.0000 0.60120  0.34430  0.97670  Biso   1.000  C
  C55      1.0000 0.56320  0.53000  0.09600  Biso   1.000  C
  C56      1.0000 0.78870  0.18600  0.20910  Biso   1.000  C
  H48      1.0000 0.76450  0.25240  0.19240  Biso   1.000  H
  H49      1.0000 0.81130  0.18890  0.19830  Biso   1.000  H
  H50      1.0000 0.80180  0.21580  0.23890  Biso   1.000  H
  Sm3      1.0000 0.99619  0.85755  0.61897  Biso   1.000  Sm
  O17      1.0000 0.93150  0.91350  0.55094  Biso   1.000  O
  O18      1.0000 0.86910  0.77110  0.53050  Biso   1.000  O
  O19      1.0000 0.97020  0.09860  0.43161  Biso   1.000  O
  O20      1.0000 0.92950  0.02900  0.36556  Biso   1.000  O
  O21      1.0000 0.54680  0.81760  0.17214  Biso   1.000  O
  O22      1.0000 0.53110  0.61710  0.19966  Biso   1.000  O
  O23      1.0000 0.56120  0.70470  0.36060  Biso   1.000  O
  O24      1.0000 0.63160  0.77040  0.40040  Biso   1.000  O
  H51      1.0000 0.62650  0.73640  0.42010  Biso   1.000  H
  N5       1.0000 0.66940  0.08200  0.30000  Biso   1.000  N
  H52      1.0000 0.68240  0.12180  0.32520  Biso   1.000  H
  N6       1.0000 0.81670  0.65990  0.37530  Biso   1.000  N
  H53      1.0000 0.80010  0.61400  0.38510  Biso   1.000  H
  C57      1.0000 0.59720  0.75190  0.36440  Biso   1.000  C
  C58      1.0000 0.60270  0.80800  0.32450  Biso   1.000  C
  C59      1.0000 0.57550  0.74790  0.28460  Biso   1.000  C
  H54      1.0000 0.55500  0.67260  0.28180  Biso   1.000  H
  C60      1.0000 0.57980  0.80390  0.24890  Biso   1.000  C
  C61      1.0000 0.61070  0.91280  0.25290  Biso   1.000  C
  H55      1.0000 0.61320  0.94740  0.22840  Biso   1.000  H
  C62      1.0000 0.63880  0.97280  0.29430  Biso   1.000  C
  C63      1.0000 0.63520  0.91220  0.32980  Biso   1.000  C
  H56      1.0000 0.65490  0.94230  0.35750  Biso   1.000  H
  C64      1.0000 0.55040  0.74110  0.20400  Biso   1.000  C
  C65      1.0000 0.68200  0.13750  0.26650  Biso   1.000  C
  H57      1.0000 0.65520  0.17230  0.24190  Biso   1.000  H
  H58      1.0000 0.69490  0.05700  0.25660  Biso   1.000  H
  C66      1.0000 0.71580  0.26320  0.28320  Biso   1.000  C
  C67      1.0000 0.76230  0.23280  0.30490  Biso   1.000  C
  C68      1.0000 0.79200  0.35670  0.31980  Biso   1.000  C
  C69      1.0000 0.77580  0.50010  0.31410  Biso   1.000  C
  C70      1.0000 0.72950  0.52970  0.29480  Biso   1.000  C
  C71      1.0000 0.69950  0.41170  0.27900  Biso   1.000  C
  C72      1.0000 0.77940  0.07540  0.31110  Biso   1.000  C
  H59      1.0000 0.78760  0.04510  0.34050  Biso   1.000  H
  H60      1.0000 0.80540  0.06950  0.30520  Biso   1.000  H
  H61      1.0000 0.75620  0.01100  0.29170  Biso   1.000  H
  C73      1.0000 0.84250  0.32500  0.34190  Biso   1.000  C
  H62      1.0000 0.85490  0.33520  0.32130  Biso   1.000  H
  H63      1.0000 0.84740  0.22550  0.35320  Biso   1.000  H
  H64      1.0000 0.85700  0.39410  0.36520  Biso   1.000  H
  C74      1.0000 0.64830  0.44400  0.25910  Biso   1.000  C
  H65      1.0000 0.63200  0.35220  0.25470  Biso   1.000  H
  H66      1.0000 0.63940  0.49370  0.23180  Biso   1.000  H
  H67      1.0000 0.64170  0.50630  0.27840  Biso   1.000  H
  C75      1.0000 0.80890  0.63050  0.33150  Biso   1.000  C
  H68      1.0000 0.83720  0.60590  0.33030  Biso   1.000  H
  H69      1.0000 0.79640  0.71790  0.31370  Biso   1.000  H
  C76      1.0000 0.84860  0.75540  0.40280  Biso   1.000  C
  C77      1.0000 0.85640  0.76010  0.44620  Biso   1.000  C
  H70      1.0000 0.83830  0.70460  0.45550  Biso   1.000  H
  C78      1.0000 0.89120  0.84730  0.47590  Biso   1.000  C
  C79      1.0000 0.91790  0.93560  0.46290  Biso   1.000  C
  H71      1.0000 0.94070  0.99470  0.48270  Biso   1.000  H
  C80      1.0000 0.90940  0.93260  0.41950  Biso   1.000  C
  C81      1.0000 0.87520  0.84610  0.38990  Biso   1.000  C
  H72      1.0000 0.86980  0.84810  0.36090  Biso   1.000  H
  C82      1.0000 0.89880  0.84430  0.52330  Biso   1.000  C
  C83      1.0000 0.93680  0.03000  0.40400  Biso   1.000  C
  C84      1.0000 0.71130  0.68600  0.29090  Biso   1.000  C
  H73      1.0000 0.73550  0.75240  0.30760  Biso   1.000  H
  H74      1.0000 0.68870  0.68890  0.30170  Biso   1.000  H
  H75      1.0000 0.69820  0.71580  0.26110  Biso   1.000  H
  Sm4      1.0000 0.49619  0.35755  0.61897  Biso   1.000  Sm
  O25      1.0000 0.43150  0.41350  0.55094  Biso   1.000  O
  O26      1.0000 0.36910  0.27110  0.53050  Biso   1.000  O
  O27      1.0000 0.47020  0.59860  0.43161  Biso   1.000  O
  O28      1.0000 0.42950  0.52900  0.36556  Biso   1.000  O
  O29      1.0000 0.04680  0.31760  0.17214  Biso   1.000  O
  O30      1.0000 0.03110  0.11710  0.19966  Biso   1.000  O
  O31      1.0000 0.06120  0.20470  0.36060  Biso   1.000  O
  O32      1.0000 0.13160  0.27040  0.40040  Biso   1.000  O
  H76      1.0000 0.12650  0.23640  0.42010  Biso   1.000  H
  N7       1.0000 0.16940  0.58200  0.30000  Biso   1.000  N
  H77      1.0000 0.18240  0.62180  0.32520  Biso   1.000  H
  N8       1.0000 0.31670  0.15990  0.37530  Biso   1.000  N
  H78      1.0000 0.30010  0.11400  0.38510  Biso   1.000  H
  C85      1.0000 0.09720  0.25190  0.36440  Biso   1.000  C
  C86      1.0000 0.10270  0.30800  0.32450  Biso   1.000  C
  C87      1.0000 0.07550  0.24790  0.28460  Biso   1.000  C
  H79      1.0000 0.05500  0.17260  0.28180  Biso   1.000  H
  C88      1.0000 0.07980  0.30390  0.24890  Biso   1.000  C
  C89      1.0000 0.11070  0.41280  0.25290  Biso   1.000  C
  H80      1.0000 0.11320  0.44740  0.22840  Biso   1.000  H
  C90      1.0000 0.13880  0.47280  0.29430  Biso   1.000  C
  C91      1.0000 0.13520  0.41220  0.32980  Biso   1.000  C
  H81      1.0000 0.15490  0.44230  0.35750  Biso   1.000  H
  C92      1.0000 0.05040  0.24110  0.20400  Biso   1.000  C
  C93      1.0000 0.18200  0.63750  0.26650  Biso   1.000  C
  H82      1.0000 0.15520  0.67230  0.24190  Biso   1.000  H
  H83      1.0000 0.19490  0.55700  0.25660  Biso   1.000  H
  C94      1.0000 0.21580  0.76320  0.28320  Biso   1.000  C
  C95      1.0000 0.26230  0.73280  0.30490  Biso   1.000  C
  C96      1.0000 0.29200  0.85670  0.31980  Biso   1.000  C
  C97      1.0000 0.27580  0.00010  0.31410  Biso   1.000  C
  C98      1.0000 0.22950  0.02970  0.29480  Biso   1.000  C
  C99      1.0000 0.19950  0.91170  0.27900  Biso   1.000  C
  C100     1.0000 0.27940  0.57540  0.31110  Biso   1.000  C
  H84      1.0000 0.28760  0.54510  0.34050  Biso   1.000  H
  H85      1.0000 0.30540  0.56950  0.30520  Biso   1.000  H
  H86      1.0000 0.25620  0.51100  0.29170  Biso   1.000  H
  C101     1.0000 0.34250  0.82500  0.34190  Biso   1.000  C
  H87      1.0000 0.35490  0.83520  0.32130  Biso   1.000  H
  H88      1.0000 0.34740  0.72550  0.35320  Biso   1.000  H
  H89      1.0000 0.35700  0.89410  0.36520  Biso   1.000  H
  C102     1.0000 0.14830  0.94400  0.25910  Biso   1.000  C
  H90      1.0000 0.13200  0.85220  0.25470  Biso   1.000  H
  H91      1.0000 0.13940  0.99370  0.23180  Biso   1.000  H
  H92      1.0000 0.14170  0.00630  0.27840  Biso   1.000  H
  C103     1.0000 0.30890  0.13050  0.33150  Biso   1.000  C
  H93      1.0000 0.33720  0.10590  0.33030  Biso   1.000  H
  H94      1.0000 0.29640  0.21790  0.31370  Biso   1.000  H
  C104     1.0000 0.34860  0.25540  0.40280  Biso   1.000  C
  C105     1.0000 0.35640  0.26010  0.44620  Biso   1.000  C
  H95      1.0000 0.33830  0.20460  0.45550  Biso   1.000  H
  C106     1.0000 0.39120  0.34730  0.47590  Biso   1.000  C
  C107     1.0000 0.41790  0.43560  0.46290  Biso   1.000  C
  H96      1.0000 0.44070  0.49470  0.48270  Biso   1.000  H
  C108     1.0000 0.40940  0.43260  0.41950  Biso   1.000  C
  C109     1.0000 0.37520  0.34610  0.38990  Biso   1.000  C
  H97      1.0000 0.36980  0.34810  0.36090  Biso   1.000  H
  C110     1.0000 0.39880  0.34430  0.52330  Biso   1.000  C
  C111     1.0000 0.43680  0.53000  0.40400  Biso   1.000  C
  C112     1.0000 0.21130  0.18600  0.29090  Biso   1.000  C
  H98      1.0000 0.23550  0.25240  0.30760  Biso   1.000  H
  H99      1.0000 0.18870  0.18890  0.30170  Biso   1.000  H
  H100     1.0000 0.19820  0.21580  0.26110  Biso   1.000  H
  Sm5      1.0000 0.99619  0.14245  0.11897  Biso   1.000  Sm
  O33      1.0000 0.93150  0.08650  0.05094  Biso   1.000  O
  O34      1.0000 0.86910  0.22890  0.03050  Biso   1.000  O
  O35      1.0000 0.97020  0.90140  0.93161  Biso   1.000  O
  O36      1.0000 0.92950  0.97100  0.86556  Biso   1.000  O
  O37      1.0000 0.54680  0.18240  0.67214  Biso   1.000  O
  O38      1.0000 0.53110  0.38290  0.69966  Biso   1.000  O
  O39      1.0000 0.56120  0.29530  0.86060  Biso   1.000  O
  O40      1.0000 0.63160  0.22960  0.90040  Biso   1.000  O
  H101     1.0000 0.62650  0.26360  0.92010  Biso   1.000  H
  N9       1.0000 0.66940  0.91800  0.80000  Biso   1.000  N
  H102     1.0000 0.68240  0.87820  0.82520  Biso   1.000  H
  N10      1.0000 0.81670  0.34010  0.87530  Biso   1.000  N
  H103     1.0000 0.80010  0.38600  0.88510  Biso   1.000  H
  C113     1.0000 0.59720  0.24810  0.86440  Biso   1.000  C
  C114     1.0000 0.60270  0.19200  0.82450  Biso   1.000  C
  C115     1.0000 0.57550  0.25210  0.78460  Biso   1.000  C
  H104     1.0000 0.55500  0.32740  0.78180  Biso   1.000  H
  C116     1.0000 0.57980  0.19610  0.74890  Biso   1.000  C
  C117     1.0000 0.61070  0.08720  0.75290  Biso   1.000  C
  H105     1.0000 0.61320  0.05260  0.72840  Biso   1.000  H
  C118     1.0000 0.63880  0.02720  0.79430  Biso   1.000  C
  C119     1.0000 0.63520  0.08780  0.82980  Biso   1.000  C
  H106     1.0000 0.65490  0.05770  0.85750  Biso   1.000  H
  C120     1.0000 0.55040  0.25890  0.70400  Biso   1.000  C
  C121     1.0000 0.68200  0.86250  0.76650  Biso   1.000  C
  H107     1.0000 0.65520  0.82770  0.74190  Biso   1.000  H
  H108     1.0000 0.69490  0.94300  0.75660  Biso   1.000  H
  C122     1.0000 0.71580  0.73680  0.78320  Biso   1.000  C
  C123     1.0000 0.76230  0.76720  0.80490  Biso   1.000  C
  C124     1.0000 0.79200  0.64330  0.81980  Biso   1.000  C
  C125     1.0000 0.77580  0.49990  0.81410  Biso   1.000  C
  C126     1.0000 0.72950  0.47030  0.79480  Biso   1.000  C
  C127     1.0000 0.69950  0.58830  0.77900  Biso   1.000  C
  C128     1.0000 0.77940  0.92460  0.81110  Biso   1.000  C
  H109     1.0000 0.78760  0.95490  0.84050  Biso   1.000  H
  H110     1.0000 0.80540  0.93050  0.80520  Biso   1.000  H
  H111     1.0000 0.75620  0.98900  0.79170  Biso   1.000  H
  C129     1.0000 0.84250  0.67500  0.84190  Biso   1.000  C
  H112     1.0000 0.85490  0.66480  0.82130  Biso   1.000  H
  H113     1.0000 0.84740  0.77450  0.85320  Biso   1.000  H
  H114     1.0000 0.85700  0.60590  0.86520  Biso   1.000  H
  C130     1.0000 0.64830  0.55600  0.75910  Biso   1.000  C
  H115     1.0000 0.63200  0.64780  0.75470  Biso   1.000  H
  H116     1.0000 0.63940  0.50630  0.73180  Biso   1.000  H
  H117     1.0000 0.64170  0.49370  0.77840  Biso   1.000  H
  C131     1.0000 0.80890  0.36950  0.83150  Biso   1.000  C
  H118     1.0000 0.83720  0.39410  0.83030  Biso   1.000  H
  H119     1.0000 0.79640  0.28210  0.81370  Biso   1.000  H
  C132     1.0000 0.84860  0.24460  0.90280  Biso   1.000  C
  C133     1.0000 0.85640  0.23990  0.94620  Biso   1.000  C
  H120     1.0000 0.83830  0.29540  0.95550  Biso   1.000  H
  C134     1.0000 0.89120  0.15270  0.97590  Biso   1.000  C
  C135     1.0000 0.91790  0.06440  0.96290  Biso   1.000  C
  H121     1.0000 0.94070  0.00530  0.98270  Biso   1.000  H
  C136     1.0000 0.90940  0.06740  0.91950  Biso   1.000  C
  C137     1.0000 0.87520  0.15390  0.88990  Biso   1.000  C
  H122     1.0000 0.86980  0.15190  0.86090  Biso   1.000  H
  C138     1.0000 0.89880  0.15570  0.02330  Biso   1.000  C
  C139     1.0000 0.93680  0.97000  0.90400  Biso   1.000  C
  C140     1.0000 0.71130  0.31400  0.79090  Biso   1.000  C
  H123     1.0000 0.73550  0.24760  0.80760  Biso   1.000  H
  H124     1.0000 0.68870  0.31110  0.80170  Biso   1.000  H
  H125     1.0000 0.69820  0.28420  0.76110  Biso   1.000  H
  Sm6      1.0000 0.49619  0.64245  0.11897  Biso   1.000  Sm
  O41      1.0000 0.43150  0.58650  0.05094  Biso   1.000  O
  O42      1.0000 0.36910  0.72890  0.03050  Biso   1.000  O
  O43      1.0000 0.47020  0.40140  0.93161  Biso   1.000  O
  O44      1.0000 0.42950  0.47100  0.86556  Biso   1.000  O
  O45      1.0000 0.04680  0.68240  0.67214  Biso   1.000  O
  O46      1.0000 0.03110  0.88290  0.69966  Biso   1.000  O
  O47      1.0000 0.06120  0.79530  0.86060  Biso   1.000  O
  O48      1.0000 0.13160  0.72960  0.90040  Biso   1.000  O
  H126     1.0000 0.12650  0.76360  0.92010  Biso   1.000  H
  N11      1.0000 0.16940  0.41800  0.80000  Biso   1.000  N
  H127     1.0000 0.18240  0.37820  0.82520  Biso   1.000  H
  N12      1.0000 0.31670  0.84010  0.87530  Biso   1.000  N
  H128     1.0000 0.30010  0.88600  0.88510  Biso   1.000  H
  C141     1.0000 0.09720  0.74810  0.86440  Biso   1.000  C
  C142     1.0000 0.10270  0.69200  0.82450  Biso   1.000  C
  C143     1.0000 0.07550  0.75210  0.78460  Biso   1.000  C
  H129     1.0000 0.05500  0.82740  0.78180  Biso   1.000  H
  C144     1.0000 0.07980  0.69610  0.74890  Biso   1.000  C
  C145     1.0000 0.11070  0.58720  0.75290  Biso   1.000  C
  H130     1.0000 0.11320  0.55260  0.72840  Biso   1.000  H
  C146     1.0000 0.13880  0.52720  0.79430  Biso   1.000  C
  C147     1.0000 0.13520  0.58780  0.82980  Biso   1.000  C
  H131     1.0000 0.15490  0.55770  0.85750  Biso   1.000  H
  C148     1.0000 0.05040  0.75890  0.70400  Biso   1.000  C
  C149     1.0000 0.18200  0.36250  0.76650  Biso   1.000  C
  H132     1.0000 0.15520  0.32770  0.74190  Biso   1.000  H
  H133     1.0000 0.19490  0.44300  0.75660  Biso   1.000  H
  C150     1.0000 0.21580  0.23680  0.78320  Biso   1.000  C
  C151     1.0000 0.26230  0.26720  0.80490  Biso   1.000  C
  C152     1.0000 0.29200  0.14330  0.81980  Biso   1.000  C
  C153     1.0000 0.27580  0.99990  0.81410  Biso   1.000  C
  C154     1.0000 0.22950  0.97030  0.79480  Biso   1.000  C
  C155     1.0000 0.19950  0.08830  0.77900  Biso   1.000  C
  C156     1.0000 0.27940  0.42460  0.81110  Biso   1.000  C
  H134     1.0000 0.28760  0.45490  0.84050  Biso   1.000  H
  H135     1.0000 0.30540  0.43050  0.80520  Biso   1.000  H
  H136     1.0000 0.25620  0.48900  0.79170  Biso   1.000  H
  C157     1.0000 0.34250  0.17500  0.84190  Biso   1.000  C
  H137     1.0000 0.35490  0.16480  0.82130  Biso   1.000  H
  H138     1.0000 0.34740  0.27450  0.85320  Biso   1.000  H
  H139     1.0000 0.35700  0.10590  0.86520  Biso   1.000  H
  C158     1.0000 0.14830  0.05600  0.75910  Biso   1.000  C
  H140     1.0000 0.13200  0.14780  0.75470  Biso   1.000  H
  H141     1.0000 0.13940  0.00630  0.73180  Biso   1.000  H
  H142     1.0000 0.14170  0.99370  0.77840  Biso   1.000  H
  C159     1.0000 0.30890  0.86950  0.83150  Biso   1.000  C
  H143     1.0000 0.33720  0.89410  0.83030  Biso   1.000  H
  H144     1.0000 0.29640  0.78210  0.81370  Biso   1.000  H
  C160     1.0000 0.34860  0.74460  0.90280  Biso   1.000  C
  C161     1.0000 0.35640  0.73990  0.94620  Biso   1.000  C
  H145     1.0000 0.33830  0.79540  0.95550  Biso   1.000  H
  C162     1.0000 0.39120  0.65270  0.97590  Biso   1.000  C
  C163     1.0000 0.41790  0.56440  0.96290  Biso   1.000  C
  H146     1.0000 0.44070  0.50530  0.98270  Biso   1.000  H
  C164     1.0000 0.40940  0.56740  0.91950  Biso   1.000  C
  C165     1.0000 0.37520  0.65390  0.88990  Biso   1.000  C
  H147     1.0000 0.36980  0.65190  0.86090  Biso   1.000  H
  C166     1.0000 0.39880  0.65570  0.02330  Biso   1.000  C
  C167     1.0000 0.43680  0.47000  0.90400  Biso   1.000  C
  C168     1.0000 0.21130  0.81400  0.79090  Biso   1.000  C
  H148     1.0000 0.23550  0.74760  0.80760  Biso   1.000  H
  H149     1.0000 0.18870  0.81110  0.80170  Biso   1.000  H
  H150     1.0000 0.19820  0.78420  0.76110  Biso   1.000  H
  Sm7      1.0000 0.00381  0.14245  0.38103  Biso   1.000  Sm
  O49      1.0000 0.06850  0.08650  0.44906  Biso   1.000  O
  O50      1.0000 0.13090  0.22890  0.46950  Biso   1.000  O
  O51      1.0000 0.02980  0.90140  0.56839  Biso   1.000  O
  O52      1.0000 0.07050  0.97100  0.63444  Biso   1.000  O
  O53      1.0000 0.45320  0.18240  0.82786  Biso   1.000  O
  O54      1.0000 0.46890  0.38290  0.80034  Biso   1.000  O
  O55      1.0000 0.43880  0.29530  0.63940  Biso   1.000  O
  O56      1.0000 0.36840  0.22960  0.59960  Biso   1.000  O
  H151     1.0000 0.37350  0.26360  0.57990  Biso   1.000  H
  N13      1.0000 0.33060  0.91800  0.70000  Biso   1.000  N
  H152     1.0000 0.31760  0.87820  0.67480  Biso   1.000  H
  N14      1.0000 0.18330  0.34010  0.62470  Biso   1.000  N
  H153     1.0000 0.19990  0.38600  0.61490  Biso   1.000  H
  C169     1.0000 0.40280  0.24810  0.63560  Biso   1.000  C
  C170     1.0000 0.39730  0.19200  0.67550  Biso   1.000  C
  C171     1.0000 0.42450  0.25210  0.71540  Biso   1.000  C
  H154     1.0000 0.44500  0.32740  0.71820  Biso   1.000  H
  C172     1.0000 0.42020  0.19610  0.75110  Biso   1.000  C
  C173     1.0000 0.38930  0.08720  0.74710  Biso   1.000  C
  H155     1.0000 0.38680  0.05260  0.77160  Biso   1.000  H
  C174     1.0000 0.36120  0.02720  0.70570  Biso   1.000  C
  C175     1.0000 0.36480  0.08780  0.67020  Biso   1.000  C
  H156     1.0000 0.34510  0.05770  0.64250  Biso   1.000  H
  C176     1.0000 0.44960  0.25890  0.79600  Biso   1.000  C
  C177     1.0000 0.31800  0.86250  0.73350  Biso   1.000  C
  H157     1.0000 0.34480  0.82770  0.75810  Biso   1.000  H
  H158     1.0000 0.30510  0.94300  0.74340  Biso   1.000  H
  C178     1.0000 0.28420  0.73680  0.71680  Biso   1.000  C
  C179     1.0000 0.23770  0.76720  0.69510  Biso   1.000  C
  C180     1.0000 0.20800  0.64330  0.68020  Biso   1.000  C
  C181     1.0000 0.22420  0.49990  0.68590  Biso   1.000  C
  C182     1.0000 0.27050  0.47030  0.70520  Biso   1.000  C
  C183     1.0000 0.30050  0.58830  0.72100  Biso   1.000  C
  C184     1.0000 0.22060  0.92460  0.68890  Biso   1.000  C
  H159     1.0000 0.21240  0.95490  0.65950  Biso   1.000  H
  H160     1.0000 0.19460  0.93050  0.69480  Biso   1.000  H
  H161     1.0000 0.24380  0.98900  0.70830  Biso   1.000  H
  C185     1.0000 0.15750  0.67500  0.65810  Biso   1.000  C
  H162     1.0000 0.14510  0.66480  0.67870  Biso   1.000  H
  H163     1.0000 0.15260  0.77450  0.64680  Biso   1.000  H
  H164     1.0000 0.14300  0.60590  0.63480  Biso   1.000  H
  C186     1.0000 0.35170  0.55600  0.74090  Biso   1.000  C
  H165     1.0000 0.36800  0.64780  0.74530  Biso   1.000  H
  H166     1.0000 0.36060  0.50630  0.76820  Biso   1.000  H
  H167     1.0000 0.35830  0.49370  0.72160  Biso   1.000  H
  C187     1.0000 0.19110  0.36950  0.66850  Biso   1.000  C
  H168     1.0000 0.16280  0.39410  0.66970  Biso   1.000  H
  H169     1.0000 0.20360  0.28210  0.68630  Biso   1.000  H
  C188     1.0000 0.15140  0.24460  0.59720  Biso   1.000  C
  C189     1.0000 0.14360  0.23990  0.55380  Biso   1.000  C
  H170     1.0000 0.16170  0.29540  0.54450  Biso   1.000  H
  C190     1.0000 0.10880  0.15270  0.52410  Biso   1.000  C
  C191     1.0000 0.08210  0.06440  0.53710  Biso   1.000  C
  H171     1.0000 0.05930  0.00530  0.51730  Biso   1.000  H
  C192     1.0000 0.09060  0.06740  0.58050  Biso   1.000  C
  C193     1.0000 0.12480  0.15390  0.61010  Biso   1.000  C
  H172     1.0000 0.13020  0.15190  0.63910  Biso   1.000  H
  C194     1.0000 0.10120  0.15570  0.47670  Biso   1.000  C
  C195     1.0000 0.06320  0.97000  0.59600  Biso   1.000  C
  C196     1.0000 0.28870  0.31400  0.70910  Biso   1.000  C
  H173     1.0000 0.26450  0.24760  0.69240  Biso   1.000  H
  H174     1.0000 0.31130  0.31110  0.69830  Biso   1.000  H
  H175     1.0000 0.30180  0.28420  0.73890  Biso   1.000  H
  Sm8      1.0000 0.50381  0.64245  0.38103  Biso   1.000  Sm
  O57      1.0000 0.56850  0.58650  0.44906  Biso   1.000  O
  O58      1.0000 0.63090  0.72890  0.46950  Biso   1.000  O
  O59      1.0000 0.52980  0.40140  0.56839  Biso   1.000  O
  O60      1.0000 0.57050  0.47100  0.63444  Biso   1.000  O
  O61      1.0000 0.95320  0.68240  0.82786  Biso   1.000  O
  O62      1.0000 0.96890  0.88290  0.80034  Biso   1.000  O
  O63      1.0000 0.93880  0.79530  0.63940  Biso   1.000  O
  O64      1.0000 0.86840  0.72960  0.59960  Biso   1.000  O
  H176     1.0000 0.87350  0.76360  0.57990  Biso   1.000  H
  N15      1.0000 0.83060  0.41800  0.70000  Biso   1.000  N
  H177     1.0000 0.81760  0.37820  0.67480  Biso   1.000  H
  N16      1.0000 0.68330  0.84010  0.62470  Biso   1.000  N
  H178     1.0000 0.69990  0.88600  0.61490  Biso   1.000  H
  C197     1.0000 0.90280  0.74810  0.63560  Biso   1.000  C
  C198     1.0000 0.89730  0.69200  0.67550  Biso   1.000  C
  C199     1.0000 0.92450  0.75210  0.71540  Biso   1.000  C
  H179     1.0000 0.94500  0.82740  0.71820  Biso   1.000  H
  C200     1.0000 0.92020  0.69610  0.75110  Biso   1.000  C
  C201     1.0000 0.88930  0.58720  0.74710  Biso   1.000  C
  H180     1.0000 0.88680  0.55260  0.77160  Biso   1.000  H
  C202     1.0000 0.86120  0.52720  0.70570  Biso   1.000  C
  C203     1.0000 0.86480  0.58780  0.67020  Biso   1.000  C
  H181     1.0000 0.84510  0.55770  0.64250  Biso   1.000  H
  C204     1.0000 0.94960  0.75890  0.79600  Biso   1.000  C
  C205     1.0000 0.81800  0.36250  0.73350  Biso   1.000  C
  H182     1.0000 0.84480  0.32770  0.75810  Biso   1.000  H
  H183     1.0000 0.80510  0.44300  0.74340  Biso   1.000  H
  C206     1.0000 0.78420  0.23680  0.71680  Biso   1.000  C
  C207     1.0000 0.73770  0.26720  0.69510  Biso   1.000  C
  C208     1.0000 0.70800  0.14330  0.68020  Biso   1.000  C
  C209     1.0000 0.72420  0.99990  0.68590  Biso   1.000  C
  C210     1.0000 0.77050  0.97030  0.70520  Biso   1.000  C
  C211     1.0000 0.80050  0.08830  0.72100  Biso   1.000  C
  C212     1.0000 0.72060  0.42460  0.68890  Biso   1.000  C
  H184     1.0000 0.71240  0.45490  0.65950  Biso   1.000  H
  H185     1.0000 0.69460  0.43050  0.69480  Biso   1.000  H
  H186     1.0000 0.74380  0.48900  0.70830  Biso   1.000  H
  C213     1.0000 0.65750  0.17500  0.65810  Biso   1.000  C
  H187     1.0000 0.64510  0.16480  0.67870  Biso   1.000  H
  H188     1.0000 0.65260  0.27450  0.64680  Biso   1.000  H
  H189     1.0000 0.64300  0.10590  0.63480  Biso   1.000  H
  C214     1.0000 0.85170  0.05600  0.74090  Biso   1.000  C
  H190     1.0000 0.86800  0.14780  0.74530  Biso   1.000  H
  H191     1.0000 0.86060  0.00630  0.76820  Biso   1.000  H
  H192     1.0000 0.85830  0.99370  0.72160  Biso   1.000  H
  C215     1.0000 0.69110  0.86950  0.66850  Biso   1.000  C
  H193     1.0000 0.66280  0.89410  0.66970  Biso   1.000  H
  H194     1.0000 0.70360  0.78210  0.68630  Biso   1.000  H
  C216     1.0000 0.65140  0.74460  0.59720  Biso   1.000  C
  C217     1.0000 0.64360  0.73990  0.55380  Biso   1.000  C
  H195     1.0000 0.66170  0.79540  0.54450  Biso   1.000  H
  C218     1.0000 0.60880  0.65270  0.52410  Biso   1.000  C
  C219     1.0000 0.58210  0.56440  0.53710  Biso   1.000  C
  H196     1.0000 0.55930  0.50530  0.51730  Biso   1.000  H
  C220     1.0000 0.59060  0.56740  0.58050  Biso   1.000  C
  C221     1.0000 0.62480  0.65390  0.61010  Biso   1.000  C
  H197     1.0000 0.63020  0.65190  0.63910  Biso   1.000  H
  C222     1.0000 0.60120  0.65570  0.47670  Biso   1.000  C
  C223     1.0000 0.56320  0.47000  0.59600  Biso   1.000  C
  C224     1.0000 0.78870  0.81400  0.70910  Biso   1.000  C
  H198     1.0000 0.76450  0.74760  0.69240  Biso   1.000  H
  H199     1.0000 0.81130  0.81110  0.69830  Biso   1.000  H
  H200     1.0000 0.80180  0.78420  0.73890  Biso   1.000  H
