data_GUJGAU_clean
_audit_creation_date              2014-07-02
_audit_creation_method            'Materials Studio'
_symmetry_space_group_name_H-M    'P1'
_symmetry_Int_Tables_number       1
_symmetry_cell_setting            triclinic
loop_
_symmetry_equiv_pos_as_xyz
  x,y,z
_cell_length_a                    13.3299
_cell_length_b                    13.6362
_cell_length_c                    15.2900
_cell_angle_alpha                 108.9160
_cell_angle_beta                  101.8980
_cell_angle_gamma                 111.6910
loop_
_atom_site_label
_atom_site_type_symbol
_atom_site_fract_x
_atom_site_fract_y
_atom_site_fract_z
_atom_site_U_iso_or_equiv
_atom_site_adp_type
_atom_site_occupancy
La1    La    0.31604   0.35235   0.57350   0.01267  Uiso   1.00
La2    La    0.09936   0.10653   0.65392   0.01267  Uiso   1.00
La3    La    0.68396   0.64765   0.42650   0.01267  Uiso   1.00
La4    La    0.90064   0.89347   0.34607   0.01267  Uiso   1.00
P1     P     0.98740   0.17602   0.44251   0.01267  Uiso   1.00
P2     P     0.41857   0.22557   0.73460   0.01267  Uiso   1.00
P3     P     0.21765   0.07775   0.43968   0.01267  Uiso   1.00
P4     P     0.38499   0.40817   0.36889   0.01267  Uiso   1.00
P5     P     0.81688   0.82315   0.07088   0.01267  Uiso   1.00
P6     P     0.01260   0.82398   0.55749   0.01267  Uiso   1.00
P7     P     0.58143   0.77443   0.26540   0.01267  Uiso   1.00
P8     P     0.78235   0.92225   0.56032   0.01267  Uiso   1.00
P9     P     0.61501   0.59183   0.63111   0.01267  Uiso   1.00
P10    P     0.18312   0.17685   0.92912   0.01267  Uiso   1.00
H1     H     0.06690   0.41520   0.53330   0.01267  Uiso   1.00
H2     H     0.41630   0.33860   0.93250   0.01267  Uiso   1.00
H3     H     0.41000   0.05610   0.55910   0.01267  Uiso   1.00
H4     H     0.15800   0.23700   0.12580   0.01267  Uiso   1.00
H5     H     0.96540   0.08330   0.22780   0.01267  Uiso   1.00
H6     H     0.06110   0.44370   0.86900   0.01267  Uiso   1.00
H7     H     0.11530   0.63780   0.97310   0.01267  Uiso   1.00
H8     H     0.24530   0.78990   0.95340   0.01267  Uiso   1.00
H9     H     0.32490   0.75030   0.83580   0.01267  Uiso   1.00
H10    H     0.92120   0.27090   0.55780   0.01267  Uiso   1.00
H11    H     0.84240   0.23480   0.44940   0.01267  Uiso   1.00
H12    H     0.88180   0.45450   0.55190   0.01267  Uiso   1.00
H13    H     0.98290   0.47630   0.64170   0.01267  Uiso   1.00
H14    H     0.98400   0.34540   0.36510   0.01267  Uiso   1.00
H15    H     0.88340   0.37420   0.38020   0.01267  Uiso   1.00
H16    H     0.59680   0.36160   0.86560   0.01267  Uiso   1.00
H17    H     0.53170   0.25820   0.89020   0.01267  Uiso   1.00
H18    H     0.58390   0.40060   0.05820   0.01267  Uiso   1.00
H19    H     0.64650   0.50450   0.03310   0.01267  Uiso   1.00
H20    H     0.53140   0.51920   0.88950   0.01267  Uiso   1.00
H21    H     0.40020   0.42480   0.83000   0.01267  Uiso   1.00
H22    H     0.25300   0.92320   0.36590   0.01267  Uiso   1.00
H23    H     0.21820   0.91490   0.45550   0.01267  Uiso   1.00
H24    H     0.45130   0.01930   0.38410   0.01267  Uiso   1.00
H25    H     0.47080   0.14080   0.45970   0.01267  Uiso   1.00
H26    H     0.35130   0.86140   0.51830   0.01267  Uiso   1.00
H27    H     0.37830   0.84660   0.42110   0.01267  Uiso   1.00
H28    H     0.34400   0.34750   0.20060   0.01267  Uiso   1.00
H29    H     0.29200   0.43120   0.23800   0.01267  Uiso   1.00
H30    H     0.23450   0.14010   0.19390   0.01267  Uiso   1.00
H31    H     0.18920   0.17660   0.27980   0.01267  Uiso   1.00
H32    H     0.10560   0.30470   0.29220   0.01267  Uiso   1.00
H33    H     0.09380   0.35650   0.21490   0.01267  Uiso   1.00
H34    H     0.95420   0.17020   0.08950   0.01267  Uiso   1.00
H35    H     0.91270   0.20090   0.17880   0.01267  Uiso   1.00
H36    H     0.05550   0.98610   0.16310   0.01267  Uiso   1.00
H37    H     0.04610   0.02580   0.07760   0.01267  Uiso   1.00
H38    H     0.78290   0.98540   0.12120   0.01267  Uiso   1.00
H39    H     0.82290   0.97640   0.03100   0.01267  Uiso   1.00
H40    H     0.39240   0.26900   0.38270   0.01267  Uiso   1.00
H41    H     0.93310   0.58480   0.46670   0.01267  Uiso   1.00
H42    H     0.58370   0.66140   0.06750   0.01267  Uiso   1.00
H43    H     0.59000   0.94390   0.44090   0.01267  Uiso   1.00
H44    H     0.84200   0.76300   0.87420   0.01267  Uiso   1.00
H45    H     0.03460   0.91670   0.77220   0.01267  Uiso   1.00
H46    H     0.93890   0.55630   0.13100   0.01267  Uiso   1.00
H47    H     0.88470   0.36220   0.02690   0.01267  Uiso   1.00
H48    H     0.75470   0.21010   0.04660   0.01267  Uiso   1.00
H49    H     0.67510   0.24970   0.16420   0.01267  Uiso   1.00
H50    H     0.07880   0.72910   0.44220   0.01267  Uiso   1.00
H51    H     0.15760   0.76520   0.55060   0.01267  Uiso   1.00
H52    H     0.11820   0.54550   0.44810   0.01267  Uiso   1.00
H53    H     0.01710   0.52370   0.35830   0.01267  Uiso   1.00
H54    H     0.01600   0.65460   0.63490   0.01267  Uiso   1.00
H55    H     0.11660   0.62580   0.61980   0.01267  Uiso   1.00
H56    H     0.40320   0.63840   0.13440   0.01267  Uiso   1.00
H57    H     0.46830   0.74180   0.10980   0.01267  Uiso   1.00
H58    H     0.41610   0.59940   0.94180   0.01267  Uiso   1.00
H59    H     0.35350   0.49550   0.96690   0.01267  Uiso   1.00
H60    H     0.46860   0.48080   0.11050   0.01267  Uiso   1.00
H61    H     0.59980   0.57520   0.17000   0.01267  Uiso   1.00
H62    H     0.74700   0.07680   0.63410   0.01267  Uiso   1.00
H63    H     0.78180   0.08510   0.54450   0.01267  Uiso   1.00
H64    H     0.54870   0.98070   0.61590   0.01267  Uiso   1.00
H65    H     0.52920   0.85920   0.54030   0.01267  Uiso   1.00
H66    H     0.64870   0.13860   0.48170   0.01267  Uiso   1.00
H67    H     0.62170   0.15340   0.57890   0.01267  Uiso   1.00
H68    H     0.65600   0.65250   0.79940   0.01267  Uiso   1.00
H69    H     0.70800   0.56880   0.76200   0.01267  Uiso   1.00
H70    H     0.76550   0.85990   0.80610   0.01267  Uiso   1.00
H71    H     0.81080   0.82340   0.72020   0.01267  Uiso   1.00
H72    H     0.89440   0.69530   0.70780   0.01267  Uiso   1.00
H73    H     0.90620   0.64350   0.78510   0.01267  Uiso   1.00
H74    H     0.04580   0.82980   0.91050   0.01267  Uiso   1.00
H75    H     0.08730   0.79910   0.82120   0.01267  Uiso   1.00
H76    H     0.94450   0.01390   0.83690   0.01267  Uiso   1.00
H77    H     0.95390   0.97420   0.92240   0.01267  Uiso   1.00
H78    H     0.21710   0.01460   0.87880   0.01267  Uiso   1.00
H79    H     0.17710   0.02360   0.96900   0.01267  Uiso   1.00
H80    H     0.60760   0.73100   0.61730   0.01267  Uiso   1.00
C1     C     0.29400   0.54720   0.70500   0.01267  Uiso   1.00
C2     C     0.12960   0.35480   0.72880   0.01267  Uiso   1.00
C3     C     0.24120   0.57340   0.78080   0.01267  Uiso   1.00
C4     C     0.16170   0.48060   0.79060   0.01267  Uiso   1.00
C5     C     0.11450   0.50500   0.86200   0.01267  Uiso   1.00
C6     C     0.14650   0.62170   0.92440   0.01267  Uiso   1.00
C7     C     0.22470   0.71240   0.91300   0.01267  Uiso   1.00
C8     C     0.27180   0.68870   0.84250   0.01267  Uiso   1.00
C9     C     0.92210   0.26890   0.49390   0.01267  Uiso   1.00
C10    C     0.96400   0.47770   0.57750   0.01267  Uiso   1.00
C11    C     0.96560   0.39900   0.40990   0.01267  Uiso   1.00
C12    C     0.52190   0.31150   0.86410   0.01267  Uiso   1.00
C13    C     0.57290   0.45500   0.03420   0.01267  Uiso   1.00
C14    C     0.46170   0.46930   0.89540   0.01267  Uiso   1.00
C15    C     0.26750   0.96850   0.43510   0.01267  Uiso   1.00
C16    C     0.47430   0.06930   0.45410   0.01267  Uiso   1.00
C17    C     0.40260   0.90070   0.49010   0.01267  Uiso   1.00
C18    C     0.29960   0.36410   0.24090   0.01267  Uiso   1.00
C19    C     0.17430   0.15730   0.21000   0.01267  Uiso   1.00
C20    C     0.09050   0.28770   0.22270   0.01267  Uiso   1.00
C21    C     0.97050   0.18300   0.15830   0.01267  Uiso   1.00
C22    C     0.05720   0.05000   0.14740   0.01267  Uiso   1.00
C23    C     0.83920   0.97260   0.09430   0.01267  Uiso   1.00
C24    C     0.70600   0.45280   0.29500   0.01267  Uiso   1.00
C25    C     0.87040   0.64520   0.27120   0.01267  Uiso   1.00
C26    C     0.75880   0.42660   0.21920   0.01267  Uiso   1.00
C27    C     0.83830   0.51940   0.20940   0.01267  Uiso   1.00
C28    C     0.88550   0.49500   0.13800   0.01267  Uiso   1.00
C29    C     0.85350   0.37830   0.07560   0.01267  Uiso   1.00
C30    C     0.77530   0.28760   0.08700   0.01267  Uiso   1.00
C31    C     0.72820   0.31130   0.15750   0.01267  Uiso   1.00
C32    C     0.07790   0.73110   0.50610   0.01267  Uiso   1.00
C33    C     0.03600   0.52230   0.42250   0.01267  Uiso   1.00
C34    C     0.03440   0.60100   0.59010   0.01267  Uiso   1.00
C35    C     0.47810   0.68850   0.13590   0.01267  Uiso   1.00
C36    C     0.42710   0.54500   0.96580   0.01267  Uiso   1.00
C37    C     0.53830   0.53070   0.10460   0.01267  Uiso   1.00
C38    C     0.73250   0.03150   0.56490   0.01267  Uiso   1.00
C39    C     0.52570   0.93070   0.54590   0.01267  Uiso   1.00
C40    C     0.59740   0.09930   0.50990   0.01267  Uiso   1.00
C41    C     0.70040   0.63590   0.75910   0.01267  Uiso   1.00
C42    C     0.82570   0.84270   0.79000   0.01267  Uiso   1.00
C43    C     0.90950   0.71230   0.77730   0.01267  Uiso   1.00
C44    C     0.02950   0.81700   0.84170   0.01267  Uiso   1.00
C45    C     0.94280   0.95000   0.85260   0.01267  Uiso   1.00
C46    C     0.16080   0.02740   0.90570   0.01267  Uiso   1.00
N1     N     0.98980   0.39270   0.50700   0.01267  Uiso   1.00
N2     N     0.48370   0.38700   0.93060   0.01267  Uiso   1.00
N3     N     0.39150   0.00720   0.49470   0.01267  Uiso   1.00
N4     N     0.17970   0.26040   0.19260   0.01267  Uiso   1.00
N5     N     0.95990   0.07280   0.16480   0.01267  Uiso   1.00
N6     N     0.01020   0.60730   0.49300   0.01267  Uiso   1.00
N7     N     0.51630   0.61300   0.06940   0.01267  Uiso   1.00
N8     N     0.60850   0.99280   0.50530   0.01267  Uiso   1.00
N9     N     0.82030   0.73960   0.80740   0.01267  Uiso   1.00
N10    N     0.04010   0.92720   0.83520   0.01267  Uiso   1.00
O1     O     0.22990   0.50100   0.61450   0.01267  Uiso   1.00
O2     O     0.39680   0.56340   0.73270   0.01267  Uiso   1.00
O3     O     0.20200   0.33250   0.69400   0.01267  Uiso   1.00
O4     O     0.03440   0.27440   0.71420   0.01267  Uiso   1.00
O5     O     0.97650   0.09870   0.49700   0.01267  Uiso   1.00
O6     O     0.10900   0.26400   0.46290   0.01267  Uiso   1.00
O7     O     0.91420   0.09440   0.33200   0.01267  Uiso   1.00
O8     O     0.43510   0.31170   0.68910   0.01267  Uiso   1.00
O9     O     0.45470   0.13390   0.68830   0.01267  Uiso   1.00
O10    O     0.30190   0.17380   0.74420   0.01267  Uiso   1.00
O11    O     0.21170   0.13130   0.54140   0.01267  Uiso   1.00
O12    O     0.30680   0.17960   0.43020   0.01267  Uiso   1.00
O13    O     0.10170   0.00540   0.35550   0.01267  Uiso   1.00
O14    O     0.30960   0.40310   0.42910   0.01267  Uiso   1.00
O15    O     0.42850   0.31350   0.36190   0.01267  Uiso   1.00
O16    O     0.48390   0.52690   0.39950   0.01267  Uiso   1.00
O17    O     0.68650   0.74600   0.02550   0.01267  Uiso   1.00
O18    O     0.87500   0.79200   0.99710   0.01267  Uiso   1.00
O19    O     0.87770   0.83280   0.17050   0.01267  Uiso   1.00
O20    O     0.77010   0.49900   0.38550   0.01267  Uiso   1.00
O21    O     0.60320   0.43660   0.26730   0.01267  Uiso   1.00
O22    O     0.79800   0.66750   0.30600   0.01267  Uiso   1.00
O23    O     0.96560   0.72560   0.28580   0.01267  Uiso   1.00
O24    O     0.02350   0.90130   0.50300   0.01267  Uiso   1.00
O25    O     0.89100   0.73600   0.53710   0.01267  Uiso   1.00
O26    O     0.08580   0.90560   0.66800   0.01267  Uiso   1.00
O27    O     0.56490   0.68830   0.31090   0.01267  Uiso   1.00
O28    O     0.54530   0.86610   0.31170   0.01267  Uiso   1.00
O29    O     0.69810   0.82620   0.25580   0.01267  Uiso   1.00
O30    O     0.78830   0.86870   0.45860   0.01267  Uiso   1.00
O31    O     0.69320   0.82040   0.56980   0.01267  Uiso   1.00
O32    O     0.89830   0.99460   0.64450   0.01267  Uiso   1.00
O33    O     0.69040   0.59690   0.57090   0.01267  Uiso   1.00
O34    O     0.57150   0.68650   0.63810   0.01267  Uiso   1.00
O35    O     0.51610   0.47310   0.60050   0.01267  Uiso   1.00
O36    O     0.31350   0.25400   0.97450   0.01267  Uiso   1.00
O37    O     0.12500   0.20800   0.00290   0.01267  Uiso   1.00
O38    O     0.12230   0.16720   0.82950   0.01267  Uiso   1.00
