data_image0
_cell_length_a       12.3588
_cell_length_b       15.5011
_cell_length_c       34.305
_cell_angle_alpha    90
_cell_angle_beta     90
_cell_angle_gamma    90

_symmetry_space_group_name_H-M    "P 1"
_symmetry_int_tables_number       1

loop_
  _symmetry_equiv_pos_as_xyz
  'x, y, z'

loop_
  _atom_site_label
  _atom_site_occupancy
  _atom_site_fract_x
  _atom_site_fract_y
  _atom_site_fract_z
  _atom_site_thermal_displace_type
  _atom_site_B_iso_or_equiv
  _atom_site_type_symbol
  Cu1      1.0000 0.65009  0.64229  0.51370  Biso   1.000  Cu
  S1       1.0000 0.88049  0.62863  0.30933  Biso   1.000  S
  C1       1.0000 0.81540  0.23170  0.33330  Biso   1.000  C
  H1       1.0000 0.87710  0.19380  0.32810  Biso   1.000  H
  H2       1.0000 0.75030  0.20790  0.32110  Biso   1.000  H
  H3       1.0000 0.80410  0.23600  0.36160  Biso   1.000  H
  C2       1.0000 0.83740  0.31840  0.31720  Biso   1.000  C
  C3       1.0000 0.82560  0.45720  0.30660  Biso   1.000  C
  C4       1.0000 0.78930  0.54640  0.30610  Biso   1.000  C
  C5       1.0000 0.68810  0.57520  0.29880  Biso   1.000  C
  H4       1.0000 0.62690  0.53870  0.29580  Biso   1.000  H
  C6       1.0000 0.68430  0.66660  0.29600  Biso   1.000  C
  H5       1.0000 0.61960  0.69820  0.29160  Biso   1.000  H
  C7       1.0000 0.78270  0.70380  0.30040  Biso   1.000  C
  C8       1.0000 0.81400  0.79430  0.29560  Biso   1.000  C
  C9       1.0000 0.81750  0.93390  0.30230  Biso   1.000  C
  C10      1.0000 0.79550  0.02190  0.31640  Biso   1.000  C
  H6       1.0000 0.83960  0.06310  0.30170  Biso   1.000  H
  H7       1.0000 0.81360  0.02570  0.34420  Biso   1.000  H
  H8       1.0000 0.71870  0.03530  0.31270  Biso   1.000  H
  C11      1.0000 0.70230  0.40190  0.35830  Biso   1.000  C
  C12      1.0000 0.60070  0.36280  0.35630  Biso   1.000  C
  H9       1.0000 0.58060  0.32900  0.33440  Biso   1.000  H
  C13      1.0000 0.52960  0.37480  0.38750  Biso   1.000  C
  H10      1.0000 0.46170  0.34610  0.38760  Biso   1.000  H
  C14      1.0000 0.55790  0.42900  0.41850  Biso   1.000  C
  H11      1.0000 0.50730  0.43970  0.43870  Biso   1.000  H
  C15      1.0000 0.66120  0.46800  0.41980  Biso   1.000  C
  C16      1.0000 0.73060  0.45350  0.38920  Biso   1.000  C
  H12      1.0000 0.80000  0.47990  0.38940  Biso   1.000  H
  C17      1.0000 0.69220  0.52780  0.45080  Biso   1.000  C
  C18      1.0000 0.69750  0.85370  0.34880  Biso   1.000  C
  C19      1.0000 0.59380  0.88780  0.34680  Biso   1.000  C
  H13      1.0000 0.56830  0.91440  0.32360  Biso   1.000  H
  C20      1.0000 0.52890  0.88180  0.37930  Biso   1.000  C
  H14      1.0000 0.45880  0.90690  0.37880  Biso   1.000  H
  C21      1.0000 0.56340  0.84010  0.41300  Biso   1.000  C
  H15      1.0000 0.51670  0.83520  0.43480  Biso   1.000  H
  C22      1.0000 0.66760  0.80560  0.41410  Biso   1.000  C
  C23      1.0000 0.73490  0.81230  0.38160  Biso   1.000  C
  H16      1.0000 0.80580  0.78860  0.38200  Biso   1.000  H
  C24      1.0000 0.70200  0.75360  0.44830  Biso   1.000  C
  N1       1.0000 0.77960  0.39120  0.32700  Biso   1.000  N
  N2       1.0000 0.91340  0.33820  0.29230  Biso   1.000  N
  N3       1.0000 0.90810  0.42720  0.28590  Biso   1.000  N
  N4       1.0000 0.76840  0.86160  0.31556  Biso   1.000  N
  N5       1.0000 0.88990  0.82300  0.27180  Biso   1.000  N
  N6       1.0000 0.89130  0.91280  0.27560  Biso   1.000  N
  O1       1.0000 0.61880  0.55540  0.47413  Biso   1.000  O
  O2       1.0000 0.79030  0.55300  0.45210  Biso   1.000  O
  O3       1.0000 0.63330  0.73280  0.47364  Biso   1.000  O
  O4       1.0000 0.80120  0.73020  0.44900  Biso   1.000  O
  Cu2      1.0000 0.15009  0.14229  0.01370  Biso   1.000  Cu
  S2       1.0000 0.38049  0.12863  0.80933  Biso   1.000  S
  C25      1.0000 0.31540  0.73170  0.83330  Biso   1.000  C
  H17      1.0000 0.37710  0.69380  0.82810  Biso   1.000  H
  H18      1.0000 0.25030  0.70790  0.82110  Biso   1.000  H
  H19      1.0000 0.30410  0.73600  0.86160  Biso   1.000  H
  C26      1.0000 0.33740  0.81840  0.81720  Biso   1.000  C
  C27      1.0000 0.32560  0.95720  0.80660  Biso   1.000  C
  C28      1.0000 0.28930  0.04640  0.80610  Biso   1.000  C
  C29      1.0000 0.18810  0.07520  0.79880  Biso   1.000  C
  H20      1.0000 0.12690  0.03870  0.79580  Biso   1.000  H
  C30      1.0000 0.18430  0.16660  0.79600  Biso   1.000  C
  H21      1.0000 0.11960  0.19820  0.79160  Biso   1.000  H
  C31      1.0000 0.28270  0.20380  0.80040  Biso   1.000  C
  C32      1.0000 0.31400  0.29430  0.79560  Biso   1.000  C
  C33      1.0000 0.31750  0.43390  0.80230  Biso   1.000  C
  C34      1.0000 0.29550  0.52190  0.81640  Biso   1.000  C
  H22      1.0000 0.33960  0.56310  0.80170  Biso   1.000  H
  H23      1.0000 0.31360  0.52570  0.84420  Biso   1.000  H
  H24      1.0000 0.21870  0.53530  0.81270  Biso   1.000  H
  C35      1.0000 0.20230  0.90190  0.85830  Biso   1.000  C
  C36      1.0000 0.10070  0.86280  0.85630  Biso   1.000  C
  H25      1.0000 0.08060  0.82900  0.83440  Biso   1.000  H
  C37      1.0000 0.02960  0.87480  0.88750  Biso   1.000  C
  H26      1.0000 0.96170  0.84610  0.88760  Biso   1.000  H
  C38      1.0000 0.05790  0.92900  0.91850  Biso   1.000  C
  H27      1.0000 0.00730  0.93970  0.93870  Biso   1.000  H
  C39      1.0000 0.16120  0.96800  0.91980  Biso   1.000  C
  C40      1.0000 0.23060  0.95350  0.88920  Biso   1.000  C
  H28      1.0000 0.30000  0.97990  0.88940  Biso   1.000  H
  C41      1.0000 0.19220  0.02780  0.95080  Biso   1.000  C
  C42      1.0000 0.19750  0.35370  0.84880  Biso   1.000  C
  C43      1.0000 0.09380  0.38780  0.84680  Biso   1.000  C
  H29      1.0000 0.06830  0.41440  0.82360  Biso   1.000  H
  C44      1.0000 0.02890  0.38180  0.87930  Biso   1.000  C
  H30      1.0000 0.95880  0.40690  0.87880  Biso   1.000  H
  C45      1.0000 0.06340  0.34010  0.91300  Biso   1.000  C
  H31      1.0000 0.01670  0.33520  0.93480  Biso   1.000  H
  C46      1.0000 0.16760  0.30560  0.91410  Biso   1.000  C
  C47      1.0000 0.23490  0.31230  0.88160  Biso   1.000  C
  H32      1.0000 0.30580  0.28860  0.88200  Biso   1.000  H
  C48      1.0000 0.20200  0.25360  0.94830  Biso   1.000  C
  N7       1.0000 0.27960  0.89120  0.82700  Biso   1.000  N
  N8       1.0000 0.41340  0.83820  0.79230  Biso   1.000  N
  N9       1.0000 0.40810  0.92720  0.78590  Biso   1.000  N
  N10      1.0000 0.26840  0.36160  0.81556  Biso   1.000  N
  N11      1.0000 0.38990  0.32300  0.77180  Biso   1.000  N
  N12      1.0000 0.39130  0.41280  0.77560  Biso   1.000  N
  O5       1.0000 0.11880  0.05540  0.97413  Biso   1.000  O
  O6       1.0000 0.29030  0.05300  0.95210  Biso   1.000  O
  O7       1.0000 0.13330  0.23280  0.97364  Biso   1.000  O
  O8       1.0000 0.30120  0.23020  0.94900  Biso   1.000  O
  Cu3      1.0000 0.84991  0.35771  0.01370  Biso   1.000  Cu
  S3       1.0000 0.61951  0.37137  0.80933  Biso   1.000  S
  C49      1.0000 0.68460  0.76830  0.83330  Biso   1.000  C
  H33      1.0000 0.62290  0.80620  0.82810  Biso   1.000  H
  H34      1.0000 0.74970  0.79210  0.82110  Biso   1.000  H
  H35      1.0000 0.69590  0.76400  0.86160  Biso   1.000  H
  C50      1.0000 0.66260  0.68160  0.81720  Biso   1.000  C
  C51      1.0000 0.67440  0.54280  0.80660  Biso   1.000  C
  C52      1.0000 0.71070  0.45360  0.80610  Biso   1.000  C
  C53      1.0000 0.81190  0.42480  0.79880  Biso   1.000  C
  H36      1.0000 0.87310  0.46130  0.79580  Biso   1.000  H
  C54      1.0000 0.81570  0.33340  0.79600  Biso   1.000  C
  H37      1.0000 0.88040  0.30180  0.79160  Biso   1.000  H
  C55      1.0000 0.71730  0.29620  0.80040  Biso   1.000  C
  C56      1.0000 0.68600  0.20570  0.79560  Biso   1.000  C
  C57      1.0000 0.68250  0.06610  0.80230  Biso   1.000  C
  C58      1.0000 0.70450  0.97810  0.81640  Biso   1.000  C
  H38      1.0000 0.66040  0.93690  0.80170  Biso   1.000  H
  H39      1.0000 0.68640  0.97430  0.84420  Biso   1.000  H
  H40      1.0000 0.78130  0.96470  0.81270  Biso   1.000  H
  C59      1.0000 0.79770  0.59810  0.85830  Biso   1.000  C
  C60      1.0000 0.89930  0.63720  0.85630  Biso   1.000  C
  H41      1.0000 0.91940  0.67100  0.83440  Biso   1.000  H
  C61      1.0000 0.97040  0.62520  0.88750  Biso   1.000  C
  H42      1.0000 0.03830  0.65390  0.88760  Biso   1.000  H
  C62      1.0000 0.94210  0.57100  0.91850  Biso   1.000  C
  H43      1.0000 0.99270  0.56030  0.93870  Biso   1.000  H
  C63      1.0000 0.83880  0.53200  0.91980  Biso   1.000  C
  C64      1.0000 0.76940  0.54650  0.88920  Biso   1.000  C
  H44      1.0000 0.70000  0.52010  0.88940  Biso   1.000  H
  C65      1.0000 0.80780  0.47220  0.95080  Biso   1.000  C
  C66      1.0000 0.80250  0.14630  0.84880  Biso   1.000  C
  C67      1.0000 0.90620  0.11220  0.84680  Biso   1.000  C
  H45      1.0000 0.93170  0.08560  0.82360  Biso   1.000  H
  C68      1.0000 0.97110  0.11820  0.87930  Biso   1.000  C
  H46      1.0000 0.04120  0.09310  0.87880  Biso   1.000  H
  C69      1.0000 0.93660  0.15990  0.91300  Biso   1.000  C
  H47      1.0000 0.98330  0.16480  0.93480  Biso   1.000  H
  C70      1.0000 0.83240  0.19440  0.91410  Biso   1.000  C
  C71      1.0000 0.76510  0.18770  0.88160  Biso   1.000  C
  H48      1.0000 0.69420  0.21140  0.88200  Biso   1.000  H
  C72      1.0000 0.79800  0.24640  0.94830  Biso   1.000  C
  N13      1.0000 0.72040  0.60880  0.82700  Biso   1.000  N
  N14      1.0000 0.58660  0.66180  0.79230  Biso   1.000  N
  N15      1.0000 0.59190  0.57280  0.78590  Biso   1.000  N
  N16      1.0000 0.73160  0.13840  0.81556  Biso   1.000  N
  N17      1.0000 0.61010  0.17700  0.77180  Biso   1.000  N
  N18      1.0000 0.60870  0.08720  0.77560  Biso   1.000  N
  O9       1.0000 0.88120  0.44460  0.97413  Biso   1.000  O
  O10      1.0000 0.70970  0.44700  0.95210  Biso   1.000  O
  O11      1.0000 0.86670  0.26720  0.97364  Biso   1.000  O
  O12      1.0000 0.69880  0.26980  0.94900  Biso   1.000  O
  Cu4      1.0000 0.34991  0.85771  0.51370  Biso   1.000  Cu
  S4       1.0000 0.11951  0.87137  0.30933  Biso   1.000  S
  C73      1.0000 0.18460  0.26830  0.33330  Biso   1.000  C
  H49      1.0000 0.12290  0.30620  0.32810  Biso   1.000  H
  H50      1.0000 0.24970  0.29210  0.32110  Biso   1.000  H
  H51      1.0000 0.19590  0.26400  0.36160  Biso   1.000  H
  C74      1.0000 0.16260  0.18160  0.31720  Biso   1.000  C
  C75      1.0000 0.17440  0.04280  0.30660  Biso   1.000  C
  C76      1.0000 0.21070  0.95360  0.30610  Biso   1.000  C
  C77      1.0000 0.31190  0.92480  0.29880  Biso   1.000  C
  H52      1.0000 0.37310  0.96130  0.29580  Biso   1.000  H
  C78      1.0000 0.31570  0.83340  0.29600  Biso   1.000  C
  H53      1.0000 0.38040  0.80180  0.29160  Biso   1.000  H
  C79      1.0000 0.21730  0.79620  0.30040  Biso   1.000  C
  C80      1.0000 0.18600  0.70570  0.29560  Biso   1.000  C
  C81      1.0000 0.18250  0.56610  0.30230  Biso   1.000  C
  C82      1.0000 0.20450  0.47810  0.31640  Biso   1.000  C
  H54      1.0000 0.16040  0.43690  0.30170  Biso   1.000  H
  H55      1.0000 0.18640  0.47430  0.34420  Biso   1.000  H
  H56      1.0000 0.28130  0.46470  0.31270  Biso   1.000  H
  C83      1.0000 0.29770  0.09810  0.35830  Biso   1.000  C
  C84      1.0000 0.39930  0.13720  0.35630  Biso   1.000  C
  H57      1.0000 0.41940  0.17100  0.33440  Biso   1.000  H
  C85      1.0000 0.47040  0.12520  0.38750  Biso   1.000  C
  H58      1.0000 0.53830  0.15390  0.38760  Biso   1.000  H
  C86      1.0000 0.44210  0.07100  0.41850  Biso   1.000  C
  H59      1.0000 0.49270  0.06030  0.43870  Biso   1.000  H
  C87      1.0000 0.33880  0.03200  0.41980  Biso   1.000  C
  C88      1.0000 0.26940  0.04650  0.38920  Biso   1.000  C
  H60      1.0000 0.20000  0.02010  0.38940  Biso   1.000  H
  C89      1.0000 0.30780  0.97220  0.45080  Biso   1.000  C
  C90      1.0000 0.30250  0.64630  0.34880  Biso   1.000  C
  C91      1.0000 0.40620  0.61220  0.34680  Biso   1.000  C
  H61      1.0000 0.43170  0.58560  0.32360  Biso   1.000  H
  C92      1.0000 0.47110  0.61820  0.37930  Biso   1.000  C
  H62      1.0000 0.54120  0.59310  0.37880  Biso   1.000  H
  C93      1.0000 0.43660  0.65990  0.41300  Biso   1.000  C
  H63      1.0000 0.48330  0.66480  0.43480  Biso   1.000  H
  C94      1.0000 0.33240  0.69440  0.41410  Biso   1.000  C
  C95      1.0000 0.26510  0.68770  0.38160  Biso   1.000  C
  H64      1.0000 0.19420  0.71140  0.38200  Biso   1.000  H
  C96      1.0000 0.29800  0.74640  0.44830  Biso   1.000  C
  N19      1.0000 0.22040  0.10880  0.32700  Biso   1.000  N
  N20      1.0000 0.08660  0.16180  0.29230  Biso   1.000  N
  N21      1.0000 0.09190  0.07280  0.28590  Biso   1.000  N
  N22      1.0000 0.23160  0.63840  0.31556  Biso   1.000  N
  N23      1.0000 0.11010  0.67700  0.27180  Biso   1.000  N
  N24      1.0000 0.10870  0.58720  0.27560  Biso   1.000  N
  O13      1.0000 0.38120  0.94460  0.47413  Biso   1.000  O
  O14      1.0000 0.20970  0.94700  0.45210  Biso   1.000  O
  O15      1.0000 0.36670  0.76720  0.47364  Biso   1.000  O
  O16      1.0000 0.19880  0.76980  0.44900  Biso   1.000  O
  Cu5      1.0000 0.34991  0.14229  0.98630  Biso   1.000  Cu
  S5       1.0000 0.11951  0.12863  0.19067  Biso   1.000  S
  C97      1.0000 0.18460  0.73170  0.16670  Biso   1.000  C
  H65      1.0000 0.12290  0.69380  0.17190  Biso   1.000  H
  H66      1.0000 0.24970  0.70790  0.17890  Biso   1.000  H
  H67      1.0000 0.19590  0.73600  0.13840  Biso   1.000  H
  C98      1.0000 0.16260  0.81840  0.18280  Biso   1.000  C
  C99      1.0000 0.17440  0.95720  0.19340  Biso   1.000  C
  C100     1.0000 0.21070  0.04640  0.19390  Biso   1.000  C
  C101     1.0000 0.31190  0.07520  0.20120  Biso   1.000  C
  H68      1.0000 0.37310  0.03870  0.20420  Biso   1.000  H
  C102     1.0000 0.31570  0.16660  0.20400  Biso   1.000  C
  H69      1.0000 0.38040  0.19820  0.20840  Biso   1.000  H
  C103     1.0000 0.21730  0.20380  0.19960  Biso   1.000  C
  C104     1.0000 0.18600  0.29430  0.20440  Biso   1.000  C
  C105     1.0000 0.18250  0.43390  0.19770  Biso   1.000  C
  C106     1.0000 0.20450  0.52190  0.18360  Biso   1.000  C
  H70      1.0000 0.16040  0.56310  0.19830  Biso   1.000  H
  H71      1.0000 0.18640  0.52570  0.15580  Biso   1.000  H
  H72      1.0000 0.28130  0.53530  0.18730  Biso   1.000  H
  C107     1.0000 0.29770  0.90190  0.14170  Biso   1.000  C
  C108     1.0000 0.39930  0.86280  0.14370  Biso   1.000  C
  H73      1.0000 0.41940  0.82900  0.16560  Biso   1.000  H
  C109     1.0000 0.47040  0.87480  0.11250  Biso   1.000  C
  H74      1.0000 0.53830  0.84610  0.11240  Biso   1.000  H
  C110     1.0000 0.44210  0.92900  0.08150  Biso   1.000  C
  H75      1.0000 0.49270  0.93970  0.06130  Biso   1.000  H
  C111     1.0000 0.33880  0.96800  0.08020  Biso   1.000  C
  C112     1.0000 0.26940  0.95350  0.11080  Biso   1.000  C
  H76      1.0000 0.20000  0.97990  0.11060  Biso   1.000  H
  C113     1.0000 0.30780  0.02780  0.04920  Biso   1.000  C
  C114     1.0000 0.30250  0.35370  0.15120  Biso   1.000  C
  C115     1.0000 0.40620  0.38780  0.15320  Biso   1.000  C
  H77      1.0000 0.43170  0.41440  0.17640  Biso   1.000  H
  C116     1.0000 0.47110  0.38180  0.12070  Biso   1.000  C
  H78      1.0000 0.54120  0.40690  0.12120  Biso   1.000  H
  C117     1.0000 0.43660  0.34010  0.08700  Biso   1.000  C
  H79      1.0000 0.48330  0.33520  0.06520  Biso   1.000  H
  C118     1.0000 0.33240  0.30560  0.08590  Biso   1.000  C
  C119     1.0000 0.26510  0.31230  0.11840  Biso   1.000  C
  H80      1.0000 0.19420  0.28860  0.11800  Biso   1.000  H
  C120     1.0000 0.29800  0.25360  0.05170  Biso   1.000  C
  N25      1.0000 0.22040  0.89120  0.17300  Biso   1.000  N
  N26      1.0000 0.08660  0.83820  0.20770  Biso   1.000  N
  N27      1.0000 0.09190  0.92720  0.21410  Biso   1.000  N
  N28      1.0000 0.23160  0.36160  0.18444  Biso   1.000  N
  N29      1.0000 0.11010  0.32300  0.22820  Biso   1.000  N
  N30      1.0000 0.10870  0.41280  0.22440  Biso   1.000  N
  O17      1.0000 0.38120  0.05540  0.02587  Biso   1.000  O
  O18      1.0000 0.20970  0.05300  0.04790  Biso   1.000  O
  O19      1.0000 0.36670  0.23280  0.02636  Biso   1.000  O
  O20      1.0000 0.19880  0.23020  0.05100  Biso   1.000  O
  Cu6      1.0000 0.84991  0.64229  0.48630  Biso   1.000  Cu
  S6       1.0000 0.61951  0.62863  0.69067  Biso   1.000  S
  C121     1.0000 0.68460  0.23170  0.66670  Biso   1.000  C
  H81      1.0000 0.62290  0.19380  0.67190  Biso   1.000  H
  H82      1.0000 0.74970  0.20790  0.67890  Biso   1.000  H
  H83      1.0000 0.69590  0.23600  0.63840  Biso   1.000  H
  C122     1.0000 0.66260  0.31840  0.68280  Biso   1.000  C
  C123     1.0000 0.67440  0.45720  0.69340  Biso   1.000  C
  C124     1.0000 0.71070  0.54640  0.69390  Biso   1.000  C
  C125     1.0000 0.81190  0.57520  0.70120  Biso   1.000  C
  H84      1.0000 0.87310  0.53870  0.70420  Biso   1.000  H
  C126     1.0000 0.81570  0.66660  0.70400  Biso   1.000  C
  H85      1.0000 0.88040  0.69820  0.70840  Biso   1.000  H
  C127     1.0000 0.71730  0.70380  0.69960  Biso   1.000  C
  C128     1.0000 0.68600  0.79430  0.70440  Biso   1.000  C
  C129     1.0000 0.68250  0.93390  0.69770  Biso   1.000  C
  C130     1.0000 0.70450  0.02190  0.68360  Biso   1.000  C
  H86      1.0000 0.66040  0.06310  0.69830  Biso   1.000  H
  H87      1.0000 0.68640  0.02570  0.65580  Biso   1.000  H
  H88      1.0000 0.78130  0.03530  0.68730  Biso   1.000  H
  C131     1.0000 0.79770  0.40190  0.64170  Biso   1.000  C
  C132     1.0000 0.89930  0.36280  0.64370  Biso   1.000  C
  H89      1.0000 0.91940  0.32900  0.66560  Biso   1.000  H
  C133     1.0000 0.97040  0.37480  0.61250  Biso   1.000  C
  H90      1.0000 0.03830  0.34610  0.61240  Biso   1.000  H
  C134     1.0000 0.94210  0.42900  0.58150  Biso   1.000  C
  H91      1.0000 0.99270  0.43970  0.56130  Biso   1.000  H
  C135     1.0000 0.83880  0.46800  0.58020  Biso   1.000  C
  C136     1.0000 0.76940  0.45350  0.61080  Biso   1.000  C
  H92      1.0000 0.70000  0.47990  0.61060  Biso   1.000  H
  C137     1.0000 0.80780  0.52780  0.54920  Biso   1.000  C
  C138     1.0000 0.80250  0.85370  0.65120  Biso   1.000  C
  C139     1.0000 0.90620  0.88780  0.65320  Biso   1.000  C
  H93      1.0000 0.93170  0.91440  0.67640  Biso   1.000  H
  C140     1.0000 0.97110  0.88180  0.62070  Biso   1.000  C
  H94      1.0000 0.04120  0.90690  0.62120  Biso   1.000  H
  C141     1.0000 0.93660  0.84010  0.58700  Biso   1.000  C
  H95      1.0000 0.98330  0.83520  0.56520  Biso   1.000  H
  C142     1.0000 0.83240  0.80560  0.58590  Biso   1.000  C
  C143     1.0000 0.76510  0.81230  0.61840  Biso   1.000  C
  H96      1.0000 0.69420  0.78860  0.61800  Biso   1.000  H
  C144     1.0000 0.79800  0.75360  0.55170  Biso   1.000  C
  N31      1.0000 0.72040  0.39120  0.67300  Biso   1.000  N
  N32      1.0000 0.58660  0.33820  0.70770  Biso   1.000  N
  N33      1.0000 0.59190  0.42720  0.71410  Biso   1.000  N
  N34      1.0000 0.73160  0.86160  0.68444  Biso   1.000  N
  N35      1.0000 0.61010  0.82300  0.72820  Biso   1.000  N
  N36      1.0000 0.60870  0.91280  0.72440  Biso   1.000  N
  O21      1.0000 0.88120  0.55540  0.52587  Biso   1.000  O
  O22      1.0000 0.70970  0.55300  0.54790  Biso   1.000  O
  O23      1.0000 0.86670  0.73280  0.52636  Biso   1.000  O
  O24      1.0000 0.69880  0.73020  0.55100  Biso   1.000  O
  Cu7      1.0000 0.15009  0.85771  0.48630  Biso   1.000  Cu
  S7       1.0000 0.38049  0.87137  0.69067  Biso   1.000  S
  C145     1.0000 0.31540  0.26830  0.66670  Biso   1.000  C
  H97      1.0000 0.37710  0.30620  0.67190  Biso   1.000  H
  H98      1.0000 0.25030  0.29210  0.67890  Biso   1.000  H
  H99      1.0000 0.30410  0.26400  0.63840  Biso   1.000  H
  C146     1.0000 0.33740  0.18160  0.68280  Biso   1.000  C
  C147     1.0000 0.32560  0.04280  0.69340  Biso   1.000  C
  C148     1.0000 0.28930  0.95360  0.69390  Biso   1.000  C
  C149     1.0000 0.18810  0.92480  0.70120  Biso   1.000  C
  H100     1.0000 0.12690  0.96130  0.70420  Biso   1.000  H
  C150     1.0000 0.18430  0.83340  0.70400  Biso   1.000  C
  H101     1.0000 0.11960  0.80180  0.70840  Biso   1.000  H
  C151     1.0000 0.28270  0.79620  0.69960  Biso   1.000  C
  C152     1.0000 0.31400  0.70570  0.70440  Biso   1.000  C
  C153     1.0000 0.31750  0.56610  0.69770  Biso   1.000  C
  C154     1.0000 0.29550  0.47810  0.68360  Biso   1.000  C
  H102     1.0000 0.33960  0.43690  0.69830  Biso   1.000  H
  H103     1.0000 0.31360  0.47430  0.65580  Biso   1.000  H
  H104     1.0000 0.21870  0.46470  0.68730  Biso   1.000  H
  C155     1.0000 0.20230  0.09810  0.64170  Biso   1.000  C
  C156     1.0000 0.10070  0.13720  0.64370  Biso   1.000  C
  H105     1.0000 0.08060  0.17100  0.66560  Biso   1.000  H
  C157     1.0000 0.02960  0.12520  0.61250  Biso   1.000  C
  H106     1.0000 0.96170  0.15390  0.61240  Biso   1.000  H
  C158     1.0000 0.05790  0.07100  0.58150  Biso   1.000  C
  H107     1.0000 0.00730  0.06030  0.56130  Biso   1.000  H
  C159     1.0000 0.16120  0.03200  0.58020  Biso   1.000  C
  C160     1.0000 0.23060  0.04650  0.61080  Biso   1.000  C
  H108     1.0000 0.30000  0.02010  0.61060  Biso   1.000  H
  C161     1.0000 0.19220  0.97220  0.54920  Biso   1.000  C
  C162     1.0000 0.19750  0.64630  0.65120  Biso   1.000  C
  C163     1.0000 0.09380  0.61220  0.65320  Biso   1.000  C
  H109     1.0000 0.06830  0.58560  0.67640  Biso   1.000  H
  C164     1.0000 0.02890  0.61820  0.62070  Biso   1.000  C
  H110     1.0000 0.95880  0.59310  0.62120  Biso   1.000  H
  C165     1.0000 0.06340  0.65990  0.58700  Biso   1.000  C
  H111     1.0000 0.01670  0.66480  0.56520  Biso   1.000  H
  C166     1.0000 0.16760  0.69440  0.58590  Biso   1.000  C
  C167     1.0000 0.23490  0.68770  0.61840  Biso   1.000  C
  H112     1.0000 0.30580  0.71140  0.61800  Biso   1.000  H
  C168     1.0000 0.20200  0.74640  0.55170  Biso   1.000  C
  N37      1.0000 0.27960  0.10880  0.67300  Biso   1.000  N
  N38      1.0000 0.41340  0.16180  0.70770  Biso   1.000  N
  N39      1.0000 0.40810  0.07280  0.71410  Biso   1.000  N
  N40      1.0000 0.26840  0.63840  0.68444  Biso   1.000  N
  N41      1.0000 0.38990  0.67700  0.72820  Biso   1.000  N
  N42      1.0000 0.39130  0.58720  0.72440  Biso   1.000  N
  O25      1.0000 0.11880  0.94460  0.52587  Biso   1.000  O
  O26      1.0000 0.29030  0.94700  0.54790  Biso   1.000  O
  O27      1.0000 0.13330  0.76720  0.52636  Biso   1.000  O
  O28      1.0000 0.30120  0.76980  0.55100  Biso   1.000  O
  Cu8      1.0000 0.65009  0.35771  0.98630  Biso   1.000  Cu
  S8       1.0000 0.88049  0.37137  0.19067  Biso   1.000  S
  C169     1.0000 0.81540  0.76830  0.16670  Biso   1.000  C
  H113     1.0000 0.87710  0.80620  0.17190  Biso   1.000  H
  H114     1.0000 0.75030  0.79210  0.17890  Biso   1.000  H
  H115     1.0000 0.80410  0.76400  0.13840  Biso   1.000  H
  C170     1.0000 0.83740  0.68160  0.18280  Biso   1.000  C
  C171     1.0000 0.82560  0.54280  0.19340  Biso   1.000  C
  C172     1.0000 0.78930  0.45360  0.19390  Biso   1.000  C
  C173     1.0000 0.68810  0.42480  0.20120  Biso   1.000  C
  H116     1.0000 0.62690  0.46130  0.20420  Biso   1.000  H
  C174     1.0000 0.68430  0.33340  0.20400  Biso   1.000  C
  H117     1.0000 0.61960  0.30180  0.20840  Biso   1.000  H
  C175     1.0000 0.78270  0.29620  0.19960  Biso   1.000  C
  C176     1.0000 0.81400  0.20570  0.20440  Biso   1.000  C
  C177     1.0000 0.81750  0.06610  0.19770  Biso   1.000  C
  C178     1.0000 0.79550  0.97810  0.18360  Biso   1.000  C
  H118     1.0000 0.83960  0.93690  0.19830  Biso   1.000  H
  H119     1.0000 0.81360  0.97430  0.15580  Biso   1.000  H
  H120     1.0000 0.71870  0.96470  0.18730  Biso   1.000  H
  C179     1.0000 0.70230  0.59810  0.14170  Biso   1.000  C
  C180     1.0000 0.60070  0.63720  0.14370  Biso   1.000  C
  H121     1.0000 0.58060  0.67100  0.16560  Biso   1.000  H
  C181     1.0000 0.52960  0.62520  0.11250  Biso   1.000  C
  H122     1.0000 0.46170  0.65390  0.11240  Biso   1.000  H
  C182     1.0000 0.55790  0.57100  0.08150  Biso   1.000  C
  H123     1.0000 0.50730  0.56030  0.06130  Biso   1.000  H
  C183     1.0000 0.66120  0.53200  0.08020  Biso   1.000  C
  C184     1.0000 0.73060  0.54650  0.11080  Biso   1.000  C
  H124     1.0000 0.80000  0.52010  0.11060  Biso   1.000  H
  C185     1.0000 0.69220  0.47220  0.04920  Biso   1.000  C
  C186     1.0000 0.69750  0.14630  0.15120  Biso   1.000  C
  C187     1.0000 0.59380  0.11220  0.15320  Biso   1.000  C
  H125     1.0000 0.56830  0.08560  0.17640  Biso   1.000  H
  C188     1.0000 0.52890  0.11820  0.12070  Biso   1.000  C
  H126     1.0000 0.45880  0.09310  0.12120  Biso   1.000  H
  C189     1.0000 0.56340  0.15990  0.08700  Biso   1.000  C
  H127     1.0000 0.51670  0.16480  0.06520  Biso   1.000  H
  C190     1.0000 0.66760  0.19440  0.08590  Biso   1.000  C
  C191     1.0000 0.73490  0.18770  0.11840  Biso   1.000  C
  H128     1.0000 0.80580  0.21140  0.11800  Biso   1.000  H
  C192     1.0000 0.70200  0.24640  0.05170  Biso   1.000  C
  N43      1.0000 0.77960  0.60880  0.17300  Biso   1.000  N
  N44      1.0000 0.91340  0.66180  0.20770  Biso   1.000  N
  N45      1.0000 0.90810  0.57280  0.21410  Biso   1.000  N
  N46      1.0000 0.76840  0.13840  0.18444  Biso   1.000  N
  N47      1.0000 0.88990  0.17700  0.22820  Biso   1.000  N
  N48      1.0000 0.89130  0.08720  0.22440  Biso   1.000  N
  O29      1.0000 0.61880  0.44460  0.02587  Biso   1.000  O
  O30      1.0000 0.79030  0.44700  0.04790  Biso   1.000  O
  O31      1.0000 0.63330  0.26720  0.02636  Biso   1.000  O
  O32      1.0000 0.80120  0.26980  0.05100  Biso   1.000  O
  Cu9      1.0000 0.00000  0.25000  0.26001  Biso   1.000  Cu
  Cu10     1.0000 0.50000  0.75000  0.76001  Biso   1.000  Cu
  Cu11     1.0000 0.00000  0.75000  0.23999  Biso   1.000  Cu
  Cu12     1.0000 0.50000  0.25000  0.73999  Biso   1.000  Cu
  Cu13     1.0000 0.00537  0.50000  0.25000  Biso   1.000  Cu
  Cu14     1.0000 0.49463  0.50000  0.75000  Biso   1.000  Cu
  Cu15     1.0000 0.99463  0.00000  0.25000  Biso   1.000  Cu
  Cu16     1.0000 0.50537  0.00000  0.75000  Biso   1.000  Cu
