data_image0
_cell_length_a       12.3588
_cell_length_b       15.5011
_cell_length_c       34.305
_cell_angle_alpha    90
_cell_angle_beta     90
_cell_angle_gamma    90

_symmetry_space_group_name_H-M    "P 1"
_symmetry_int_tables_number       1

loop_
  _symmetry_equiv_pos_as_xyz
  'x, y, z'

loop_
  _atom_site_label
  _atom_site_occupancy
  _atom_site_fract_x
  _atom_site_fract_y
  _atom_site_fract_z
  _atom_site_thermal_displace_type
  _atom_site_B_iso_or_equiv
  _atom_site_type_symbol
  Cu1      1.0000 0.65009  0.64226  0.51369  Biso   1.000  Cu
  S1       1.0000 0.88048  0.62868  0.30932  Biso   1.000  S
  C1       1.0000 0.81520  0.23150  0.33320  Biso   1.000  C
  H1       1.0000 0.87750  0.19400  0.32840  Biso   1.000  H
  H2       1.0000 0.75100  0.20730  0.32050  Biso   1.000  H
  H3       1.0000 0.80230  0.23580  0.36130  Biso   1.000  H
  C2       1.0000 0.83730  0.31860  0.31720  Biso   1.000  C
  C3       1.0000 0.82560  0.45710  0.30680  Biso   1.000  C
  C4       1.0000 0.78940  0.54630  0.30620  Biso   1.000  C
  C5       1.0000 0.68840  0.57550  0.29880  Biso   1.000  C
  H4       1.0000 0.62710  0.53900  0.29580  Biso   1.000  H
  C6       1.0000 0.68420  0.66660  0.29600  Biso   1.000  C
  H5       1.0000 0.61960  0.69810  0.29140  Biso   1.000  H
  C7       1.0000 0.78250  0.70390  0.30050  Biso   1.000  C
  C8       1.0000 0.81420  0.79420  0.29550  Biso   1.000  C
  C9       1.0000 0.81720  0.93380  0.30230  Biso   1.000  C
  C10      1.0000 0.79520  0.02190  0.31650  Biso   1.000  C
  H6       1.0000 0.83610  0.06350  0.30090  Biso   1.000  H
  H7       1.0000 0.81720  0.02650  0.34390  Biso   1.000  H
  H8       1.0000 0.71770  0.03410  0.31430  Biso   1.000  H
  C11      1.0000 0.70220  0.40190  0.35820  Biso   1.000  C
  C12      1.0000 0.60090  0.36270  0.35640  Biso   1.000  C
  H9       1.0000 0.58090  0.32850  0.33460  Biso   1.000  H
  C13      1.0000 0.52950  0.37500  0.38750  Biso   1.000  C
  H10      1.0000 0.46130  0.34670  0.38750  Biso   1.000  H
  C14      1.0000 0.55790  0.42870  0.41850  Biso   1.000  C
  H11      1.0000 0.50730  0.43910  0.43880  Biso   1.000  H
  C15      1.0000 0.66120  0.46790  0.41990  Biso   1.000  C
  C16      1.0000 0.73070  0.45360  0.38910  Biso   1.000  C
  H12      1.0000 0.80000  0.48010  0.38930  Biso   1.000  H
  C17      1.0000 0.69210  0.52750  0.45090  Biso   1.000  C
  C18      1.0000 0.69750  0.85370  0.34880  Biso   1.000  C
  C19      1.0000 0.59380  0.88780  0.34680  Biso   1.000  C
  H13      1.0000 0.56820  0.91450  0.32360  Biso   1.000  H
  C20      1.0000 0.52920  0.88180  0.37920  Biso   1.000  C
  H14      1.0000 0.45910  0.90690  0.37870  Biso   1.000  H
  C21      1.0000 0.56340  0.84020  0.41290  Biso   1.000  C
  H15      1.0000 0.51660  0.83520  0.43470  Biso   1.000  H
  C22      1.0000 0.66760  0.80570  0.41410  Biso   1.000  C
  C23      1.0000 0.73470  0.81230  0.38150  Biso   1.000  C
  H16      1.0000 0.80550  0.78840  0.38190  Biso   1.000  H
  C24      1.0000 0.70220  0.75350  0.44820  Biso   1.000  C
  N1       1.0000 0.77950  0.39110  0.32700  Biso   1.000  N
  N2       1.0000 0.91330  0.33810  0.29220  Biso   1.000  N
  N3       1.0000 0.90830  0.42700  0.28600  Biso   1.000  N
  N4       1.0000 0.76850  0.86170  0.31557  Biso   1.000  N
  N5       1.0000 0.89000  0.82300  0.27179  Biso   1.000  N
  N6       1.0000 0.89120  0.91250  0.27570  Biso   1.000  N
  O1       1.0000 0.61880  0.55510  0.47421  Biso   1.000  O
  O2       1.0000 0.79020  0.55290  0.45210  Biso   1.000  O
  O3       1.0000 0.63330  0.73270  0.47363  Biso   1.000  O
  O4       1.0000 0.80120  0.73010  0.44889  Biso   1.000  O
  Cu2      1.0000 0.15009  0.14226  0.01369  Biso   1.000  Cu
  S2       1.0000 0.38048  0.12868  0.80932  Biso   1.000  S
  C25      1.0000 0.31520  0.73150  0.83320  Biso   1.000  C
  H17      1.0000 0.37750  0.69400  0.82840  Biso   1.000  H
  H18      1.0000 0.25100  0.70730  0.82050  Biso   1.000  H
  H19      1.0000 0.30230  0.73580  0.86130  Biso   1.000  H
  C26      1.0000 0.33730  0.81860  0.81720  Biso   1.000  C
  C27      1.0000 0.32560  0.95710  0.80680  Biso   1.000  C
  C28      1.0000 0.28940  0.04630  0.80620  Biso   1.000  C
  C29      1.0000 0.18840  0.07550  0.79880  Biso   1.000  C
  H20      1.0000 0.12710  0.03900  0.79580  Biso   1.000  H
  C30      1.0000 0.18420  0.16660  0.79600  Biso   1.000  C
  H21      1.0000 0.11960  0.19810  0.79140  Biso   1.000  H
  C31      1.0000 0.28250  0.20390  0.80050  Biso   1.000  C
  C32      1.0000 0.31420  0.29420  0.79550  Biso   1.000  C
  C33      1.0000 0.31720  0.43380  0.80230  Biso   1.000  C
  C34      1.0000 0.29520  0.52190  0.81650  Biso   1.000  C
  H22      1.0000 0.33610  0.56350  0.80090  Biso   1.000  H
  H23      1.0000 0.31720  0.52650  0.84390  Biso   1.000  H
  H24      1.0000 0.21770  0.53410  0.81430  Biso   1.000  H
  C35      1.0000 0.20220  0.90190  0.85820  Biso   1.000  C
  C36      1.0000 0.10090  0.86270  0.85640  Biso   1.000  C
  H25      1.0000 0.08090  0.82850  0.83460  Biso   1.000  H
  C37      1.0000 0.02950  0.87500  0.88750  Biso   1.000  C
  H26      1.0000 0.96130  0.84670  0.88750  Biso   1.000  H
  C38      1.0000 0.05790  0.92870  0.91850  Biso   1.000  C
  H27      1.0000 0.00730  0.93910  0.93880  Biso   1.000  H
  C39      1.0000 0.16120  0.96790  0.91990  Biso   1.000  C
  C40      1.0000 0.23070  0.95360  0.88910  Biso   1.000  C
  H28      1.0000 0.30000  0.98010  0.88930  Biso   1.000  H
  C41      1.0000 0.19210  0.02750  0.95090  Biso   1.000  C
  C42      1.0000 0.19750  0.35370  0.84880  Biso   1.000  C
  C43      1.0000 0.09380  0.38780  0.84680  Biso   1.000  C
  H29      1.0000 0.06820  0.41450  0.82360  Biso   1.000  H
  C44      1.0000 0.02920  0.38180  0.87920  Biso   1.000  C
  H30      1.0000 0.95910  0.40690  0.87870  Biso   1.000  H
  C45      1.0000 0.06340  0.34020  0.91290  Biso   1.000  C
  H31      1.0000 0.01660  0.33520  0.93470  Biso   1.000  H
  C46      1.0000 0.16760  0.30570  0.91410  Biso   1.000  C
  C47      1.0000 0.23470  0.31230  0.88150  Biso   1.000  C
  H32      1.0000 0.30550  0.28840  0.88190  Biso   1.000  H
  C48      1.0000 0.20220  0.25350  0.94820  Biso   1.000  C
  N7       1.0000 0.27950  0.89110  0.82700  Biso   1.000  N
  N8       1.0000 0.41330  0.83810  0.79220  Biso   1.000  N
  N9       1.0000 0.40830  0.92700  0.78600  Biso   1.000  N
  N10      1.0000 0.26850  0.36170  0.81557  Biso   1.000  N
  N11      1.0000 0.39000  0.32300  0.77179  Biso   1.000  N
  N12      1.0000 0.39120  0.41250  0.77570  Biso   1.000  N
  O5       1.0000 0.11880  0.05510  0.97421  Biso   1.000  O
  O6       1.0000 0.29020  0.05290  0.95210  Biso   1.000  O
  O7       1.0000 0.13330  0.23270  0.97363  Biso   1.000  O
  O8       1.0000 0.30120  0.23010  0.94889  Biso   1.000  O
  Cu3      1.0000 0.84991  0.35774  0.01369  Biso   1.000  Cu
  S3       1.0000 0.61952  0.37132  0.80932  Biso   1.000  S
  C49      1.0000 0.68480  0.76850  0.83320  Biso   1.000  C
  H33      1.0000 0.62250  0.80600  0.82840  Biso   1.000  H
  H34      1.0000 0.74900  0.79270  0.82050  Biso   1.000  H
  H35      1.0000 0.69770  0.76420  0.86130  Biso   1.000  H
  C50      1.0000 0.66270  0.68140  0.81720  Biso   1.000  C
  C51      1.0000 0.67440  0.54290  0.80680  Biso   1.000  C
  C52      1.0000 0.71060  0.45370  0.80620  Biso   1.000  C
  C53      1.0000 0.81160  0.42450  0.79880  Biso   1.000  C
  H36      1.0000 0.87290  0.46100  0.79580  Biso   1.000  H
  C54      1.0000 0.81580  0.33340  0.79600  Biso   1.000  C
  H37      1.0000 0.88040  0.30190  0.79140  Biso   1.000  H
  C55      1.0000 0.71750  0.29610  0.80050  Biso   1.000  C
  C56      1.0000 0.68580  0.20580  0.79550  Biso   1.000  C
  C57      1.0000 0.68280  0.06620  0.80230  Biso   1.000  C
  C58      1.0000 0.70480  0.97810  0.81650  Biso   1.000  C
  H38      1.0000 0.66390  0.93650  0.80090  Biso   1.000  H
  H39      1.0000 0.68280  0.97350  0.84390  Biso   1.000  H
  H40      1.0000 0.78230  0.96590  0.81430  Biso   1.000  H
  C59      1.0000 0.79780  0.59810  0.85820  Biso   1.000  C
  C60      1.0000 0.89910  0.63730  0.85640  Biso   1.000  C
  H41      1.0000 0.91910  0.67150  0.83460  Biso   1.000  H
  C61      1.0000 0.97050  0.62500  0.88750  Biso   1.000  C
  H42      1.0000 0.03870  0.65330  0.88750  Biso   1.000  H
  C62      1.0000 0.94210  0.57130  0.91850  Biso   1.000  C
  H43      1.0000 0.99270  0.56090  0.93880  Biso   1.000  H
  C63      1.0000 0.83880  0.53210  0.91990  Biso   1.000  C
  C64      1.0000 0.76930  0.54640  0.88910  Biso   1.000  C
  H44      1.0000 0.70000  0.51990  0.88930  Biso   1.000  H
  C65      1.0000 0.80790  0.47250  0.95090  Biso   1.000  C
  C66      1.0000 0.80250  0.14630  0.84880  Biso   1.000  C
  C67      1.0000 0.90620  0.11220  0.84680  Biso   1.000  C
  H45      1.0000 0.93180  0.08550  0.82360  Biso   1.000  H
  C68      1.0000 0.97080  0.11820  0.87920  Biso   1.000  C
  H46      1.0000 0.04090  0.09310  0.87870  Biso   1.000  H
  C69      1.0000 0.93660  0.15980  0.91290  Biso   1.000  C
  H47      1.0000 0.98340  0.16480  0.93470  Biso   1.000  H
  C70      1.0000 0.83240  0.19430  0.91410  Biso   1.000  C
  C71      1.0000 0.76530  0.18770  0.88150  Biso   1.000  C
  H48      1.0000 0.69450  0.21160  0.88190  Biso   1.000  H
  C72      1.0000 0.79780  0.24650  0.94820  Biso   1.000  C
  N13      1.0000 0.72050  0.60890  0.82700  Biso   1.000  N
  N14      1.0000 0.58670  0.66190  0.79220  Biso   1.000  N
  N15      1.0000 0.59170  0.57300  0.78600  Biso   1.000  N
  N16      1.0000 0.73150  0.13830  0.81557  Biso   1.000  N
  N17      1.0000 0.61000  0.17700  0.77179  Biso   1.000  N
  N18      1.0000 0.60880  0.08750  0.77570  Biso   1.000  N
  O9       1.0000 0.88120  0.44490  0.97421  Biso   1.000  O
  O10      1.0000 0.70980  0.44710  0.95210  Biso   1.000  O
  O11      1.0000 0.86670  0.26730  0.97363  Biso   1.000  O
  O12      1.0000 0.69880  0.26990  0.94889  Biso   1.000  O
  Cu4      1.0000 0.34991  0.85774  0.51369  Biso   1.000  Cu
  S4       1.0000 0.11952  0.87132  0.30932  Biso   1.000  S
  C73      1.0000 0.18480  0.26850  0.33320  Biso   1.000  C
  H49      1.0000 0.12250  0.30600  0.32840  Biso   1.000  H
  H50      1.0000 0.24900  0.29270  0.32050  Biso   1.000  H
  H51      1.0000 0.19770  0.26420  0.36130  Biso   1.000  H
  C74      1.0000 0.16270  0.18140  0.31720  Biso   1.000  C
  C75      1.0000 0.17440  0.04290  0.30680  Biso   1.000  C
  C76      1.0000 0.21060  0.95370  0.30620  Biso   1.000  C
  C77      1.0000 0.31160  0.92450  0.29880  Biso   1.000  C
  H52      1.0000 0.37290  0.96100  0.29580  Biso   1.000  H
  C78      1.0000 0.31580  0.83340  0.29600  Biso   1.000  C
  H53      1.0000 0.38040  0.80190  0.29140  Biso   1.000  H
  C79      1.0000 0.21750  0.79610  0.30050  Biso   1.000  C
  C80      1.0000 0.18580  0.70580  0.29550  Biso   1.000  C
  C81      1.0000 0.18280  0.56620  0.30230  Biso   1.000  C
  C82      1.0000 0.20480  0.47810  0.31650  Biso   1.000  C
  H54      1.0000 0.16390  0.43650  0.30090  Biso   1.000  H
  H55      1.0000 0.18280  0.47350  0.34390  Biso   1.000  H
  H56      1.0000 0.28230  0.46590  0.31430  Biso   1.000  H
  C83      1.0000 0.29780  0.09810  0.35820  Biso   1.000  C
  C84      1.0000 0.39910  0.13730  0.35640  Biso   1.000  C
  H57      1.0000 0.41910  0.17150  0.33460  Biso   1.000  H
  C85      1.0000 0.47050  0.12500  0.38750  Biso   1.000  C
  H58      1.0000 0.53870  0.15330  0.38750  Biso   1.000  H
  C86      1.0000 0.44210  0.07130  0.41850  Biso   1.000  C
  H59      1.0000 0.49270  0.06090  0.43880  Biso   1.000  H
  C87      1.0000 0.33880  0.03210  0.41990  Biso   1.000  C
  C88      1.0000 0.26930  0.04640  0.38910  Biso   1.000  C
  H60      1.0000 0.20000  0.01990  0.38930  Biso   1.000  H
  C89      1.0000 0.30790  0.97250  0.45090  Biso   1.000  C
  C90      1.0000 0.30250  0.64630  0.34880  Biso   1.000  C
  C91      1.0000 0.40620  0.61220  0.34680  Biso   1.000  C
  H61      1.0000 0.43180  0.58550  0.32360  Biso   1.000  H
  C92      1.0000 0.47080  0.61820  0.37920  Biso   1.000  C
  H62      1.0000 0.54090  0.59310  0.37870  Biso   1.000  H
  C93      1.0000 0.43660  0.65980  0.41290  Biso   1.000  C
  H63      1.0000 0.48340  0.66480  0.43470  Biso   1.000  H
  C94      1.0000 0.33240  0.69430  0.41410  Biso   1.000  C
  C95      1.0000 0.26530  0.68770  0.38150  Biso   1.000  C
  H64      1.0000 0.19450  0.71160  0.38190  Biso   1.000  H
  C96      1.0000 0.29780  0.74650  0.44820  Biso   1.000  C
  N19      1.0000 0.22050  0.10890  0.32700  Biso   1.000  N
  N20      1.0000 0.08670  0.16190  0.29220  Biso   1.000  N
  N21      1.0000 0.09170  0.07300  0.28600  Biso   1.000  N
  N22      1.0000 0.23150  0.63830  0.31557  Biso   1.000  N
  N23      1.0000 0.11000  0.67700  0.27179  Biso   1.000  N
  N24      1.0000 0.10880  0.58750  0.27570  Biso   1.000  N
  O13      1.0000 0.38120  0.94490  0.47421  Biso   1.000  O
  O14      1.0000 0.20980  0.94710  0.45210  Biso   1.000  O
  O15      1.0000 0.36670  0.76730  0.47363  Biso   1.000  O
  O16      1.0000 0.19880  0.76990  0.44889  Biso   1.000  O
  Cu5      1.0000 0.34991  0.14226  0.98631  Biso   1.000  Cu
  S5       1.0000 0.11952  0.12868  0.19068  Biso   1.000  S
  C97      1.0000 0.18480  0.73150  0.16680  Biso   1.000  C
  H65      1.0000 0.12250  0.69400  0.17160  Biso   1.000  H
  H66      1.0000 0.24900  0.70730  0.17950  Biso   1.000  H
  H67      1.0000 0.19770  0.73580  0.13870  Biso   1.000  H
  C98      1.0000 0.16270  0.81860  0.18280  Biso   1.000  C
  C99      1.0000 0.17440  0.95710  0.19320  Biso   1.000  C
  C100     1.0000 0.21060  0.04630  0.19380  Biso   1.000  C
  C101     1.0000 0.31160  0.07550  0.20120  Biso   1.000  C
  H68      1.0000 0.37290  0.03900  0.20420  Biso   1.000  H
  C102     1.0000 0.31580  0.16660  0.20400  Biso   1.000  C
  H69      1.0000 0.38040  0.19810  0.20860  Biso   1.000  H
  C103     1.0000 0.21750  0.20390  0.19950  Biso   1.000  C
  C104     1.0000 0.18580  0.29420  0.20450  Biso   1.000  C
  C105     1.0000 0.18280  0.43380  0.19770  Biso   1.000  C
  C106     1.0000 0.20480  0.52190  0.18350  Biso   1.000  C
  H70      1.0000 0.16390  0.56350  0.19910  Biso   1.000  H
  H71      1.0000 0.18280  0.52650  0.15610  Biso   1.000  H
  H72      1.0000 0.28230  0.53410  0.18570  Biso   1.000  H
  C107     1.0000 0.29780  0.90190  0.14180  Biso   1.000  C
  C108     1.0000 0.39910  0.86270  0.14360  Biso   1.000  C
  H73      1.0000 0.41910  0.82850  0.16540  Biso   1.000  H
  C109     1.0000 0.47050  0.87500  0.11250  Biso   1.000  C
  H74      1.0000 0.53870  0.84670  0.11250  Biso   1.000  H
  C110     1.0000 0.44210  0.92870  0.08150  Biso   1.000  C
  H75      1.0000 0.49270  0.93910  0.06120  Biso   1.000  H
  C111     1.0000 0.33880  0.96790  0.08010  Biso   1.000  C
  C112     1.0000 0.26930  0.95360  0.11090  Biso   1.000  C
  H76      1.0000 0.20000  0.98010  0.11070  Biso   1.000  H
  C113     1.0000 0.30790  0.02750  0.04910  Biso   1.000  C
  C114     1.0000 0.30250  0.35370  0.15120  Biso   1.000  C
  C115     1.0000 0.40620  0.38780  0.15320  Biso   1.000  C
  H77      1.0000 0.43180  0.41450  0.17640  Biso   1.000  H
  C116     1.0000 0.47080  0.38180  0.12080  Biso   1.000  C
  H78      1.0000 0.54090  0.40690  0.12130  Biso   1.000  H
  C117     1.0000 0.43660  0.34020  0.08710  Biso   1.000  C
  H79      1.0000 0.48340  0.33520  0.06530  Biso   1.000  H
  C118     1.0000 0.33240  0.30570  0.08590  Biso   1.000  C
  C119     1.0000 0.26530  0.31230  0.11850  Biso   1.000  C
  H80      1.0000 0.19450  0.28840  0.11810  Biso   1.000  H
  C120     1.0000 0.29780  0.25350  0.05180  Biso   1.000  C
  N25      1.0000 0.22050  0.89110  0.17300  Biso   1.000  N
  N26      1.0000 0.08670  0.83810  0.20780  Biso   1.000  N
  N27      1.0000 0.09170  0.92700  0.21400  Biso   1.000  N
  N28      1.0000 0.23150  0.36170  0.18443  Biso   1.000  N
  N29      1.0000 0.11000  0.32300  0.22821  Biso   1.000  N
  N30      1.0000 0.10880  0.41250  0.22430  Biso   1.000  N
  O17      1.0000 0.38120  0.05510  0.02579  Biso   1.000  O
  O18      1.0000 0.20980  0.05290  0.04790  Biso   1.000  O
  O19      1.0000 0.36670  0.23270  0.02637  Biso   1.000  O
  O20      1.0000 0.19880  0.23010  0.05111  Biso   1.000  O
  Cu6      1.0000 0.84991  0.64226  0.48631  Biso   1.000  Cu
  S6       1.0000 0.61952  0.62868  0.69068  Biso   1.000  S
  C121     1.0000 0.68480  0.23150  0.66680  Biso   1.000  C
  H81      1.0000 0.62250  0.19400  0.67160  Biso   1.000  H
  H82      1.0000 0.74900  0.20730  0.67950  Biso   1.000  H
  H83      1.0000 0.69770  0.23580  0.63870  Biso   1.000  H
  C122     1.0000 0.66270  0.31860  0.68280  Biso   1.000  C
  C123     1.0000 0.67440  0.45710  0.69320  Biso   1.000  C
  C124     1.0000 0.71060  0.54630  0.69380  Biso   1.000  C
  C125     1.0000 0.81160  0.57550  0.70120  Biso   1.000  C
  H84      1.0000 0.87290  0.53900  0.70420  Biso   1.000  H
  C126     1.0000 0.81580  0.66660  0.70400  Biso   1.000  C
  H85      1.0000 0.88040  0.69810  0.70860  Biso   1.000  H
  C127     1.0000 0.71750  0.70390  0.69950  Biso   1.000  C
  C128     1.0000 0.68580  0.79420  0.70450  Biso   1.000  C
  C129     1.0000 0.68280  0.93380  0.69770  Biso   1.000  C
  C130     1.0000 0.70480  0.02190  0.68350  Biso   1.000  C
  H86      1.0000 0.66390  0.06350  0.69910  Biso   1.000  H
  H87      1.0000 0.68280  0.02650  0.65610  Biso   1.000  H
  H88      1.0000 0.78230  0.03410  0.68570  Biso   1.000  H
  C131     1.0000 0.79780  0.40190  0.64180  Biso   1.000  C
  C132     1.0000 0.89910  0.36270  0.64360  Biso   1.000  C
  H89      1.0000 0.91910  0.32850  0.66540  Biso   1.000  H
  C133     1.0000 0.97050  0.37500  0.61250  Biso   1.000  C
  H90      1.0000 0.03870  0.34670  0.61250  Biso   1.000  H
  C134     1.0000 0.94210  0.42870  0.58150  Biso   1.000  C
  H91      1.0000 0.99270  0.43910  0.56120  Biso   1.000  H
  C135     1.0000 0.83880  0.46790  0.58010  Biso   1.000  C
  C136     1.0000 0.76930  0.45360  0.61090  Biso   1.000  C
  H92      1.0000 0.70000  0.48010  0.61070  Biso   1.000  H
  C137     1.0000 0.80790  0.52750  0.54910  Biso   1.000  C
  C138     1.0000 0.80250  0.85370  0.65120  Biso   1.000  C
  C139     1.0000 0.90620  0.88780  0.65320  Biso   1.000  C
  H93      1.0000 0.93180  0.91450  0.67640  Biso   1.000  H
  C140     1.0000 0.97080  0.88180  0.62080  Biso   1.000  C
  H94      1.0000 0.04090  0.90690  0.62130  Biso   1.000  H
  C141     1.0000 0.93660  0.84020  0.58710  Biso   1.000  C
  H95      1.0000 0.98340  0.83520  0.56530  Biso   1.000  H
  C142     1.0000 0.83240  0.80570  0.58590  Biso   1.000  C
  C143     1.0000 0.76530  0.81230  0.61850  Biso   1.000  C
  H96      1.0000 0.69450  0.78840  0.61810  Biso   1.000  H
  C144     1.0000 0.79780  0.75350  0.55180  Biso   1.000  C
  N31      1.0000 0.72050  0.39110  0.67300  Biso   1.000  N
  N32      1.0000 0.58670  0.33810  0.70780  Biso   1.000  N
  N33      1.0000 0.59170  0.42700  0.71400  Biso   1.000  N
  N34      1.0000 0.73150  0.86170  0.68443  Biso   1.000  N
  N35      1.0000 0.61000  0.82300  0.72821  Biso   1.000  N
  N36      1.0000 0.60880  0.91250  0.72430  Biso   1.000  N
  O21      1.0000 0.88120  0.55510  0.52579  Biso   1.000  O
  O22      1.0000 0.70980  0.55290  0.54790  Biso   1.000  O
  O23      1.0000 0.86670  0.73270  0.52637  Biso   1.000  O
  O24      1.0000 0.69880  0.73010  0.55111  Biso   1.000  O
  Cu7      1.0000 0.15009  0.85774  0.48631  Biso   1.000  Cu
  S7       1.0000 0.38048  0.87132  0.69068  Biso   1.000  S
  C145     1.0000 0.31520  0.26850  0.66680  Biso   1.000  C
  H97      1.0000 0.37750  0.30600  0.67160  Biso   1.000  H
  H98      1.0000 0.25100  0.29270  0.67950  Biso   1.000  H
  H99      1.0000 0.30230  0.26420  0.63870  Biso   1.000  H
  C146     1.0000 0.33730  0.18140  0.68280  Biso   1.000  C
  C147     1.0000 0.32560  0.04290  0.69320  Biso   1.000  C
  C148     1.0000 0.28940  0.95370  0.69380  Biso   1.000  C
  C149     1.0000 0.18840  0.92450  0.70120  Biso   1.000  C
  H100     1.0000 0.12710  0.96100  0.70420  Biso   1.000  H
  C150     1.0000 0.18420  0.83340  0.70400  Biso   1.000  C
  H101     1.0000 0.11960  0.80190  0.70860  Biso   1.000  H
  C151     1.0000 0.28250  0.79610  0.69950  Biso   1.000  C
  C152     1.0000 0.31420  0.70580  0.70450  Biso   1.000  C
  C153     1.0000 0.31720  0.56620  0.69770  Biso   1.000  C
  C154     1.0000 0.29520  0.47810  0.68350  Biso   1.000  C
  H102     1.0000 0.33610  0.43650  0.69910  Biso   1.000  H
  H103     1.0000 0.31720  0.47350  0.65610  Biso   1.000  H
  H104     1.0000 0.21770  0.46590  0.68570  Biso   1.000  H
  C155     1.0000 0.20220  0.09810  0.64180  Biso   1.000  C
  C156     1.0000 0.10090  0.13730  0.64360  Biso   1.000  C
  H105     1.0000 0.08090  0.17150  0.66540  Biso   1.000  H
  C157     1.0000 0.02950  0.12500  0.61250  Biso   1.000  C
  H106     1.0000 0.96130  0.15330  0.61250  Biso   1.000  H
  C158     1.0000 0.05790  0.07130  0.58150  Biso   1.000  C
  H107     1.0000 0.00730  0.06090  0.56120  Biso   1.000  H
  C159     1.0000 0.16120  0.03210  0.58010  Biso   1.000  C
  C160     1.0000 0.23070  0.04640  0.61090  Biso   1.000  C
  H108     1.0000 0.30000  0.01990  0.61070  Biso   1.000  H
  C161     1.0000 0.19210  0.97250  0.54910  Biso   1.000  C
  C162     1.0000 0.19750  0.64630  0.65120  Biso   1.000  C
  C163     1.0000 0.09380  0.61220  0.65320  Biso   1.000  C
  H109     1.0000 0.06820  0.58550  0.67640  Biso   1.000  H
  C164     1.0000 0.02920  0.61820  0.62080  Biso   1.000  C
  H110     1.0000 0.95910  0.59310  0.62130  Biso   1.000  H
  C165     1.0000 0.06340  0.65980  0.58710  Biso   1.000  C
  H111     1.0000 0.01660  0.66480  0.56530  Biso   1.000  H
  C166     1.0000 0.16760  0.69430  0.58590  Biso   1.000  C
  C167     1.0000 0.23470  0.68770  0.61850  Biso   1.000  C
  H112     1.0000 0.30550  0.71160  0.61810  Biso   1.000  H
  C168     1.0000 0.20220  0.74650  0.55180  Biso   1.000  C
  N37      1.0000 0.27950  0.10890  0.67300  Biso   1.000  N
  N38      1.0000 0.41330  0.16190  0.70780  Biso   1.000  N
  N39      1.0000 0.40830  0.07300  0.71400  Biso   1.000  N
  N40      1.0000 0.26850  0.63830  0.68443  Biso   1.000  N
  N41      1.0000 0.39000  0.67700  0.72821  Biso   1.000  N
  N42      1.0000 0.39120  0.58750  0.72430  Biso   1.000  N
  O25      1.0000 0.11880  0.94490  0.52579  Biso   1.000  O
  O26      1.0000 0.29020  0.94710  0.54790  Biso   1.000  O
  O27      1.0000 0.13330  0.76730  0.52637  Biso   1.000  O
  O28      1.0000 0.30120  0.76990  0.55111  Biso   1.000  O
  Cu8      1.0000 0.65009  0.35774  0.98631  Biso   1.000  Cu
  S8       1.0000 0.88048  0.37132  0.19068  Biso   1.000  S
  C169     1.0000 0.81520  0.76850  0.16680  Biso   1.000  C
  H113     1.0000 0.87750  0.80600  0.17160  Biso   1.000  H
  H114     1.0000 0.75100  0.79270  0.17950  Biso   1.000  H
  H115     1.0000 0.80230  0.76420  0.13870  Biso   1.000  H
  C170     1.0000 0.83730  0.68140  0.18280  Biso   1.000  C
  C171     1.0000 0.82560  0.54290  0.19320  Biso   1.000  C
  C172     1.0000 0.78940  0.45370  0.19380  Biso   1.000  C
  C173     1.0000 0.68840  0.42450  0.20120  Biso   1.000  C
  H116     1.0000 0.62710  0.46100  0.20420  Biso   1.000  H
  C174     1.0000 0.68420  0.33340  0.20400  Biso   1.000  C
  H117     1.0000 0.61960  0.30190  0.20860  Biso   1.000  H
  C175     1.0000 0.78250  0.29610  0.19950  Biso   1.000  C
  C176     1.0000 0.81420  0.20580  0.20450  Biso   1.000  C
  C177     1.0000 0.81720  0.06620  0.19770  Biso   1.000  C
  C178     1.0000 0.79520  0.97810  0.18350  Biso   1.000  C
  H118     1.0000 0.83610  0.93650  0.19910  Biso   1.000  H
  H119     1.0000 0.81720  0.97350  0.15610  Biso   1.000  H
  H120     1.0000 0.71770  0.96590  0.18570  Biso   1.000  H
  C179     1.0000 0.70220  0.59810  0.14180  Biso   1.000  C
  C180     1.0000 0.60090  0.63730  0.14360  Biso   1.000  C
  H121     1.0000 0.58090  0.67150  0.16540  Biso   1.000  H
  C181     1.0000 0.52950  0.62500  0.11250  Biso   1.000  C
  H122     1.0000 0.46130  0.65330  0.11250  Biso   1.000  H
  C182     1.0000 0.55790  0.57130  0.08150  Biso   1.000  C
  H123     1.0000 0.50730  0.56090  0.06120  Biso   1.000  H
  C183     1.0000 0.66120  0.53210  0.08010  Biso   1.000  C
  C184     1.0000 0.73070  0.54640  0.11090  Biso   1.000  C
  H124     1.0000 0.80000  0.51990  0.11070  Biso   1.000  H
  C185     1.0000 0.69210  0.47250  0.04910  Biso   1.000  C
  C186     1.0000 0.69750  0.14630  0.15120  Biso   1.000  C
  C187     1.0000 0.59380  0.11220  0.15320  Biso   1.000  C
  H125     1.0000 0.56820  0.08550  0.17640  Biso   1.000  H
  C188     1.0000 0.52920  0.11820  0.12080  Biso   1.000  C
  H126     1.0000 0.45910  0.09310  0.12130  Biso   1.000  H
  C189     1.0000 0.56340  0.15980  0.08710  Biso   1.000  C
  H127     1.0000 0.51660  0.16480  0.06530  Biso   1.000  H
  C190     1.0000 0.66760  0.19430  0.08590  Biso   1.000  C
  C191     1.0000 0.73470  0.18770  0.11850  Biso   1.000  C
  H128     1.0000 0.80550  0.21160  0.11810  Biso   1.000  H
  C192     1.0000 0.70220  0.24650  0.05180  Biso   1.000  C
  N43      1.0000 0.77950  0.60890  0.17300  Biso   1.000  N
  N44      1.0000 0.91330  0.66190  0.20780  Biso   1.000  N
  N45      1.0000 0.90830  0.57300  0.21400  Biso   1.000  N
  N46      1.0000 0.76850  0.13830  0.18443  Biso   1.000  N
  N47      1.0000 0.89000  0.17700  0.22821  Biso   1.000  N
  N48      1.0000 0.89120  0.08750  0.22430  Biso   1.000  N
  O29      1.0000 0.61880  0.44490  0.02579  Biso   1.000  O
  O30      1.0000 0.79020  0.44710  0.04790  Biso   1.000  O
  O31      1.0000 0.63330  0.26730  0.02637  Biso   1.000  O
  O32      1.0000 0.80120  0.26990  0.05111  Biso   1.000  O
  Cu9      1.0000 0.00000  0.25000  0.26002  Biso   1.000  Cu
  Cu10     1.0000 0.50000  0.75000  0.76002  Biso   1.000  Cu
  Cu11     1.0000 0.00000  0.75000  0.23998  Biso   1.000  Cu
  Cu12     1.0000 0.50000  0.25000  0.73998  Biso   1.000  Cu
  Cu13     1.0000 0.00531  0.50000  0.25000  Biso   1.000  Cu
  Cu14     1.0000 0.49469  0.50000  0.75000  Biso   1.000  Cu
  Cu15     1.0000 0.99469  0.00000  0.25000  Biso   1.000  Cu
  Cu16     1.0000 0.50531  0.00000  0.75000  Biso   1.000  Cu
