data_GUJTOV_clean
_audit_creation_date              2014-07-02
_audit_creation_method            'Materials Studio'
_symmetry_space_group_name_H-M    'P1'
_symmetry_Int_Tables_number       1
_symmetry_cell_setting            triclinic
loop_
_symmetry_equiv_pos_as_xyz
  x,y,z
_cell_length_a                    5.8821
_cell_length_b                    10.7367
_cell_length_c                    27.7920
_cell_angle_alpha                 97.8110
_cell_angle_beta                  90.0000
_cell_angle_gamma                 90.0000
loop_
_atom_site_label
_atom_site_type_symbol
_atom_site_fract_x
_atom_site_fract_y
_atom_site_fract_z
_atom_site_U_iso_or_equiv
_atom_site_adp_type
_atom_site_occupancy
Cu1    Cu    0.62419   0.70816   0.29391   0.01267  Uiso   1.00
Cu2    Cu    0.39501   0.80296   0.21020   0.01267  Uiso   1.00
Cu3    Cu    0.62419   0.29184   0.20609   0.01267  Uiso   1.00
Cu4    Cu    0.39501   0.19704   0.28980   0.01267  Uiso   1.00
Cu5    Cu    0.37581   0.29184   0.70609   0.01267  Uiso   1.00
Cu6    Cu    0.60499   0.19704   0.78980   0.01267  Uiso   1.00
Cu7    Cu    0.37581   0.70816   0.79391   0.01267  Uiso   1.00
Cu8    Cu    0.60499   0.80296   0.71020   0.01267  Uiso   1.00
Mo1    Mo    0.86317   0.57913   0.19713   0.01267  Uiso   1.00
Mo2    Mo    0.15473   0.07635   0.18369   0.01267  Uiso   1.00
Mo3    Mo    0.86317   0.42087   0.30287   0.01267  Uiso   1.00
Mo4    Mo    0.15473   0.92365   0.31631   0.01267  Uiso   1.00
Mo5    Mo    0.13683   0.42087   0.80287   0.01267  Uiso   1.00
Mo6    Mo    0.84527   0.92365   0.81631   0.01267  Uiso   1.00
Mo7    Mo    0.13683   0.57913   0.69713   0.01267  Uiso   1.00
Mo8    Mo    0.84527   0.07635   0.68369   0.01267  Uiso   1.00
H1     H     0.24400   0.89380   0.65360   0.01267  Uiso   1.00
H2     H     0.08880   0.85470   0.57620   0.01267  Uiso   1.00
H3     H     0.63780   0.63740   0.53460   0.01267  Uiso   1.00
H4     H     0.77590   0.68040   0.61370   0.01267  Uiso   1.00
H5     H     0.78410   0.78820   0.39660   0.01267  Uiso   1.00
H6     H     0.63940   0.78510   0.47460   0.01267  Uiso   1.00
H7     H     0.09810   0.58750   0.41440   0.01267  Uiso   1.00
H8     H     0.25650   0.59610   0.33850   0.01267  Uiso   1.00
H9     H     0.24400   0.10620   0.84640   0.01267  Uiso   1.00
H10    H     0.08880   0.14530   0.92380   0.01267  Uiso   1.00
H11    H     0.63780   0.36260   0.96540   0.01267  Uiso   1.00
H12    H     0.77590   0.31960   0.88630   0.01267  Uiso   1.00
H13    H     0.78410   0.21180   0.10340   0.01267  Uiso   1.00
H14    H     0.63940   0.21490   0.02540   0.01267  Uiso   1.00
H15    H     0.09810   0.41250   0.08560   0.01267  Uiso   1.00
H16    H     0.25650   0.40390   0.16150   0.01267  Uiso   1.00
H17    H     0.75600   0.10620   0.34640   0.01267  Uiso   1.00
H18    H     0.91120   0.14530   0.42380   0.01267  Uiso   1.00
H19    H     0.36220   0.36260   0.46540   0.01267  Uiso   1.00
H20    H     0.22410   0.31960   0.38630   0.01267  Uiso   1.00
H21    H     0.21590   0.21180   0.60340   0.01267  Uiso   1.00
H22    H     0.36060   0.21490   0.52540   0.01267  Uiso   1.00
H23    H     0.90190   0.41250   0.58560   0.01267  Uiso   1.00
H24    H     0.74350   0.40390   0.66150   0.01267  Uiso   1.00
H25    H     0.75600   0.89380   0.15360   0.01267  Uiso   1.00
H26    H     0.91120   0.85470   0.07620   0.01267  Uiso   1.00
H27    H     0.36220   0.63740   0.03460   0.01267  Uiso   1.00
H28    H     0.22410   0.68040   0.11370   0.01267  Uiso   1.00
H29    H     0.21590   0.78820   0.89660   0.01267  Uiso   1.00
H30    H     0.36060   0.78510   0.97460   0.01267  Uiso   1.00
H31    H     0.90190   0.58750   0.91440   0.01267  Uiso   1.00
H32    H     0.74350   0.59610   0.83850   0.01267  Uiso   1.00
C1     C     0.32210   0.83970   0.62920   0.01267  Uiso   1.00
C2     C     0.22870   0.81690   0.58333   0.01267  Uiso   1.00
C3     C     0.34380   0.73740   0.54757   0.01267  Uiso   1.00
C4     C     0.55240   0.68840   0.55880   0.01267  Uiso   1.00
C5     C     0.63420   0.71500   0.60583   0.01267  Uiso   1.00
C6     C     0.64240   0.74830   0.40049   0.01267  Uiso   1.00
C7     C     0.55700   0.74720   0.44703   0.01267  Uiso   1.00
C8     C     0.34870   0.68970   0.45250   0.01267  Uiso   1.00
C9     C     0.23740   0.63060   0.41150   0.01267  Uiso   1.00
C10    C     0.33310   0.63570   0.36658   0.01267  Uiso   1.00
C11    C     0.22470   0.69820   0.50012   0.01267  Uiso   1.00
C12    C     0.32210   0.16030   0.87080   0.01267  Uiso   1.00
C13    C     0.22870   0.18310   0.91667   0.01267  Uiso   1.00
C14    C     0.34380   0.26260   0.95243   0.01267  Uiso   1.00
C15    C     0.55240   0.31160   0.94120   0.01267  Uiso   1.00
C16    C     0.63420   0.28500   0.89417   0.01267  Uiso   1.00
C17    C     0.64240   0.25170   0.09951   0.01267  Uiso   1.00
C18    C     0.55700   0.25280   0.05297   0.01267  Uiso   1.00
C19    C     0.34870   0.31030   0.04750   0.01267  Uiso   1.00
C20    C     0.23740   0.36940   0.08850   0.01267  Uiso   1.00
C21    C     0.33310   0.36430   0.13342   0.01267  Uiso   1.00
C22    C     0.22470   0.30180   0.99988   0.01267  Uiso   1.00
C23    C     0.67790   0.16030   0.37080   0.01267  Uiso   1.00
C24    C     0.77130   0.18310   0.41667   0.01267  Uiso   1.00
C25    C     0.65620   0.26260   0.45243   0.01267  Uiso   1.00
C26    C     0.44760   0.31160   0.44120   0.01267  Uiso   1.00
C27    C     0.36580   0.28500   0.39417   0.01267  Uiso   1.00
C28    C     0.35760   0.25170   0.59951   0.01267  Uiso   1.00
C29    C     0.44300   0.25280   0.55297   0.01267  Uiso   1.00
C30    C     0.65130   0.31030   0.54750   0.01267  Uiso   1.00
C31    C     0.76260   0.36940   0.58850   0.01267  Uiso   1.00
C32    C     0.66690   0.36430   0.63342   0.01267  Uiso   1.00
C33    C     0.77530   0.30180   0.49988   0.01267  Uiso   1.00
C34    C     0.67790   0.83970   0.12920   0.01267  Uiso   1.00
C35    C     0.77130   0.81690   0.08333   0.01267  Uiso   1.00
C36    C     0.65620   0.73740   0.04757   0.01267  Uiso   1.00
C37    C     0.44760   0.68840   0.05880   0.01267  Uiso   1.00
C38    C     0.36580   0.71500   0.10583   0.01267  Uiso   1.00
C39    C     0.35760   0.74830   0.90049   0.01267  Uiso   1.00
C40    C     0.44300   0.74720   0.94703   0.01267  Uiso   1.00
C41    C     0.65130   0.68970   0.95250   0.01267  Uiso   1.00
C42    C     0.76260   0.63060   0.91150   0.01267  Uiso   1.00
C43    C     0.66690   0.63570   0.86658   0.01267  Uiso   1.00
C44    C     0.77530   0.69820   0.00012   0.01267  Uiso   1.00
N1     N     0.51940   0.78811   0.64058   0.01267  Uiso   1.00
N2     N     0.53110   0.69480   0.36106   0.01267  Uiso   1.00
N3     N     0.51940   0.21189   0.85942   0.01267  Uiso   1.00
N4     N     0.53110   0.30520   0.13894   0.01267  Uiso   1.00
N5     N     0.48060   0.21189   0.35942   0.01267  Uiso   1.00
N6     N     0.46890   0.30520   0.63894   0.01267  Uiso   1.00
N7     N     0.48060   0.78811   0.14058   0.01267  Uiso   1.00
N8     N     0.46890   0.69480   0.86106   0.01267  Uiso   1.00
O1     O     0.65930   0.70154   0.22403   0.01267  Uiso   1.00
O2     O     0.86670   0.41760   0.21062   0.01267  Uiso   1.00
O3     O     0.15720   0.92511   0.20274   0.01267  Uiso   1.00
O4     O     0.87500   0.86810   0.31121   0.01267  Uiso   1.00
O5     O     0.35210   0.81240   0.28215   0.01267  Uiso   1.00
O6     O     0.02330   0.67450   0.50052   0.01267  Uiso   1.00
O7     O     0.65930   0.29846   0.27597   0.01267  Uiso   1.00
O8     O     0.86670   0.58240   0.28938   0.01267  Uiso   1.00
O9     O     0.15720   0.07489   0.29726   0.01267  Uiso   1.00
O10    O     0.87500   0.13190   0.18879   0.01267  Uiso   1.00
O11    O     0.35210   0.18760   0.21785   0.01267  Uiso   1.00
O12    O     0.02330   0.32550   0.99948   0.01267  Uiso   1.00
O13    O     0.34070   0.29846   0.77597   0.01267  Uiso   1.00
O14    O     0.13330   0.58240   0.78938   0.01267  Uiso   1.00
O15    O     0.84280   0.07489   0.79726   0.01267  Uiso   1.00
O16    O     0.12500   0.13190   0.68879   0.01267  Uiso   1.00
O17    O     0.64790   0.18760   0.71785   0.01267  Uiso   1.00
O18    O     0.97670   0.32550   0.49948   0.01267  Uiso   1.00
O19    O     0.34070   0.70154   0.72403   0.01267  Uiso   1.00
O20    O     0.13330   0.41760   0.71062   0.01267  Uiso   1.00
O21    O     0.84280   0.92511   0.70274   0.01267  Uiso   1.00
O22    O     0.12500   0.86810   0.81121   0.01267  Uiso   1.00
O23    O     0.64790   0.81240   0.78215   0.01267  Uiso   1.00
O24    O     0.97670   0.67450   0.00052   0.01267  Uiso   1.00
