data_image0
_cell_length_a       16.8687
_cell_length_b       16.8687
_cell_length_c       28.5613
_cell_angle_alpha    90
_cell_angle_beta     90
_cell_angle_gamma    90

_symmetry_space_group_name_H-M    "P 1"
_symmetry_int_tables_number       1

loop_
  _symmetry_equiv_pos_as_xyz
  'x, y, z'

loop_
  _atom_site_label
  _atom_site_occupancy
  _atom_site_fract_x
  _atom_site_fract_y
  _atom_site_fract_z
  _atom_site_thermal_displace_type
  _atom_site_B_iso_or_equiv
  _atom_site_type_symbol
  Cd1      1.0000 0.69351  0.21804  0.00658  Biso   1.000  Cd
  S1       1.0000 0.60080  0.23465  0.77212  Biso   1.000  S
  S2       1.0000 0.82340  0.31468  0.22680  Biso   1.000  S
  N1       1.0000 0.66851  0.35400  0.99977  Biso   1.000  N
  N2       1.0000 0.66403  0.21316  0.92605  Biso   1.000  N
  N3       1.0000 0.33361  0.26396  0.75657  Biso   1.000  N
  N4       1.0000 0.71496  0.23738  0.08801  Biso   1.000  N
  N5       1.0000 0.80432  0.58287  0.23719  Biso   1.000  N
  C1       1.0000 0.60360  0.38080  0.97900  Biso   1.000  C
  H1       1.0000 0.56970  0.34350  0.96420  Biso   1.000  H
  C2       1.0000 0.58220  0.46060  0.97767  Biso   1.000  C
  H2       1.0000 0.53540  0.47760  0.96210  Biso   1.000  H
  C3       1.0000 0.63190  0.51410  0.99991  Biso   1.000  C
  C4       1.0000 0.70120  0.48750  0.02094  Biso   1.000  C
  H3       1.0000 0.73650  0.52350  0.03570  Biso   1.000  H
  C5       1.0000 0.71720  0.40750  0.01973  Biso   1.000  C
  H4       1.0000 0.76500  0.38910  0.03360  Biso   1.000  H
  C6       1.0000 0.69980  0.26500  0.89767  Biso   1.000  C
  H5       1.0000 0.74090  0.29690  0.91040  Biso   1.000  H
  C7       1.0000 0.68090  0.27490  0.85136  Biso   1.000  C
  H6       1.0000 0.70750  0.31320  0.83270  Biso   1.000  H
  C8       1.0000 0.62170  0.22740  0.83256  Biso   1.000  C
  C9       1.0000 0.58440  0.17200  0.86098  Biso   1.000  C
  H7       1.0000 0.54420  0.13830  0.84890  Biso   1.000  H
  C10      1.0000 0.60770  0.16740  0.90751  Biso   1.000  C
  H8       1.0000 0.58220  0.12970  0.92710  Biso   1.000  H
  C11      1.0000 0.37080  0.29120  0.79490  Biso   1.000  C
  H9       1.0000 0.34000  0.31770  0.81790  Biso   1.000  H
  C12      1.0000 0.45080  0.28310  0.80286  Biso   1.000  C
  H10      1.0000 0.47420  0.30450  0.83030  Biso   1.000  H
  C13      1.0000 0.49680  0.24340  0.77043  Biso   1.000  C
  C14      1.0000 0.45900  0.21310  0.73072  Biso   1.000  C
  H11      1.0000 0.48830  0.18450  0.70780  Biso   1.000  H
  C15      1.0000 0.37930  0.22510  0.72530  Biso   1.000  C
  H12      1.0000 0.35460  0.20480  0.69790  Biso   1.000  H
  C16      1.0000 0.68440  0.29910  0.11150  Biso   1.000  C
  H13      1.0000 0.64030  0.32590  0.09820  Biso   1.000  H
  C17      1.0000 0.71330  0.32590  0.15372  Biso   1.000  C
  H14      1.0000 0.68920  0.36940  0.16930  Biso   1.000  H
  C18      1.0000 0.77850  0.28760  0.17305  Biso   1.000  C
  C19      1.0000 0.80910  0.22180  0.15016  Biso   1.000  C
  H15      1.0000 0.85230  0.19310  0.16300  Biso   1.000  H
  C20      1.0000 0.77540  0.19920  0.10845  Biso   1.000  C
  H16      1.0000 0.79630  0.15380  0.09320  Biso   1.000  H
  C21      1.0000 0.82640  0.54760  0.19696  Biso   1.000  C
  H17      1.0000 0.84040  0.58020  0.17120  Biso   1.000  H
  C22      1.0000 0.82990  0.46700  0.19130  Biso   1.000  C
  H18      1.0000 0.84530  0.44470  0.16210  Biso   1.000  H
  C23      1.0000 0.81040  0.41820  0.22888  Biso   1.000  C
  C24      1.0000 0.78650  0.45330  0.27022  Biso   1.000  C
  H19      1.0000 0.77160  0.42170  0.29630  Biso   1.000  H
  C25      1.0000 0.78450  0.53560  0.27314  Biso   1.000  C
  H20      1.0000 0.76850  0.55930  0.30180  Biso   1.000  H
  Cd2      1.0000 0.30649  0.78196  0.50658  Biso   1.000  Cd
  S3       1.0000 0.39920  0.76535  0.27212  Biso   1.000  S
  S4       1.0000 0.17660  0.68532  0.72680  Biso   1.000  S
  N6       1.0000 0.33149  0.64600  0.49977  Biso   1.000  N
  N7       1.0000 0.33597  0.78684  0.42605  Biso   1.000  N
  N8       1.0000 0.66639  0.73604  0.25657  Biso   1.000  N
  N9       1.0000 0.28504  0.76262  0.58801  Biso   1.000  N
  N10      1.0000 0.19568  0.41713  0.73719  Biso   1.000  N
  C26      1.0000 0.39640  0.61920  0.47900  Biso   1.000  C
  H21      1.0000 0.43030  0.65650  0.46420  Biso   1.000  H
  C27      1.0000 0.41780  0.53940  0.47767  Biso   1.000  C
  H22      1.0000 0.46460  0.52240  0.46210  Biso   1.000  H
  C28      1.0000 0.36810  0.48590  0.49991  Biso   1.000  C
  C29      1.0000 0.29880  0.51250  0.52094  Biso   1.000  C
  H23      1.0000 0.26350  0.47650  0.53570  Biso   1.000  H
  C30      1.0000 0.28280  0.59250  0.51973  Biso   1.000  C
  H24      1.0000 0.23500  0.61090  0.53360  Biso   1.000  H
  C31      1.0000 0.30020  0.73500  0.39767  Biso   1.000  C
  H25      1.0000 0.25910  0.70310  0.41040  Biso   1.000  H
  C32      1.0000 0.31910  0.72510  0.35136  Biso   1.000  C
  H26      1.0000 0.29250  0.68680  0.33270  Biso   1.000  H
  C33      1.0000 0.37830  0.77260  0.33256  Biso   1.000  C
  C34      1.0000 0.41560  0.82800  0.36098  Biso   1.000  C
  H27      1.0000 0.45580  0.86170  0.34890  Biso   1.000  H
  C35      1.0000 0.39230  0.83260  0.40751  Biso   1.000  C
  H28      1.0000 0.41780  0.87030  0.42710  Biso   1.000  H
  C36      1.0000 0.62920  0.70880  0.29490  Biso   1.000  C
  H29      1.0000 0.66000  0.68230  0.31790  Biso   1.000  H
  C37      1.0000 0.54920  0.71690  0.30286  Biso   1.000  C
  H30      1.0000 0.52580  0.69550  0.33030  Biso   1.000  H
  C38      1.0000 0.50320  0.75660  0.27043  Biso   1.000  C
  C39      1.0000 0.54100  0.78690  0.23072  Biso   1.000  C
  H31      1.0000 0.51170  0.81550  0.20780  Biso   1.000  H
  C40      1.0000 0.62070  0.77490  0.22530  Biso   1.000  C
  H32      1.0000 0.64540  0.79520  0.19790  Biso   1.000  H
  C41      1.0000 0.31560  0.70090  0.61150  Biso   1.000  C
  H33      1.0000 0.35970  0.67410  0.59820  Biso   1.000  H
  C42      1.0000 0.28670  0.67410  0.65372  Biso   1.000  C
  H34      1.0000 0.31080  0.63060  0.66930  Biso   1.000  H
  C43      1.0000 0.22150  0.71240  0.67305  Biso   1.000  C
  C44      1.0000 0.19090  0.77820  0.65016  Biso   1.000  C
  H35      1.0000 0.14770  0.80690  0.66300  Biso   1.000  H
  C45      1.0000 0.22460  0.80080  0.60845  Biso   1.000  C
  H36      1.0000 0.20370  0.84620  0.59320  Biso   1.000  H
  C46      1.0000 0.17360  0.45240  0.69696  Biso   1.000  C
  H37      1.0000 0.15960  0.41980  0.67120  Biso   1.000  H
  C47      1.0000 0.17010  0.53300  0.69130  Biso   1.000  C
  H38      1.0000 0.15470  0.55530  0.66210  Biso   1.000  H
  C48      1.0000 0.18960  0.58180  0.72888  Biso   1.000  C
  C49      1.0000 0.21350  0.54670  0.77022  Biso   1.000  C
  H39      1.0000 0.22840  0.57830  0.79630  Biso   1.000  H
  C50      1.0000 0.21550  0.46440  0.77314  Biso   1.000  C
  H40      1.0000 0.23150  0.44070  0.80180  Biso   1.000  H
  Cd3      1.0000 0.28196  0.19351  0.25658  Biso   1.000  Cd
  S5       1.0000 0.26535  0.10080  0.02212  Biso   1.000  S
  S6       1.0000 0.18532  0.32340  0.47680  Biso   1.000  S
  N11      1.0000 0.14600  0.16851  0.24977  Biso   1.000  N
  N12      1.0000 0.28684  0.16403  0.17605  Biso   1.000  N
  N13      1.0000 0.23604  0.83361  0.00657  Biso   1.000  N
  N14      1.0000 0.26262  0.21496  0.33801  Biso   1.000  N
  N15      1.0000 0.91713  0.30432  0.48719  Biso   1.000  N
  C51      1.0000 0.11920  0.10360  0.22900  Biso   1.000  C
  H41      1.0000 0.15650  0.06970  0.21420  Biso   1.000  H
  C52      1.0000 0.03940  0.08220  0.22767  Biso   1.000  C
  H42      1.0000 0.02240  0.03540  0.21210  Biso   1.000  H
  C53      1.0000 0.98590  0.13190  0.24991  Biso   1.000  C
  C54      1.0000 0.01250  0.20120  0.27094  Biso   1.000  C
  H43      1.0000 0.97650  0.23650  0.28570  Biso   1.000  H
  C55      1.0000 0.09250  0.21720  0.26973  Biso   1.000  C
  H44      1.0000 0.11090  0.26500  0.28360  Biso   1.000  H
  C56      1.0000 0.23500  0.19980  0.14767  Biso   1.000  C
  H45      1.0000 0.20310  0.24090  0.16040  Biso   1.000  H
  C57      1.0000 0.22510  0.18090  0.10136  Biso   1.000  C
  H46      1.0000 0.18680  0.20750  0.08270  Biso   1.000  H
  C58      1.0000 0.27260  0.12170  0.08256  Biso   1.000  C
  C59      1.0000 0.32800  0.08440  0.11098  Biso   1.000  C
  H47      1.0000 0.36170  0.04420  0.09890  Biso   1.000  H
  C60      1.0000 0.33260  0.10770  0.15751  Biso   1.000  C
  H48      1.0000 0.37030  0.08220  0.17710  Biso   1.000  H
  C61      1.0000 0.20880  0.87080  0.04490  Biso   1.000  C
  H49      1.0000 0.18230  0.84000  0.06790  Biso   1.000  H
  C62      1.0000 0.21690  0.95080  0.05286  Biso   1.000  C
  H50      1.0000 0.19550  0.97420  0.08030  Biso   1.000  H
  C63      1.0000 0.25660  0.99680  0.02043  Biso   1.000  C
  C64      1.0000 0.28690  0.95900  0.98072  Biso   1.000  C
  H51      1.0000 0.31550  0.98830  0.95780  Biso   1.000  H
  C65      1.0000 0.27490  0.87930  0.97530  Biso   1.000  C
  H52      1.0000 0.29520  0.85460  0.94790  Biso   1.000  H
  C66      1.0000 0.20090  0.18440  0.36150  Biso   1.000  C
  H53      1.0000 0.17410  0.14030  0.34820  Biso   1.000  H
  C67      1.0000 0.17410  0.21330  0.40372  Biso   1.000  C
  H54      1.0000 0.13060  0.18920  0.41930  Biso   1.000  H
  C68      1.0000 0.21240  0.27850  0.42305  Biso   1.000  C
  C69      1.0000 0.27820  0.30910  0.40016  Biso   1.000  C
  H55      1.0000 0.30690  0.35230  0.41300  Biso   1.000  H
  C70      1.0000 0.30080  0.27540  0.35845  Biso   1.000  C
  H56      1.0000 0.34620  0.29630  0.34320  Biso   1.000  H
  C71      1.0000 0.95240  0.32640  0.44696  Biso   1.000  C
  H57      1.0000 0.91980  0.34040  0.42120  Biso   1.000  H
  C72      1.0000 0.03300  0.32990  0.44130  Biso   1.000  C
  H58      1.0000 0.05530  0.34530  0.41210  Biso   1.000  H
  C73      1.0000 0.08180  0.31040  0.47888  Biso   1.000  C
  C74      1.0000 0.04670  0.28650  0.52022  Biso   1.000  C
  H59      1.0000 0.07830  0.27160  0.54630  Biso   1.000  H
  C75      1.0000 0.96440  0.28450  0.52314  Biso   1.000  C
  H60      1.0000 0.94070  0.26850  0.55180  Biso   1.000  H
  Cd4      1.0000 0.71804  0.80649  0.75658  Biso   1.000  Cd
  S7       1.0000 0.73465  0.89920  0.52212  Biso   1.000  S
  S8       1.0000 0.81468  0.67660  0.97680  Biso   1.000  S
  N16      1.0000 0.85400  0.83149  0.74977  Biso   1.000  N
  N17      1.0000 0.71316  0.83597  0.67605  Biso   1.000  N
  N18      1.0000 0.76396  0.16639  0.50657  Biso   1.000  N
  N19      1.0000 0.73738  0.78504  0.83801  Biso   1.000  N
  N20      1.0000 0.08287  0.69568  0.98719  Biso   1.000  N
  C76      1.0000 0.88080  0.89640  0.72900  Biso   1.000  C
  H61      1.0000 0.84350  0.93030  0.71420  Biso   1.000  H
  C77      1.0000 0.96060  0.91780  0.72767  Biso   1.000  C
  H62      1.0000 0.97760  0.96460  0.71210  Biso   1.000  H
  C78      1.0000 0.01410  0.86810  0.74991  Biso   1.000  C
  C79      1.0000 0.98750  0.79880  0.77094  Biso   1.000  C
  H63      1.0000 0.02350  0.76350  0.78570  Biso   1.000  H
  C80      1.0000 0.90750  0.78280  0.76973  Biso   1.000  C
  H64      1.0000 0.88910  0.73500  0.78360  Biso   1.000  H
  C81      1.0000 0.76500  0.80020  0.64767  Biso   1.000  C
  H65      1.0000 0.79690  0.75910  0.66040  Biso   1.000  H
  C82      1.0000 0.77490  0.81910  0.60136  Biso   1.000  C
  H66      1.0000 0.81320  0.79250  0.58270  Biso   1.000  H
  C83      1.0000 0.72740  0.87830  0.58256  Biso   1.000  C
  C84      1.0000 0.67200  0.91560  0.61098  Biso   1.000  C
  H67      1.0000 0.63830  0.95580  0.59890  Biso   1.000  H
  C85      1.0000 0.66740  0.89230  0.65751  Biso   1.000  C
  H68      1.0000 0.62970  0.91780  0.67710  Biso   1.000  H
  C86      1.0000 0.79120  0.12920  0.54490  Biso   1.000  C
  H69      1.0000 0.81770  0.16000  0.56790  Biso   1.000  H
  C87      1.0000 0.78310  0.04920  0.55286  Biso   1.000  C
  H70      1.0000 0.80450  0.02580  0.58030  Biso   1.000  H
  C88      1.0000 0.74340  0.00320  0.52043  Biso   1.000  C
  C89      1.0000 0.71310  0.04100  0.48072  Biso   1.000  C
  H71      1.0000 0.68450  0.01170  0.45780  Biso   1.000  H
  C90      1.0000 0.72510  0.12070  0.47530  Biso   1.000  C
  H72      1.0000 0.70480  0.14540  0.44790  Biso   1.000  H
  C91      1.0000 0.79910  0.81560  0.86150  Biso   1.000  C
  H73      1.0000 0.82590  0.85970  0.84820  Biso   1.000  H
  C92      1.0000 0.82590  0.78670  0.90372  Biso   1.000  C
  H74      1.0000 0.86940  0.81080  0.91930  Biso   1.000  H
  C93      1.0000 0.78760  0.72150  0.92305  Biso   1.000  C
  C94      1.0000 0.72180  0.69090  0.90016  Biso   1.000  C
  H75      1.0000 0.69310  0.64770  0.91300  Biso   1.000  H
  C95      1.0000 0.69920  0.72460  0.85845  Biso   1.000  C
  H76      1.0000 0.65380  0.70370  0.84320  Biso   1.000  H
  C96      1.0000 0.04760  0.67360  0.94696  Biso   1.000  C
  H77      1.0000 0.08020  0.65960  0.92120  Biso   1.000  H
  C97      1.0000 0.96700  0.67010  0.94130  Biso   1.000  C
  H78      1.0000 0.94470  0.65470  0.91210  Biso   1.000  H
  C98      1.0000 0.91820  0.68960  0.97888  Biso   1.000  C
  C99      1.0000 0.95330  0.71350  0.02022  Biso   1.000  C
  H79      1.0000 0.92170  0.72840  0.04630  Biso   1.000  H
  C100     1.0000 0.03560  0.71550  0.02314  Biso   1.000  C
  H80      1.0000 0.05930  0.73150  0.05180  Biso   1.000  H
  Cd5      1.0000 0.80649  0.71804  0.24342  Biso   1.000  Cd
  S9       1.0000 0.89920  0.73465  0.47788  Biso   1.000  S
  S10      1.0000 0.67660  0.81468  0.02320  Biso   1.000  S
  N21      1.0000 0.83149  0.85400  0.25023  Biso   1.000  N
  N22      1.0000 0.83597  0.71316  0.32395  Biso   1.000  N
  N23      1.0000 0.16639  0.76396  0.49343  Biso   1.000  N
  N24      1.0000 0.78504  0.73738  0.16199  Biso   1.000  N
  N25      1.0000 0.69568  0.08287  0.01281  Biso   1.000  N
  C101     1.0000 0.89640  0.88080  0.27100  Biso   1.000  C
  H81      1.0000 0.93030  0.84350  0.28580  Biso   1.000  H
  C102     1.0000 0.91780  0.96060  0.27233  Biso   1.000  C
  H82      1.0000 0.96460  0.97760  0.28790  Biso   1.000  H
  C103     1.0000 0.86810  0.01410  0.25009  Biso   1.000  C
  C104     1.0000 0.79880  0.98750  0.22906  Biso   1.000  C
  H83      1.0000 0.76350  0.02350  0.21430  Biso   1.000  H
  C105     1.0000 0.78280  0.90750  0.23027  Biso   1.000  C
  H84      1.0000 0.73500  0.88910  0.21640  Biso   1.000  H
  C106     1.0000 0.80020  0.76500  0.35233  Biso   1.000  C
  H85      1.0000 0.75910  0.79690  0.33960  Biso   1.000  H
  C107     1.0000 0.81910  0.77490  0.39864  Biso   1.000  C
  H86      1.0000 0.79250  0.81320  0.41730  Biso   1.000  H
  C108     1.0000 0.87830  0.72740  0.41744  Biso   1.000  C
  C109     1.0000 0.91560  0.67200  0.38902  Biso   1.000  C
  H87      1.0000 0.95580  0.63830  0.40110  Biso   1.000  H
  C110     1.0000 0.89230  0.66740  0.34249  Biso   1.000  C
  H88      1.0000 0.91780  0.62970  0.32290  Biso   1.000  H
  C111     1.0000 0.12920  0.79120  0.45510  Biso   1.000  C
  H89      1.0000 0.16000  0.81770  0.43210  Biso   1.000  H
  C112     1.0000 0.04920  0.78310  0.44714  Biso   1.000  C
  H90      1.0000 0.02580  0.80450  0.41970  Biso   1.000  H
  C113     1.0000 0.00320  0.74340  0.47957  Biso   1.000  C
  C114     1.0000 0.04100  0.71310  0.51928  Biso   1.000  C
  H91      1.0000 0.01170  0.68450  0.54220  Biso   1.000  H
  C115     1.0000 0.12070  0.72510  0.52470  Biso   1.000  C
  H92      1.0000 0.14540  0.70480  0.55210  Biso   1.000  H
  C116     1.0000 0.81560  0.79910  0.13850  Biso   1.000  C
  H93      1.0000 0.85970  0.82590  0.15180  Biso   1.000  H
  C117     1.0000 0.78670  0.82590  0.09628  Biso   1.000  C
  H94      1.0000 0.81080  0.86940  0.08070  Biso   1.000  H
  C118     1.0000 0.72150  0.78760  0.07695  Biso   1.000  C
  C119     1.0000 0.69090  0.72180  0.09984  Biso   1.000  C
  H95      1.0000 0.64770  0.69310  0.08700  Biso   1.000  H
  C120     1.0000 0.72460  0.69920  0.14155  Biso   1.000  C
  H96      1.0000 0.70370  0.65380  0.15680  Biso   1.000  H
  C121     1.0000 0.67360  0.04760  0.05304  Biso   1.000  C
  H97      1.0000 0.65960  0.08020  0.07880  Biso   1.000  H
  C122     1.0000 0.67010  0.96700  0.05870  Biso   1.000  C
  H98      1.0000 0.65470  0.94470  0.08790  Biso   1.000  H
  C123     1.0000 0.68960  0.91820  0.02112  Biso   1.000  C
  C124     1.0000 0.71350  0.95330  0.97978  Biso   1.000  C
  H99      1.0000 0.72840  0.92170  0.95370  Biso   1.000  H
  C125     1.0000 0.71550  0.03560  0.97686  Biso   1.000  C
  H100     1.0000 0.73150  0.05930  0.94820  Biso   1.000  H
  Cd6      1.0000 0.19351  0.28196  0.74342  Biso   1.000  Cd
  S11      1.0000 0.10080  0.26535  0.97788  Biso   1.000  S
  S12      1.0000 0.32340  0.18532  0.52320  Biso   1.000  S
  N26      1.0000 0.16851  0.14600  0.75023  Biso   1.000  N
  N27      1.0000 0.16403  0.28684  0.82395  Biso   1.000  N
  N28      1.0000 0.83361  0.23604  0.99343  Biso   1.000  N
  N29      1.0000 0.21496  0.26262  0.66199  Biso   1.000  N
  N30      1.0000 0.30432  0.91713  0.51281  Biso   1.000  N
  C126     1.0000 0.10360  0.11920  0.77100  Biso   1.000  C
  H101     1.0000 0.06970  0.15650  0.78580  Biso   1.000  H
  C127     1.0000 0.08220  0.03940  0.77233  Biso   1.000  C
  H102     1.0000 0.03540  0.02240  0.78790  Biso   1.000  H
  C128     1.0000 0.13190  0.98590  0.75009  Biso   1.000  C
  C129     1.0000 0.20120  0.01250  0.72906  Biso   1.000  C
  H103     1.0000 0.23650  0.97650  0.71430  Biso   1.000  H
  C130     1.0000 0.21720  0.09250  0.73027  Biso   1.000  C
  H104     1.0000 0.26500  0.11090  0.71640  Biso   1.000  H
  C131     1.0000 0.19980  0.23500  0.85233  Biso   1.000  C
  H105     1.0000 0.24090  0.20310  0.83960  Biso   1.000  H
  C132     1.0000 0.18090  0.22510  0.89864  Biso   1.000  C
  H106     1.0000 0.20750  0.18680  0.91730  Biso   1.000  H
  C133     1.0000 0.12170  0.27260  0.91744  Biso   1.000  C
  C134     1.0000 0.08440  0.32800  0.88902  Biso   1.000  C
  H107     1.0000 0.04420  0.36170  0.90110  Biso   1.000  H
  C135     1.0000 0.10770  0.33260  0.84249  Biso   1.000  C
  H108     1.0000 0.08220  0.37030  0.82290  Biso   1.000  H
  C136     1.0000 0.87080  0.20880  0.95510  Biso   1.000  C
  H109     1.0000 0.84000  0.18230  0.93210  Biso   1.000  H
  C137     1.0000 0.95080  0.21690  0.94714  Biso   1.000  C
  H110     1.0000 0.97420  0.19550  0.91970  Biso   1.000  H
  C138     1.0000 0.99680  0.25660  0.97957  Biso   1.000  C
  C139     1.0000 0.95900  0.28690  0.01928  Biso   1.000  C
  H111     1.0000 0.98830  0.31550  0.04220  Biso   1.000  H
  C140     1.0000 0.87930  0.27490  0.02470  Biso   1.000  C
  H112     1.0000 0.85460  0.29520  0.05210  Biso   1.000  H
  C141     1.0000 0.18440  0.20090  0.63850  Biso   1.000  C
  H113     1.0000 0.14030  0.17410  0.65180  Biso   1.000  H
  C142     1.0000 0.21330  0.17410  0.59628  Biso   1.000  C
  H114     1.0000 0.18920  0.13060  0.58070  Biso   1.000  H
  C143     1.0000 0.27850  0.21240  0.57695  Biso   1.000  C
  C144     1.0000 0.30910  0.27820  0.59984  Biso   1.000  C
  H115     1.0000 0.35230  0.30690  0.58700  Biso   1.000  H
  C145     1.0000 0.27540  0.30080  0.64155  Biso   1.000  C
  H116     1.0000 0.29630  0.34620  0.65680  Biso   1.000  H
  C146     1.0000 0.32640  0.95240  0.55304  Biso   1.000  C
  H117     1.0000 0.34040  0.91980  0.57880  Biso   1.000  H
  C147     1.0000 0.32990  0.03300  0.55870  Biso   1.000  C
  H118     1.0000 0.34530  0.05530  0.58790  Biso   1.000  H
  C148     1.0000 0.31040  0.08180  0.52112  Biso   1.000  C
  C149     1.0000 0.28650  0.04670  0.47978  Biso   1.000  C
  H119     1.0000 0.27160  0.07830  0.45370  Biso   1.000  H
  C150     1.0000 0.28450  0.96440  0.47686  Biso   1.000  C
  H120     1.0000 0.26850  0.94070  0.44820  Biso   1.000  H
  Cd7      1.0000 0.21804  0.69351  0.99342  Biso   1.000  Cd
  S13      1.0000 0.23465  0.60080  0.22788  Biso   1.000  S
  S14      1.0000 0.31468  0.82340  0.77320  Biso   1.000  S
  N31      1.0000 0.35400  0.66851  0.00023  Biso   1.000  N
  N32      1.0000 0.21316  0.66403  0.07395  Biso   1.000  N
  N33      1.0000 0.26396  0.33361  0.24343  Biso   1.000  N
  N34      1.0000 0.23738  0.71496  0.91199  Biso   1.000  N
  N35      1.0000 0.58287  0.80432  0.76281  Biso   1.000  N
  C151     1.0000 0.38080  0.60360  0.02100  Biso   1.000  C
  H121     1.0000 0.34350  0.56970  0.03580  Biso   1.000  H
  C152     1.0000 0.46060  0.58220  0.02233  Biso   1.000  C
  H122     1.0000 0.47760  0.53540  0.03790  Biso   1.000  H
  C153     1.0000 0.51410  0.63190  0.00009  Biso   1.000  C
  C154     1.0000 0.48750  0.70120  0.97906  Biso   1.000  C
  H123     1.0000 0.52350  0.73650  0.96430  Biso   1.000  H
  C155     1.0000 0.40750  0.71720  0.98027  Biso   1.000  C
  H124     1.0000 0.38910  0.76500  0.96640  Biso   1.000  H
  C156     1.0000 0.26500  0.69980  0.10233  Biso   1.000  C
  H125     1.0000 0.29690  0.74090  0.08960  Biso   1.000  H
  C157     1.0000 0.27490  0.68090  0.14864  Biso   1.000  C
  H126     1.0000 0.31320  0.70750  0.16730  Biso   1.000  H
  C158     1.0000 0.22740  0.62170  0.16744  Biso   1.000  C
  C159     1.0000 0.17200  0.58440  0.13902  Biso   1.000  C
  H127     1.0000 0.13830  0.54420  0.15110  Biso   1.000  H
  C160     1.0000 0.16740  0.60770  0.09249  Biso   1.000  C
  H128     1.0000 0.12970  0.58220  0.07290  Biso   1.000  H
  C161     1.0000 0.29120  0.37080  0.20510  Biso   1.000  C
  H129     1.0000 0.31770  0.34000  0.18210  Biso   1.000  H
  C162     1.0000 0.28310  0.45080  0.19714  Biso   1.000  C
  H130     1.0000 0.30450  0.47420  0.16970  Biso   1.000  H
  C163     1.0000 0.24340  0.49680  0.22957  Biso   1.000  C
  C164     1.0000 0.21310  0.45900  0.26928  Biso   1.000  C
  H131     1.0000 0.18450  0.48830  0.29220  Biso   1.000  H
  C165     1.0000 0.22510  0.37930  0.27470  Biso   1.000  C
  H132     1.0000 0.20480  0.35460  0.30210  Biso   1.000  H
  C166     1.0000 0.29910  0.68440  0.88850  Biso   1.000  C
  H133     1.0000 0.32590  0.64030  0.90180  Biso   1.000  H
  C167     1.0000 0.32590  0.71330  0.84628  Biso   1.000  C
  H134     1.0000 0.36940  0.68920  0.83070  Biso   1.000  H
  C168     1.0000 0.28760  0.77850  0.82695  Biso   1.000  C
  C169     1.0000 0.22180  0.80910  0.84984  Biso   1.000  C
  H135     1.0000 0.19310  0.85230  0.83700  Biso   1.000  H
  C170     1.0000 0.19920  0.77540  0.89155  Biso   1.000  C
  H136     1.0000 0.15380  0.79630  0.90680  Biso   1.000  H
  C171     1.0000 0.54760  0.82640  0.80304  Biso   1.000  C
  H137     1.0000 0.58020  0.84040  0.82880  Biso   1.000  H
  C172     1.0000 0.46700  0.82990  0.80870  Biso   1.000  C
  H138     1.0000 0.44470  0.84530  0.83790  Biso   1.000  H
  C173     1.0000 0.41820  0.81040  0.77112  Biso   1.000  C
  C174     1.0000 0.45330  0.78650  0.72978  Biso   1.000  C
  H139     1.0000 0.42170  0.77160  0.70370  Biso   1.000  H
  C175     1.0000 0.53560  0.78450  0.72686  Biso   1.000  C
  H140     1.0000 0.55930  0.76850  0.69820  Biso   1.000  H
  Cd8      1.0000 0.78196  0.30649  0.49342  Biso   1.000  Cd
  S15      1.0000 0.76535  0.39920  0.72788  Biso   1.000  S
  S16      1.0000 0.68532  0.17660  0.27320  Biso   1.000  S
  N36      1.0000 0.64600  0.33149  0.50023  Biso   1.000  N
  N37      1.0000 0.78684  0.33597  0.57395  Biso   1.000  N
  N38      1.0000 0.73604  0.66639  0.74343  Biso   1.000  N
  N39      1.0000 0.76262  0.28504  0.41199  Biso   1.000  N
  N40      1.0000 0.41713  0.19568  0.26281  Biso   1.000  N
  C176     1.0000 0.61920  0.39640  0.52100  Biso   1.000  C
  H141     1.0000 0.65650  0.43030  0.53580  Biso   1.000  H
  C177     1.0000 0.53940  0.41780  0.52233  Biso   1.000  C
  H142     1.0000 0.52240  0.46460  0.53790  Biso   1.000  H
  C178     1.0000 0.48590  0.36810  0.50009  Biso   1.000  C
  C179     1.0000 0.51250  0.29880  0.47906  Biso   1.000  C
  H143     1.0000 0.47650  0.26350  0.46430  Biso   1.000  H
  C180     1.0000 0.59250  0.28280  0.48027  Biso   1.000  C
  H144     1.0000 0.61090  0.23500  0.46640  Biso   1.000  H
  C181     1.0000 0.73500  0.30020  0.60233  Biso   1.000  C
  H145     1.0000 0.70310  0.25910  0.58960  Biso   1.000  H
  C182     1.0000 0.72510  0.31910  0.64864  Biso   1.000  C
  H146     1.0000 0.68680  0.29250  0.66730  Biso   1.000  H
  C183     1.0000 0.77260  0.37830  0.66744  Biso   1.000  C
  C184     1.0000 0.82800  0.41560  0.63902  Biso   1.000  C
  H147     1.0000 0.86170  0.45580  0.65110  Biso   1.000  H
  C185     1.0000 0.83260  0.39230  0.59249  Biso   1.000  C
  H148     1.0000 0.87030  0.41780  0.57290  Biso   1.000  H
  C186     1.0000 0.70880  0.62920  0.70510  Biso   1.000  C
  H149     1.0000 0.68230  0.66000  0.68210  Biso   1.000  H
  C187     1.0000 0.71690  0.54920  0.69714  Biso   1.000  C
  H150     1.0000 0.69550  0.52580  0.66970  Biso   1.000  H
  C188     1.0000 0.75660  0.50320  0.72957  Biso   1.000  C
  C189     1.0000 0.78690  0.54100  0.76928  Biso   1.000  C
  H151     1.0000 0.81550  0.51170  0.79220  Biso   1.000  H
  C190     1.0000 0.77490  0.62070  0.77470  Biso   1.000  C
  H152     1.0000 0.79520  0.64540  0.80210  Biso   1.000  H
  C191     1.0000 0.70090  0.31560  0.38850  Biso   1.000  C
  H153     1.0000 0.67410  0.35970  0.40180  Biso   1.000  H
  C192     1.0000 0.67410  0.28670  0.34628  Biso   1.000  C
  H154     1.0000 0.63060  0.31080  0.33070  Biso   1.000  H
  C193     1.0000 0.71240  0.22150  0.32695  Biso   1.000  C
  C194     1.0000 0.77820  0.19090  0.34984  Biso   1.000  C
  H155     1.0000 0.80690  0.14770  0.33700  Biso   1.000  H
  C195     1.0000 0.80080  0.22460  0.39155  Biso   1.000  C
  H156     1.0000 0.84620  0.20370  0.40680  Biso   1.000  H
  C196     1.0000 0.45240  0.17360  0.30304  Biso   1.000  C
  H157     1.0000 0.41980  0.15960  0.32880  Biso   1.000  H
  C197     1.0000 0.53300  0.17010  0.30870  Biso   1.000  C
  H158     1.0000 0.55530  0.15470  0.33790  Biso   1.000  H
  C198     1.0000 0.58180  0.18960  0.27112  Biso   1.000  C
  C199     1.0000 0.54670  0.21350  0.22978  Biso   1.000  C
  H159     1.0000 0.57830  0.22840  0.20370  Biso   1.000  H
  C200     1.0000 0.46440  0.21550  0.22686  Biso   1.000  C
  H160     1.0000 0.44070  0.23150  0.19820  Biso   1.000  H
  S17      1.0000 0.61752  0.61752  0.00000  Biso   1.000  S
  S18      1.0000 0.38248  0.38248  0.50000  Biso   1.000  S
  S19      1.0000 0.88248  0.11752  0.25000  Biso   1.000  S
  S20      1.0000 0.11752  0.88248  0.75000  Biso   1.000  S
