data_image0
_cell_length_a       7.3087
_cell_length_b       14.564
_cell_length_c       6.8079
_cell_angle_alpha    91.601
_cell_angle_beta     93.717
_cell_angle_gamma    78.154

_symmetry_space_group_name_H-M    "P 1"
_symmetry_int_tables_number       1

loop_
  _symmetry_equiv_pos_as_xyz
  'x, y, z'

loop_
  _atom_site_label
  _atom_site_occupancy
  _atom_site_fract_x
  _atom_site_fract_y
  _atom_site_fract_z
  _atom_site_thermal_displace_type
  _atom_site_B_iso_or_equiv
  _atom_site_type_symbol
  Ce1      1.0000 0.75780  0.49960  0.17530  Biso   1.000  Ce
  P1       1.0000 0.79360  0.42900  0.70410  Biso   1.000  P
  O1       1.0000 0.93530  0.46110  0.85370  Biso   1.000  O
  O2       1.0000 0.60280  0.44530  0.79000  Biso   1.000  O
  O3       1.0000 0.78600  0.47840  0.50880  Biso   1.000  O
  C1       1.0000 0.86900  0.30610  0.66500  Biso   1.000  C
  N1       1.0000 0.84900  0.22630  0.78800  Biso   1.000  N
  C2       1.0000 0.84600  0.14300  0.65700  Biso   1.000  C
  C3       1.0000 0.02000  0.07040  0.72500  Biso   1.000  C
  C4       1.0000 0.97800  0.04110  0.92710  Biso   1.000  C
  C5       1.0000 0.98300  0.12730  0.05830  Biso   1.000  C
  C6       1.0000 0.02100  0.20220  0.92400  Biso   1.000  C
  S1       1.0000 0.51700  0.70320  0.85600  Biso   1.000  S
  O4       1.0000 0.47600  0.78890  0.96600  Biso   1.000  O
  O5       1.0000 0.56500  0.72780  0.66600  Biso   1.000  O
  O6       1.0000 0.66100  0.64660  0.99000  Biso   1.000  O
  O7       1.0000 0.34500  0.66800  0.83400  Biso   1.000  O
  Ce2      1.0000 0.24220  0.50040  0.82470  Biso   1.000  Ce
  P2       1.0000 0.20640  0.57100  0.29590  Biso   1.000  P
  O8       1.0000 0.06470  0.53890  0.14630  Biso   1.000  O
  O9       1.0000 0.39720  0.55470  0.21000  Biso   1.000  O
  O10      1.0000 0.21400  0.52160  0.49120  Biso   1.000  O
  C7       1.0000 0.13100  0.69390  0.33500  Biso   1.000  C
  N2       1.0000 0.15100  0.77370  0.21200  Biso   1.000  N
  C8       1.0000 0.15400  0.85700  0.34300  Biso   1.000  C
  C9       1.0000 0.98000  0.92960  0.27500  Biso   1.000  C
  C10      1.0000 0.02200  0.95890  0.07290  Biso   1.000  C
  C11      1.0000 0.01700  0.87270  0.94170  Biso   1.000  C
  C12      1.0000 0.97900  0.79780  0.07600  Biso   1.000  C
  S2       1.0000 0.48300  0.29680  0.14400  Biso   1.000  S
  O11      1.0000 0.52400  0.21110  0.03400  Biso   1.000  O
  O12      1.0000 0.43500  0.27220  0.33400  Biso   1.000  O
  O13      1.0000 0.33900  0.35340  0.01000  Biso   1.000  O
  O14      1.0000 0.65500  0.33200  0.16600  Biso   1.000  O
