data_image0
_cell_length_a       12.889
_cell_length_b       15.266
_cell_length_c       10.389
_cell_angle_alpha    90
_cell_angle_beta     118.06
_cell_angle_gamma    90

_symmetry_space_group_name_H-M    "P 1"
_symmetry_int_tables_number       1

loop_
  _symmetry_equiv_pos_as_xyz
  'x, y, z'

loop_
  _atom_site_label
  _atom_site_occupancy
  _atom_site_fract_x
  _atom_site_fract_y
  _atom_site_fract_z
  _atom_site_thermal_displace_type
  _atom_site_B_iso_or_equiv
  _atom_site_type_symbol
  O1       1.0000 0.66690  0.63170  0.31920  Biso   1.000  O
  Ag1      1.0000 0.57313  0.68062  0.42641  Biso   1.000  Ag
  Ag2      1.0000 0.86091  0.35059  0.14104  Biso   1.000  Ag
  N1       1.0000 0.83450  0.49950  0.12840  Biso   1.000  N
  C1       1.0000 0.78340  0.54270  0.19510  Biso   1.000  C
  H1       1.0000 0.74630  0.51110  0.23840  Biso   1.000  H
  C2       1.0000 0.78400  0.63330  0.20160  Biso   1.000  C
  C3       1.0000 0.72550  0.67930  0.28010  Biso   1.000  C
  C4       1.0000 0.83980  0.68020  0.14010  Biso   1.000  C
  H2       1.0000 0.84300  0.74100  0.14630  Biso   1.000  H
  C5       1.0000 0.89160  0.63600  0.06810  Biso   1.000  C
  C6       1.0000 0.88470  0.54550  0.06420  Biso   1.000  C
  H3       1.0000 0.91690  0.51520  0.01390  Biso   1.000  H
  C7       1.0000 0.95840  0.68150  0.00070  Biso   1.000  C
  O2       1.0000 0.74170  0.75910  0.29730  Biso   1.000  O
  O3       1.0000 0.97030  0.76200  0.02030  Biso   1.000  O
  O4       1.0000 0.99700  0.63510  0.93410  Biso   1.000  O
  O5       1.0000 0.83310  0.13170  0.18080  Biso   1.000  O
  Ag3      1.0000 0.92687  0.18062  0.07359  Biso   1.000  Ag
  Ag4      1.0000 0.63909  0.85059  0.35896  Biso   1.000  Ag
  N2       1.0000 0.66550  0.99950  0.37160  Biso   1.000  N
  C8       1.0000 0.71660  0.04270  0.30490  Biso   1.000  C
  H4       1.0000 0.75370  0.01110  0.26160  Biso   1.000  H
  C9       1.0000 0.71600  0.13330  0.29840  Biso   1.000  C
  C10      1.0000 0.77450  0.17930  0.21990  Biso   1.000  C
  C11      1.0000 0.66020  0.18020  0.35990  Biso   1.000  C
  H5       1.0000 0.65700  0.24100  0.35370  Biso   1.000  H
  C12      1.0000 0.60840  0.13600  0.43190  Biso   1.000  C
  C13      1.0000 0.61530  0.04550  0.43580  Biso   1.000  C
  H6       1.0000 0.58310  0.01520  0.48610  Biso   1.000  H
  C14      1.0000 0.54160  0.18150  0.49930  Biso   1.000  C
  O6       1.0000 0.75830  0.25910  0.20270  Biso   1.000  O
  O7       1.0000 0.52970  0.26200  0.47970  Biso   1.000  O
  O8       1.0000 0.50300  0.13510  0.56590  Biso   1.000  O
  O9       1.0000 0.33310  0.36830  0.68080  Biso   1.000  O
  Ag5      1.0000 0.42687  0.31938  0.57359  Biso   1.000  Ag
  Ag6      1.0000 0.13909  0.64941  0.85896  Biso   1.000  Ag
  N3       1.0000 0.16550  0.50050  0.87160  Biso   1.000  N
  C15      1.0000 0.21660  0.45730  0.80490  Biso   1.000  C
  H7       1.0000 0.25370  0.48890  0.76160  Biso   1.000  H
  C16      1.0000 0.21600  0.36670  0.79840  Biso   1.000  C
  C17      1.0000 0.27450  0.32070  0.71990  Biso   1.000  C
  C18      1.0000 0.16020  0.31980  0.85990  Biso   1.000  C
  H8       1.0000 0.15700  0.25900  0.85370  Biso   1.000  H
  C19      1.0000 0.10840  0.36400  0.93190  Biso   1.000  C
  C20      1.0000 0.11530  0.45450  0.93580  Biso   1.000  C
  H9       1.0000 0.08310  0.48480  0.98610  Biso   1.000  H
  C21      1.0000 0.04160  0.31850  0.99930  Biso   1.000  C
  O10      1.0000 0.25830  0.24090  0.70270  Biso   1.000  O
  O11      1.0000 0.02970  0.23800  0.97970  Biso   1.000  O
  O12      1.0000 0.00300  0.36490  0.06590  Biso   1.000  O
  O13      1.0000 0.16690  0.86830  0.81920  Biso   1.000  O
  Ag7      1.0000 0.07313  0.81938  0.92641  Biso   1.000  Ag
  Ag8      1.0000 0.36091  0.14941  0.64104  Biso   1.000  Ag
  N4       1.0000 0.33450  0.00050  0.62840  Biso   1.000  N
  C22      1.0000 0.28340  0.95730  0.69510  Biso   1.000  C
  H10      1.0000 0.24630  0.98890  0.73840  Biso   1.000  H
  C23      1.0000 0.28400  0.86670  0.70160  Biso   1.000  C
  C24      1.0000 0.22550  0.82070  0.78010  Biso   1.000  C
  C25      1.0000 0.33980  0.81980  0.64010  Biso   1.000  C
  H11      1.0000 0.34300  0.75900  0.64630  Biso   1.000  H
  C26      1.0000 0.39160  0.86400  0.56810  Biso   1.000  C
  C27      1.0000 0.38470  0.95450  0.56420  Biso   1.000  C
  H12      1.0000 0.41690  0.98480  0.51390  Biso   1.000  H
  C28      1.0000 0.45840  0.81850  0.50070  Biso   1.000  C
  O14      1.0000 0.24170  0.74090  0.79730  Biso   1.000  O
  O15      1.0000 0.47030  0.73800  0.52030  Biso   1.000  O
  O16      1.0000 0.49700  0.86490  0.43410  Biso   1.000  O
  O17      1.0000 0.16690  0.13170  0.31920  Biso   1.000  O
  Ag9      1.0000 0.07313  0.18062  0.42641  Biso   1.000  Ag
  Ag10     1.0000 0.36091  0.85059  0.14104  Biso   1.000  Ag
  N5       1.0000 0.33450  0.99950  0.12840  Biso   1.000  N
  C29      1.0000 0.28340  0.04270  0.19510  Biso   1.000  C
  H13      1.0000 0.24630  0.01110  0.23840  Biso   1.000  H
  C30      1.0000 0.28400  0.13330  0.20160  Biso   1.000  C
  C31      1.0000 0.22550  0.17930  0.28010  Biso   1.000  C
  C32      1.0000 0.33980  0.18020  0.14010  Biso   1.000  C
  H14      1.0000 0.34300  0.24100  0.14630  Biso   1.000  H
  C33      1.0000 0.39160  0.13600  0.06810  Biso   1.000  C
  C34      1.0000 0.38470  0.04550  0.06420  Biso   1.000  C
  H15      1.0000 0.41690  0.01520  0.01390  Biso   1.000  H
  C35      1.0000 0.45840  0.18150  0.00070  Biso   1.000  C
  O18      1.0000 0.24170  0.25910  0.29730  Biso   1.000  O
  O19      1.0000 0.47030  0.26200  0.02030  Biso   1.000  O
  O20      1.0000 0.49700  0.13510  0.93410  Biso   1.000  O
  O21      1.0000 0.33310  0.63170  0.18080  Biso   1.000  O
  Ag11     1.0000 0.42687  0.68062  0.07359  Biso   1.000  Ag
  Ag12     1.0000 0.13909  0.35059  0.35896  Biso   1.000  Ag
  N6       1.0000 0.16550  0.49950  0.37160  Biso   1.000  N
  C36      1.0000 0.21660  0.54270  0.30490  Biso   1.000  C
  H16      1.0000 0.25370  0.51110  0.26160  Biso   1.000  H
  C37      1.0000 0.21600  0.63330  0.29840  Biso   1.000  C
  C38      1.0000 0.27450  0.67930  0.21990  Biso   1.000  C
  C39      1.0000 0.16020  0.68020  0.35990  Biso   1.000  C
  H17      1.0000 0.15700  0.74100  0.35370  Biso   1.000  H
  C40      1.0000 0.10840  0.63600  0.43190  Biso   1.000  C
  C41      1.0000 0.11530  0.54550  0.43580  Biso   1.000  C
  H18      1.0000 0.08310  0.51520  0.48610  Biso   1.000  H
  C42      1.0000 0.04160  0.68150  0.49930  Biso   1.000  C
  O22      1.0000 0.25830  0.75910  0.20270  Biso   1.000  O
  O23      1.0000 0.02970  0.76200  0.47970  Biso   1.000  O
  O24      1.0000 0.00300  0.63510  0.56590  Biso   1.000  O
  O25      1.0000 0.83310  0.86830  0.68080  Biso   1.000  O
  Ag13     1.0000 0.92687  0.81938  0.57359  Biso   1.000  Ag
  Ag14     1.0000 0.63909  0.14941  0.85896  Biso   1.000  Ag
  N7       1.0000 0.66550  0.00050  0.87160  Biso   1.000  N
  C43      1.0000 0.71660  0.95730  0.80490  Biso   1.000  C
  H19      1.0000 0.75370  0.98890  0.76160  Biso   1.000  H
  C44      1.0000 0.71600  0.86670  0.79840  Biso   1.000  C
  C45      1.0000 0.77450  0.82070  0.71990  Biso   1.000  C
  C46      1.0000 0.66020  0.81980  0.85990  Biso   1.000  C
  H20      1.0000 0.65700  0.75900  0.85370  Biso   1.000  H
  C47      1.0000 0.60840  0.86400  0.93190  Biso   1.000  C
  C48      1.0000 0.61530  0.95450  0.93580  Biso   1.000  C
  H21      1.0000 0.58310  0.98480  0.98610  Biso   1.000  H
  C49      1.0000 0.54160  0.81850  0.99930  Biso   1.000  C
  O26      1.0000 0.75830  0.74090  0.70270  Biso   1.000  O
  O27      1.0000 0.52970  0.73800  0.97970  Biso   1.000  O
  O28      1.0000 0.50300  0.86490  0.06590  Biso   1.000  O
  O29      1.0000 0.66690  0.36830  0.81920  Biso   1.000  O
  Ag15     1.0000 0.57313  0.31938  0.92641  Biso   1.000  Ag
  Ag16     1.0000 0.86091  0.64941  0.64104  Biso   1.000  Ag
  N8       1.0000 0.83450  0.50050  0.62840  Biso   1.000  N
  C50      1.0000 0.78340  0.45730  0.69510  Biso   1.000  C
  H22      1.0000 0.74630  0.48890  0.73840  Biso   1.000  H
  C51      1.0000 0.78400  0.36670  0.70160  Biso   1.000  C
  C52      1.0000 0.72550  0.32070  0.78010  Biso   1.000  C
  C53      1.0000 0.83980  0.31980  0.64010  Biso   1.000  C
  H23      1.0000 0.84300  0.25900  0.64630  Biso   1.000  H
  C54      1.0000 0.89160  0.36400  0.56810  Biso   1.000  C
  C55      1.0000 0.88470  0.45450  0.56420  Biso   1.000  C
  H24      1.0000 0.91690  0.48480  0.51390  Biso   1.000  H
  C56      1.0000 0.95840  0.31850  0.50070  Biso   1.000  C
  O30      1.0000 0.74170  0.24090  0.79730  Biso   1.000  O
  O31      1.0000 0.97030  0.23800  0.52030  Biso   1.000  O
  O32      1.0000 0.99700  0.36490  0.43410  Biso   1.000  O
