data_image0
_cell_length_a       11.8051
_cell_length_b       14.1508
_cell_length_c       7.6915
_cell_angle_alpha    90
_cell_angle_beta     91.038
_cell_angle_gamma    90

_symmetry_space_group_name_H-M    "P 1"
_symmetry_int_tables_number       1

loop_
  _symmetry_equiv_pos_as_xyz
  'x, y, z'

loop_
  _atom_site_label
  _atom_site_occupancy
  _atom_site_fract_x
  _atom_site_fract_y
  _atom_site_fract_z
  _atom_site_thermal_displace_type
  _atom_site_B_iso_or_equiv
  _atom_site_type_symbol
  O1       1.0000 0.37660  0.39270  0.22310  Biso   1.000  O
  O2       1.0000 0.40430  0.43870  0.48840  Biso   1.000  O
  N1       1.0000 0.28880  0.22430  0.31710  Biso   1.000  N
  N2       1.0000 0.24300  0.15700  0.07900  Biso   1.000  N
  C1       1.0000 0.36630  0.38070  0.37720  Biso   1.000  C
  C2       1.0000 0.30010  0.29780  0.44750  Biso   1.000  C
  H1       1.0000 0.33870  0.27270  0.54980  Biso   1.000  H
  H2       1.0000 0.22540  0.31890  0.48130  Biso   1.000  H
  C3       1.0000 0.35920  0.15070  0.29960  Biso   1.000  C
  H3       1.0000 0.41890  0.13600  0.37540  Biso   1.000  H
  C4       1.0000 0.33090  0.10150  0.15740  Biso   1.000  C
  H4       1.0000 0.36120  0.04480  0.11870  Biso   1.000  H
  C5       1.0000 0.22090  0.22750  0.17960  Biso   1.000  C
  H5       1.0000 0.16580  0.27320  0.15830  Biso   1.000  H
  C6       1.0000 0.18130  0.13020  0.92030  Biso   1.000  C
  H6       1.0000 0.23320  0.10090  0.84020  Biso   1.000  H
  H7       1.0000 0.15040  0.18640  0.86500  Biso   1.000  H
  C7       1.0000 0.08620  0.06230  0.95890  Biso   1.000  C
  C8       1.0000 0.98270  0.09790  0.99690  Biso   1.000  C
  H8       1.0000 0.96980  0.16270  0.99670  Biso   1.000  H
  C9       1.0000 0.89320  0.03260  0.03760  Biso   1.000  C
  H9       1.0000 0.82120  0.05520  0.06160  Biso   1.000  H
  O3       1.0000 0.40580  0.33290  0.86990  Biso   1.000  O
  H10      1.0000 0.38910  0.28200  0.81610  Biso   1.000  H
  H11      1.0000 0.45410  0.31920  0.95350  Biso   1.000  H
  O4       1.0000 0.32370  0.38530  0.86380  Biso   1.000  O
  H12      1.0000 0.24110  0.39820  0.88520  Biso   1.000  H
  H13      1.0000 0.34760  0.42780  0.93400  Biso   1.000  H
  O5       1.0000 0.62340  0.39270  0.27690  Biso   1.000  O
  O6       1.0000 0.59570  0.43870  0.01160  Biso   1.000  O
  N3       1.0000 0.71120  0.22430  0.18290  Biso   1.000  N
  N4       1.0000 0.75700  0.15700  0.42100  Biso   1.000  N
  C10      1.0000 0.63370  0.38070  0.12280  Biso   1.000  C
  C11      1.0000 0.69990  0.29780  0.05250  Biso   1.000  C
  H14      1.0000 0.66130  0.27270  0.95020  Biso   1.000  H
  H15      1.0000 0.77460  0.31890  0.01870  Biso   1.000  H
  C12      1.0000 0.64080  0.15070  0.20040  Biso   1.000  C
  H16      1.0000 0.58110  0.13600  0.12460  Biso   1.000  H
  C13      1.0000 0.66910  0.10150  0.34260  Biso   1.000  C
  H17      1.0000 0.63880  0.04480  0.38130  Biso   1.000  H
  C14      1.0000 0.77910  0.22750  0.32040  Biso   1.000  C
  H18      1.0000 0.83420  0.27320  0.34170  Biso   1.000  H
  C15      1.0000 0.81870  0.13020  0.57970  Biso   1.000  C
  H19      1.0000 0.76680  0.10090  0.65980  Biso   1.000  H
  H20      1.0000 0.84960  0.18640  0.63500  Biso   1.000  H
  C16      1.0000 0.91380  0.06230  0.54110  Biso   1.000  C
  C17      1.0000 0.01730  0.09790  0.50310  Biso   1.000  C
  H21      1.0000 0.03020  0.16270  0.50330  Biso   1.000  H
  C18      1.0000 0.10680  0.03260  0.46240  Biso   1.000  C
  H22      1.0000 0.17880  0.05520  0.43840  Biso   1.000  H
  O7       1.0000 0.59420  0.33290  0.63010  Biso   1.000  O
  H23      1.0000 0.61090  0.28200  0.68390  Biso   1.000  H
  H24      1.0000 0.54590  0.31920  0.54650  Biso   1.000  H
  O8       1.0000 0.67630  0.38530  0.63620  Biso   1.000  O
  H25      1.0000 0.75890  0.39820  0.61480  Biso   1.000  H
  H26      1.0000 0.65240  0.42780  0.56600  Biso   1.000  H
  O9       1.0000 0.62340  0.60730  0.77690  Biso   1.000  O
  O10      1.0000 0.59570  0.56130  0.51160  Biso   1.000  O
  N5       1.0000 0.71120  0.77570  0.68290  Biso   1.000  N
  N6       1.0000 0.75700  0.84300  0.92100  Biso   1.000  N
  C19      1.0000 0.63370  0.61930  0.62280  Biso   1.000  C
  C20      1.0000 0.69990  0.70220  0.55250  Biso   1.000  C
  H27      1.0000 0.66130  0.72730  0.45020  Biso   1.000  H
  H28      1.0000 0.77460  0.68110  0.51870  Biso   1.000  H
  C21      1.0000 0.64080  0.84930  0.70040  Biso   1.000  C
  H29      1.0000 0.58110  0.86400  0.62460  Biso   1.000  H
  C22      1.0000 0.66910  0.89850  0.84260  Biso   1.000  C
  H30      1.0000 0.63880  0.95520  0.88130  Biso   1.000  H
  C23      1.0000 0.77910  0.77250  0.82040  Biso   1.000  C
  H31      1.0000 0.83420  0.72680  0.84170  Biso   1.000  H
  C24      1.0000 0.81870  0.86980  0.07970  Biso   1.000  C
  H32      1.0000 0.76680  0.89910  0.15980  Biso   1.000  H
  H33      1.0000 0.84960  0.81360  0.13500  Biso   1.000  H
  C25      1.0000 0.91380  0.93770  0.04110  Biso   1.000  C
  C26      1.0000 0.01730  0.90210  0.00310  Biso   1.000  C
  H34      1.0000 0.03020  0.83730  0.00330  Biso   1.000  H
  C27      1.0000 0.10680  0.96740  0.96240  Biso   1.000  C
  H35      1.0000 0.17880  0.94480  0.93840  Biso   1.000  H
  O11      1.0000 0.59420  0.66710  0.13010  Biso   1.000  O
  H36      1.0000 0.61090  0.71800  0.18390  Biso   1.000  H
  H37      1.0000 0.54590  0.68080  0.04650  Biso   1.000  H
  O12      1.0000 0.67630  0.61470  0.13620  Biso   1.000  O
  H38      1.0000 0.75890  0.60180  0.11480  Biso   1.000  H
  H39      1.0000 0.65240  0.57220  0.06600  Biso   1.000  H
  O13      1.0000 0.37660  0.60730  0.72310  Biso   1.000  O
  O14      1.0000 0.40430  0.56130  0.98840  Biso   1.000  O
  N7       1.0000 0.28880  0.77570  0.81710  Biso   1.000  N
  N8       1.0000 0.24300  0.84300  0.57900  Biso   1.000  N
  C28      1.0000 0.36630  0.61930  0.87720  Biso   1.000  C
  C29      1.0000 0.30010  0.70220  0.94750  Biso   1.000  C
  H40      1.0000 0.33870  0.72730  0.04980  Biso   1.000  H
  H41      1.0000 0.22540  0.68110  0.98130  Biso   1.000  H
  C30      1.0000 0.35920  0.84930  0.79960  Biso   1.000  C
  H42      1.0000 0.41890  0.86400  0.87540  Biso   1.000  H
  C31      1.0000 0.33090  0.89850  0.65740  Biso   1.000  C
  H43      1.0000 0.36120  0.95520  0.61870  Biso   1.000  H
  C32      1.0000 0.22090  0.77250  0.67960  Biso   1.000  C
  H44      1.0000 0.16580  0.72680  0.65830  Biso   1.000  H
  C33      1.0000 0.18130  0.86980  0.42030  Biso   1.000  C
  H45      1.0000 0.23320  0.89910  0.34020  Biso   1.000  H
  H46      1.0000 0.15040  0.81360  0.36500  Biso   1.000  H
  C34      1.0000 0.08620  0.93770  0.45890  Biso   1.000  C
  C35      1.0000 0.98270  0.90210  0.49690  Biso   1.000  C
  H47      1.0000 0.96980  0.83730  0.49670  Biso   1.000  H
  C36      1.0000 0.89320  0.96740  0.53760  Biso   1.000  C
  H48      1.0000 0.82120  0.94480  0.56160  Biso   1.000  H
  O15      1.0000 0.40580  0.66710  0.36990  Biso   1.000  O
  H49      1.0000 0.38910  0.71800  0.31610  Biso   1.000  H
  H50      1.0000 0.45410  0.68080  0.45350  Biso   1.000  H
  O16      1.0000 0.32370  0.61470  0.36380  Biso   1.000  O
  H51      1.0000 0.24110  0.60180  0.38520  Biso   1.000  H
  H52      1.0000 0.34760  0.57220  0.43400  Biso   1.000  H
  Ca1      1.0000 0.50000  0.46819  0.75000  Biso   1.000  Ca
  Ca2      1.0000 0.50000  0.53181  0.25000  Biso   1.000  Ca
