data_image0
_cell_length_a       12.877
_cell_length_b       12.17
_cell_length_c       12.159
_cell_angle_alpha    90
_cell_angle_beta     93.99
_cell_angle_gamma    90

_symmetry_space_group_name_H-M    "P 1"
_symmetry_int_tables_number       1

loop_
  _symmetry_equiv_pos_as_xyz
  'x, y, z'

loop_
  _atom_site_label
  _atom_site_occupancy
  _atom_site_fract_x
  _atom_site_fract_y
  _atom_site_fract_z
  _atom_site_thermal_displace_type
  _atom_site_B_iso_or_equiv
  _atom_site_type_symbol
  Fe1      1.0000 0.24894  0.04067  0.20273  Biso   1.000  Fe
  P1       1.0000 0.20235  0.77535  0.17633  Biso   1.000  P
  H1       1.0000 0.20200  0.72100  0.07500  Biso   1.000  H
  P2       1.0000 0.82489  0.97889  0.05590  Biso   1.000  P
  H2       1.0000 0.86500  0.07400  0.02500  Biso   1.000  H
  F1       1.0000 0.09380  0.02830  0.20200  Biso   1.000  F
  O1       1.0000 0.26470  0.88050  0.16600  Biso   1.000  O
  O2       1.0000 0.77380  0.91810  0.95700  Biso   1.000  O
  O3       1.0000 0.25300  0.70120  0.26500  Biso   1.000  O
  O4       1.0000 0.74400  0.00590  0.13730  Biso   1.000  O
  O5       1.0000 0.08770  0.79670  0.18880  Biso   1.000  O
  O6       1.0000 0.91760  0.91330  0.10560  Biso   1.000  O
  Fe2      1.0000 0.74894  0.54067  0.20273  Biso   1.000  Fe
  P3       1.0000 0.70235  0.27535  0.17633  Biso   1.000  P
  H3       1.0000 0.70200  0.22100  0.07500  Biso   1.000  H
  P4       1.0000 0.32489  0.47889  0.05590  Biso   1.000  P
  H4       1.0000 0.36500  0.57400  0.02500  Biso   1.000  H
  F2       1.0000 0.59380  0.52830  0.20200  Biso   1.000  F
  O7       1.0000 0.76470  0.38050  0.16600  Biso   1.000  O
  O8       1.0000 0.27380  0.41810  0.95700  Biso   1.000  O
  O9       1.0000 0.75300  0.20120  0.26500  Biso   1.000  O
  O10      1.0000 0.24400  0.50590  0.13730  Biso   1.000  O
  O11      1.0000 0.58770  0.29670  0.18880  Biso   1.000  O
  O12      1.0000 0.41760  0.41330  0.10560  Biso   1.000  O
  Fe3      1.0000 0.75106  0.04067  0.29727  Biso   1.000  Fe
  P5       1.0000 0.79765  0.77535  0.32367  Biso   1.000  P
  H5       1.0000 0.79800  0.72100  0.42500  Biso   1.000  H
  P6       1.0000 0.17511  0.97889  0.44410  Biso   1.000  P
  H6       1.0000 0.13500  0.07400  0.47500  Biso   1.000  H
  F3       1.0000 0.90620  0.02830  0.29800  Biso   1.000  F
  O13      1.0000 0.73530  0.88050  0.33400  Biso   1.000  O
  O14      1.0000 0.22620  0.91810  0.54300  Biso   1.000  O
  O15      1.0000 0.74700  0.70120  0.23500  Biso   1.000  O
  O16      1.0000 0.25600  0.00590  0.36270  Biso   1.000  O
  O17      1.0000 0.91230  0.79670  0.31120  Biso   1.000  O
  O18      1.0000 0.08240  0.91330  0.39440  Biso   1.000  O
  Fe4      1.0000 0.25106  0.54067  0.29727  Biso   1.000  Fe
  P7       1.0000 0.29765  0.27535  0.32367  Biso   1.000  P
  H7       1.0000 0.29800  0.22100  0.42500  Biso   1.000  H
  P8       1.0000 0.67511  0.47889  0.44410  Biso   1.000  P
  H8       1.0000 0.63500  0.57400  0.47500  Biso   1.000  H
  F4       1.0000 0.40620  0.52830  0.29800  Biso   1.000  F
  O19      1.0000 0.23530  0.38050  0.33400  Biso   1.000  O
  O20      1.0000 0.72620  0.41810  0.54300  Biso   1.000  O
  O21      1.0000 0.24700  0.20120  0.23500  Biso   1.000  O
  O22      1.0000 0.75600  0.50590  0.36270  Biso   1.000  O
  O23      1.0000 0.41230  0.29670  0.31120  Biso   1.000  O
  O24      1.0000 0.58240  0.41330  0.39440  Biso   1.000  O
  Fe5      1.0000 0.75106  0.95933  0.79727  Biso   1.000  Fe
  P9       1.0000 0.79765  0.22465  0.82367  Biso   1.000  P
  H9       1.0000 0.79800  0.27900  0.92500  Biso   1.000  H
  P10      1.0000 0.17511  0.02111  0.94410  Biso   1.000  P
  H10      1.0000 0.13500  0.92600  0.97500  Biso   1.000  H
  F5       1.0000 0.90620  0.97170  0.79800  Biso   1.000  F
  O25      1.0000 0.73530  0.11950  0.83400  Biso   1.000  O
  O26      1.0000 0.22620  0.08190  0.04300  Biso   1.000  O
  O27      1.0000 0.74700  0.29880  0.73500  Biso   1.000  O
  O28      1.0000 0.25600  0.99410  0.86270  Biso   1.000  O
  O29      1.0000 0.91230  0.20330  0.81120  Biso   1.000  O
  O30      1.0000 0.08240  0.08670  0.89440  Biso   1.000  O
  Fe6      1.0000 0.25106  0.45933  0.79727  Biso   1.000  Fe
  P11      1.0000 0.29765  0.72465  0.82367  Biso   1.000  P
  H11      1.0000 0.29800  0.77900  0.92500  Biso   1.000  H
  P12      1.0000 0.67511  0.52111  0.94410  Biso   1.000  P
  H12      1.0000 0.63500  0.42600  0.97500  Biso   1.000  H
  F6       1.0000 0.40620  0.47170  0.79800  Biso   1.000  F
  O31      1.0000 0.23530  0.61950  0.83400  Biso   1.000  O
  O32      1.0000 0.72620  0.58190  0.04300  Biso   1.000  O
  O33      1.0000 0.24700  0.79880  0.73500  Biso   1.000  O
  O34      1.0000 0.75600  0.49410  0.86270  Biso   1.000  O
  O35      1.0000 0.41230  0.70330  0.81120  Biso   1.000  O
  O36      1.0000 0.58240  0.58670  0.89440  Biso   1.000  O
  Fe7      1.0000 0.24894  0.95933  0.70273  Biso   1.000  Fe
  P13      1.0000 0.20235  0.22465  0.67633  Biso   1.000  P
  H13      1.0000 0.20200  0.27900  0.57500  Biso   1.000  H
  P14      1.0000 0.82489  0.02111  0.55590  Biso   1.000  P
  H14      1.0000 0.86500  0.92600  0.52500  Biso   1.000  H
  F7       1.0000 0.09380  0.97170  0.70200  Biso   1.000  F
  O37      1.0000 0.26470  0.11950  0.66600  Biso   1.000  O
  O38      1.0000 0.77380  0.08190  0.45700  Biso   1.000  O
  O39      1.0000 0.25300  0.29880  0.76500  Biso   1.000  O
  O40      1.0000 0.74400  0.99410  0.63730  Biso   1.000  O
  O41      1.0000 0.08770  0.20330  0.68880  Biso   1.000  O
  O42      1.0000 0.91760  0.08670  0.60560  Biso   1.000  O
  Fe8      1.0000 0.74894  0.45933  0.70273  Biso   1.000  Fe
  P15      1.0000 0.70235  0.72465  0.67633  Biso   1.000  P
  H15      1.0000 0.70200  0.77900  0.57500  Biso   1.000  H
  P16      1.0000 0.32489  0.52111  0.55590  Biso   1.000  P
  H16      1.0000 0.36500  0.42600  0.52500  Biso   1.000  H
  F8       1.0000 0.59380  0.47170  0.70200  Biso   1.000  F
  O43      1.0000 0.76470  0.61950  0.66600  Biso   1.000  O
  O44      1.0000 0.27380  0.58190  0.45700  Biso   1.000  O
  O45      1.0000 0.75300  0.79880  0.76500  Biso   1.000  O
  O46      1.0000 0.24400  0.49410  0.63730  Biso   1.000  O
  O47      1.0000 0.58770  0.70330  0.68880  Biso   1.000  O
  O48      1.0000 0.41760  0.58670  0.60560  Biso   1.000  O
  Fe9      1.0000 0.00000  0.91157  0.25000  Biso   1.000  Fe
  Fe10     1.0000 0.50000  0.41157  0.25000  Biso   1.000  Fe
  Fe11     1.0000 0.00000  0.08843  0.75000  Biso   1.000  Fe
  Fe12     1.0000 0.50000  0.58843  0.75000  Biso   1.000  Fe
