data_GULWOA_clean
_audit_creation_date              2014-07-02
_audit_creation_method            'Materials Studio'
_symmetry_space_group_name_H-M    'P1'
_symmetry_Int_Tables_number       1
_symmetry_cell_setting            triclinic
loop_
_symmetry_equiv_pos_as_xyz
  x,y,z
_cell_length_a                    12.5300
_cell_length_b                    16.1304
_cell_length_c                    20.8928
_cell_angle_alpha                 67.3971
_cell_angle_beta                  72.5506
_cell_angle_gamma                 67.1452
loop_
_atom_site_label
_atom_site_type_symbol
_atom_site_fract_x
_atom_site_fract_y
_atom_site_fract_z
_atom_site_U_iso_or_equiv
_atom_site_adp_type
_atom_site_occupancy
Cd1    Cd    0.36683   0.74016   0.76034   0.01267  Uiso   1.00
Cd2    Cd    0.63818   0.66440   0.84534   0.01267  Uiso   1.00
Cd3    Cd    0.86733   0.75984   0.73966   0.01267  Uiso   1.00
Cd4    Cd    0.14792   0.83560   0.65466   0.01267  Uiso   1.00
Cd5    Cd    0.63317   0.25984   0.23966   0.01267  Uiso   1.00
Cd6    Cd    0.36182   0.33560   0.15466   0.01267  Uiso   1.00
Cd7    Cd    0.13267   0.24016   0.26034   0.01267  Uiso   1.00
Cd8    Cd    0.85208   0.16440   0.34534   0.01267  Uiso   1.00
Cd9    Cd    0.50000  -0.00000  -0.00000   0.01267  Uiso   1.00
Cd10   Cd    0.50000   0.50000   0.50000   0.01267  Uiso   1.00
H1     H     0.31400   0.62800   0.92600   0.01267  Uiso   1.00
H2     H     0.40080   0.51560   0.01900   0.01267  Uiso   1.00
H3     H     0.18830   0.36830   0.05930   0.01267  Uiso   1.00
H4     H     0.10380   0.47480   0.96160   0.01267  Uiso   1.00
H5     H     0.37950   0.35280   0.84320   0.01267  Uiso   1.00
H6     H     0.61460   0.29900   0.95860   0.01267  Uiso   1.00
H7     H     0.59930   0.14540   0.01300   0.01267  Uiso   1.00
H8     H     0.37860   0.19930   0.89510   0.01267  Uiso   1.00
H9     H     0.86800   0.87200   0.57400   0.01267  Uiso   1.00
H10    H     0.93540   0.98440   0.48100   0.01267  Uiso   1.00
H11    H     0.61590   0.13170   0.44070   0.01267  Uiso   1.00
H12    H     0.54020   0.02520   0.53840   0.01267  Uiso   1.00
H13    H     0.57550   0.14720   0.65680   0.01267  Uiso   1.00
H14    H     0.87220   0.20100   0.54140   0.01267  Uiso   1.00
H15    H     0.75770   0.35460   0.48700   0.01267  Uiso   1.00
H16    H     0.47300   0.30070   0.60490   0.01267  Uiso   1.00
H17    H     0.68600   0.37200   0.07400   0.01267  Uiso   1.00
H18    H     0.59920   0.48440   0.98100   0.01267  Uiso   1.00
H19    H     0.81170   0.63170   0.94070   0.01267  Uiso   1.00
H20    H     0.89620   0.52520   0.03840   0.01267  Uiso   1.00
H21    H     0.62050   0.64720   0.15680   0.01267  Uiso   1.00
H22    H     0.38540   0.70100   0.04140   0.01267  Uiso   1.00
H23    H     0.40070   0.85460   0.98700   0.01267  Uiso   1.00
H24    H     0.62140   0.80070   0.10490   0.01267  Uiso   1.00
H25    H     0.13200   0.12800   0.42600   0.01267  Uiso   1.00
H26    H     0.06460   0.01560   0.51900   0.01267  Uiso   1.00
H27    H     0.38410   0.86830   0.55930   0.01267  Uiso   1.00
H28    H     0.45980   0.97480   0.46160   0.01267  Uiso   1.00
H29    H     0.42450   0.85280   0.34320   0.01267  Uiso   1.00
H30    H     0.12780   0.79900   0.45860   0.01267  Uiso   1.00
H31    H     0.24230   0.64540   0.51300   0.01267  Uiso   1.00
H32    H     0.52700   0.69930   0.39510   0.01267  Uiso   1.00
C1     C     0.14500   0.63210   0.87450   0.01267  Uiso   1.00
C2     C     0.19760   0.56500   0.93220   0.01267  Uiso   1.00
C3     C     0.28720   0.57480   0.95160   0.01267  Uiso   1.00
C4     C     0.33800   0.50750   0.00790   0.01267  Uiso   1.00
C5     C     0.21590   0.42080   0.03120   0.01267  Uiso   1.00
C6     C     0.16400   0.48560   0.97320   0.01267  Uiso   1.00
C7     C     0.51330   0.43740   0.85740   0.01267  Uiso   1.00
C8     C     0.50520   0.34030   0.89170   0.01267  Uiso   1.00
C9     C     0.42960   0.31070   0.87630   0.01267  Uiso   1.00
C10    C     0.56550   0.27990   0.94390   0.01267  Uiso   1.00
C11    C     0.55540   0.18750   0.97670   0.01267  Uiso   1.00
C12    C     0.42760   0.21880   0.90960   0.01267  Uiso   1.00
C13    C     0.65160   0.86790   0.62550   0.01267  Uiso   1.00
C14    C     0.69480   0.93500   0.56780   0.01267  Uiso   1.00
C15    C     0.81360   0.92520   0.54840   0.01267  Uiso   1.00
C16    C     0.85340   0.99250   0.49210   0.01267  Uiso   1.00
C17    C     0.66790   0.07920   0.46880   0.01267  Uiso   1.00
C18    C     0.62280   0.01440   0.52680   0.01267  Uiso   1.00
C19    C     0.80810   0.06260   0.64260   0.01267  Uiso   1.00
C20    C     0.73720   0.15970   0.60830   0.01267  Uiso   1.00
C21    C     0.61660   0.18930   0.62370   0.01267  Uiso   1.00
C22    C     0.78930   0.22010   0.55610   0.01267  Uiso   1.00
C23    C     0.71960   0.31250   0.52330   0.01267  Uiso   1.00
C24    C     0.55600   0.28120   0.59040   0.01267  Uiso   1.00
C25    C     0.85500   0.36790   0.12550   0.01267  Uiso   1.00
C26    C     0.80240   0.43500   0.06780   0.01267  Uiso   1.00
C27    C     0.71280   0.42520   0.04840   0.01267  Uiso   1.00
C28    C     0.66200   0.49250   0.99210   0.01267  Uiso   1.00
C29    C     0.78410   0.57920   0.96880   0.01267  Uiso   1.00
C30    C     0.83600   0.51440   0.02680   0.01267  Uiso   1.00
C31    C     0.48670   0.56260   0.14260   0.01267  Uiso   1.00
C32    C     0.49480   0.65970   0.10830   0.01267  Uiso   1.00
C33    C     0.57040   0.68930   0.12370   0.01267  Uiso   1.00
C34    C     0.43450   0.72010   0.05610   0.01267  Uiso   1.00
C35    C     0.44460   0.81250   0.02330   0.01267  Uiso   1.00
C36    C     0.57240   0.78120   0.09040   0.01267  Uiso   1.00
C37    C     0.34840   0.13210   0.37450   0.01267  Uiso   1.00
C38    C     0.30520   0.06500   0.43220   0.01267  Uiso   1.00
C39    C     0.18640   0.07480   0.45160   0.01267  Uiso   1.00
C40    C     0.14660   0.00750   0.50790   0.01267  Uiso   1.00
C41    C     0.33210   0.92080   0.53120   0.01267  Uiso   1.00
C42    C     0.37720   0.98560   0.47320   0.01267  Uiso   1.00
C43    C     0.19190   0.93740   0.35740   0.01267  Uiso   1.00
C44    C     0.26280   0.84030   0.39170   0.01267  Uiso   1.00
C45    C     0.38340   0.81070   0.37630   0.01267  Uiso   1.00
C46    C     0.21070   0.77990   0.44390   0.01267  Uiso   1.00
C47    C     0.28040   0.68750   0.47670   0.01267  Uiso   1.00
C48    C     0.44400   0.71880   0.40960   0.01267  Uiso   1.00
N1     N     0.19030   0.69450   0.81810   0.01267  Uiso   1.00
N2     N     0.10990   0.74110   0.77670   0.01267  Uiso   1.00
N3     N     0.01560   0.71170   0.80510   0.01267  Uiso   1.00
N4     N     0.03190   0.64480   0.86660   0.01267  Uiso   1.00
N5     N     0.30430   0.43180   0.04760   0.01267  Uiso   1.00
N6     N     0.59160   0.46280   0.87160   0.01267  Uiso   1.00
N7     N     0.56590   0.55700   0.83520   0.01267  Uiso   1.00
N8     N     0.47670   0.58200   0.80240   0.01267  Uiso   1.00
N9     N     0.44320   0.50740   0.81520   0.01267  Uiso   1.00
N10    N     0.48550   0.15660   0.95840   0.01267  Uiso   1.00
N11    N     0.70290   0.80550   0.68190   0.01267  Uiso   1.00
N12    N     0.62770   0.75890   0.72330   0.01267  Uiso   1.00
N13    N     0.53240   0.78830   0.69490   0.01267  Uiso   1.00
N14    N     0.54330   0.85520   0.63340   0.01267  Uiso   1.00
N15    N     0.78370   0.06820   0.45240   0.01267  Uiso   1.00
N16    N     0.92600   0.03720   0.62840   0.01267  Uiso   1.00
N17    N     0.95810   0.94300   0.66480   0.01267  Uiso   1.00
N18    N     0.86110   0.91800   0.69760   0.01267  Uiso   1.00
N19    N     0.76580   0.99260   0.68480   0.01267  Uiso   1.00
N20    N     0.60050   0.34340   0.54160   0.01267  Uiso   1.00
N21    N     0.80970   0.30550   0.18190   0.01267  Uiso   1.00
N22    N     0.89010   0.25890   0.22330   0.01267  Uiso   1.00
N23    N     0.98440   0.28830   0.19490   0.01267  Uiso   1.00
N24    N     0.96810   0.35520   0.13340   0.01267  Uiso   1.00
N25    N     0.69570   0.56820   0.95240   0.01267  Uiso   1.00
N26    N     0.40840   0.53720   0.12840   0.01267  Uiso   1.00
N27    N     0.43410   0.44300   0.16480   0.01267  Uiso   1.00
N28    N     0.52330   0.41800   0.19760   0.01267  Uiso   1.00
N29    N     0.55680   0.49260   0.18480   0.01267  Uiso   1.00
N30    N     0.51450   0.84340   0.04160   0.01267  Uiso   1.00
N31    N     0.29710   0.19450   0.31810   0.01267  Uiso   1.00
N32    N     0.37230   0.24110   0.27670   0.01267  Uiso   1.00
N33    N     0.46760   0.21170   0.30510   0.01267  Uiso   1.00
N34    N     0.45670   0.14480   0.36660   0.01267  Uiso   1.00
N35    N     0.21630   0.93180   0.54760   0.01267  Uiso   1.00
N36    N     0.07400   0.96280   0.37160   0.01267  Uiso   1.00
N37    N     0.04190   0.05700   0.33520   0.01267  Uiso   1.00
N38    N     0.13890   0.08200   0.30240   0.01267  Uiso   1.00
N39    N     0.23420   0.00740   0.31520   0.01267  Uiso   1.00
N40    N     0.39950   0.65660   0.45840   0.01267  Uiso   1.00
Cl1    Cl    0.41346   0.76140   0.86768   0.01267  Uiso   1.00
Cl2    Cl    0.35051   0.70330   0.65068   0.01267  Uiso   1.00
Cl3    Cl    0.22873   0.90940   0.71754   0.01267  Uiso   1.00
Cl4    Cl    0.04254   0.73860   0.63232   0.01267  Uiso   1.00
Cl5    Cl    0.70449   0.79670   0.84932   0.01267  Uiso   1.00
Cl6    Cl    0.85567   0.59060   0.78246   0.01267  Uiso   1.00
Cl7    Cl    0.58654   0.23860   0.13232   0.01267  Uiso   1.00
Cl8    Cl    0.64949   0.29670   0.34932   0.01267  Uiso   1.00
Cl9    Cl    0.77127   0.09060   0.28246   0.01267  Uiso   1.00
Cl10   Cl    0.95746   0.26140   0.36768   0.01267  Uiso   1.00
Cl11   Cl    0.29551   0.20330   0.15068   0.01267  Uiso   1.00
Cl12   Cl    0.14433   0.40940   0.21754   0.01267  Uiso   1.00
