data_image0
_cell_length_a       19.791
_cell_length_b       22.674
_cell_length_c       12.877
_cell_angle_alpha    90
_cell_angle_beta     113.271
_cell_angle_gamma    90

_symmetry_space_group_name_H-M    "P 1"
_symmetry_int_tables_number       1

loop_
  _symmetry_equiv_pos_as_xyz
  'x, y, z'

loop_
  _atom_site_label
  _atom_site_occupancy
  _atom_site_fract_x
  _atom_site_fract_y
  _atom_site_fract_z
  _atom_site_thermal_displace_type
  _atom_site_B_iso_or_equiv
  _atom_site_type_symbol
  Cu1      1.0000 0.49556  0.76115  0.54798  Biso   1.000  Cu
  O1       1.0000 0.57769  0.74239  0.68852  Biso   1.000  O
  O2       1.0000 0.57671  0.80480  0.82350  Biso   1.000  O
  O3       1.0000 0.51219  0.84678  0.55999  Biso   1.000  O
  O4       1.0000 0.62719  0.84826  0.56720  Biso   1.000  O
  N1       1.0000 0.40429  0.76683  0.40790  Biso   1.000  N
  N2       1.0000 0.46563  0.67583  0.53259  Biso   1.000  N
  N3       1.0000 0.57098  0.92887  0.79993  Biso   1.000  N
  C1       1.0000 0.37500  0.81625  0.35090  Biso   1.000  C
  H1       1.0000 0.39680  0.85270  0.38020  Biso   1.000  H
  C2       1.0000 0.31381  0.81520  0.25040  Biso   1.000  C
  H2       1.0000 0.29370  0.85060  0.21290  Biso   1.000  H
  C3       1.0000 0.28300  0.76290  0.20630  Biso   1.000  C
  H3       1.0000 0.24190  0.76140  0.13710  Biso   1.000  H
  C4       1.0000 0.31250  0.71170  0.26380  Biso   1.000  C
  H4       1.0000 0.29170  0.67500  0.23400  Biso   1.000  H
  C5       1.0000 0.37286  0.71451  0.36560  Biso   1.000  C
  C6       1.0000 0.40732  0.66316  0.43630  Biso   1.000  C
  C7       1.0000 0.38350  0.60575  0.40970  Biso   1.000  C
  H5       1.0000 0.34300  0.59740  0.34210  Biso   1.000  H
  C8       1.0000 0.41920  0.56084  0.48260  Biso   1.000  C
  H6       1.0000 0.40330  0.52160  0.46570  Biso   1.000  H
  C9       1.0000 0.47840  0.57399  0.58030  Biso   1.000  C
  H7       1.0000 0.50360  0.54400  0.63130  Biso   1.000  H
  C10      1.0000 0.50056  0.63184  0.60270  Biso   1.000  C
  H8       1.0000 0.54150  0.64080  0.66930  Biso   1.000  H
  C11      1.0000 0.64426  0.92379  0.84830  Biso   1.000  C
  H9       1.0000 0.66540  0.88600  0.86520  Biso   1.000  H
  C12      1.0000 0.68973  0.97286  0.87410  Biso   1.000  C
  H10      1.0000 0.74110  0.96840  0.90790  Biso   1.000  H
  C13      1.0000 0.65910  0.02738  0.85010  Biso   1.000  C
  H11      1.0000 0.68930  0.06100  0.86720  Biso   1.000  H
  C14      1.0000 0.58340  0.03325  0.80030  Biso   1.000  C
  H12      1.0000 0.56160  0.07080  0.78290  Biso   1.000  H
  C15      1.0000 0.54023  0.98282  0.77640  Biso   1.000  C
  C16      1.0000 0.60351  0.76330  0.78590  Biso   1.000  C
  C17      1.0000 0.67324  0.73675  0.86550  Biso   1.000  C
  H13      1.0000 0.68840  0.70050  0.84640  Biso   1.000  H
  C18      1.0000 0.71499  0.76198  0.96220  Biso   1.000  C
  H14      1.0000 0.69840  0.79720  0.98290  Biso   1.000  H
  C19      1.0000 0.56920  0.87300  0.55880  Biso   1.000  C
  C20      1.0000 0.56483  0.93821  0.54630  Biso   1.000  C
  H15      1.0000 0.60900  0.95940  0.56680  Biso   1.000  H
  C21      1.0000 0.50203  0.96830  0.50780  Biso   1.000  C
  H16      1.0000 0.45790  0.94730  0.48980  Biso   1.000  H
  Cu2      1.0000 0.99556  0.26115  0.54798  Biso   1.000  Cu
  O5       1.0000 0.07769  0.24239  0.68852  Biso   1.000  O
  O6       1.0000 0.07671  0.30480  0.82350  Biso   1.000  O
  O7       1.0000 0.01219  0.34678  0.55999  Biso   1.000  O
  O8       1.0000 0.12719  0.34826  0.56720  Biso   1.000  O
  N4       1.0000 0.90429  0.26683  0.40790  Biso   1.000  N
  N5       1.0000 0.96563  0.17583  0.53259  Biso   1.000  N
  N6       1.0000 0.07098  0.42887  0.79993  Biso   1.000  N
  C22      1.0000 0.87500  0.31625  0.35090  Biso   1.000  C
  H17      1.0000 0.89680  0.35270  0.38020  Biso   1.000  H
  C23      1.0000 0.81381  0.31520  0.25040  Biso   1.000  C
  H18      1.0000 0.79370  0.35060  0.21290  Biso   1.000  H
  C24      1.0000 0.78300  0.26290  0.20630  Biso   1.000  C
  H19      1.0000 0.74190  0.26140  0.13710  Biso   1.000  H
  C25      1.0000 0.81250  0.21170  0.26380  Biso   1.000  C
  H20      1.0000 0.79170  0.17500  0.23400  Biso   1.000  H
  C26      1.0000 0.87286  0.21451  0.36560  Biso   1.000  C
  C27      1.0000 0.90732  0.16316  0.43630  Biso   1.000  C
  C28      1.0000 0.88350  0.10575  0.40970  Biso   1.000  C
  H21      1.0000 0.84300  0.09740  0.34210  Biso   1.000  H
  C29      1.0000 0.91920  0.06084  0.48260  Biso   1.000  C
  H22      1.0000 0.90330  0.02160  0.46570  Biso   1.000  H
  C30      1.0000 0.97840  0.07399  0.58030  Biso   1.000  C
  H23      1.0000 0.00360  0.04400  0.63130  Biso   1.000  H
  C31      1.0000 0.00056  0.13184  0.60270  Biso   1.000  C
  H24      1.0000 0.04150  0.14080  0.66930  Biso   1.000  H
  C32      1.0000 0.14426  0.42379  0.84830  Biso   1.000  C
  H25      1.0000 0.16540  0.38600  0.86520  Biso   1.000  H
  C33      1.0000 0.18973  0.47286  0.87410  Biso   1.000  C
  H26      1.0000 0.24110  0.46840  0.90790  Biso   1.000  H
  C34      1.0000 0.15910  0.52738  0.85010  Biso   1.000  C
  H27      1.0000 0.18930  0.56100  0.86720  Biso   1.000  H
  C35      1.0000 0.08340  0.53325  0.80030  Biso   1.000  C
  H28      1.0000 0.06160  0.57080  0.78290  Biso   1.000  H
  C36      1.0000 0.04023  0.48282  0.77640  Biso   1.000  C
  C37      1.0000 0.10351  0.26330  0.78590  Biso   1.000  C
  C38      1.0000 0.17324  0.23675  0.86550  Biso   1.000  C
  H29      1.0000 0.18840  0.20050  0.84640  Biso   1.000  H
  C39      1.0000 0.21499  0.26198  0.96220  Biso   1.000  C
  H30      1.0000 0.19840  0.29720  0.98290  Biso   1.000  H
  C40      1.0000 0.06920  0.37300  0.55880  Biso   1.000  C
  C41      1.0000 0.06483  0.43821  0.54630  Biso   1.000  C
  H31      1.0000 0.10900  0.45940  0.56680  Biso   1.000  H
  C42      1.0000 0.00203  0.46830  0.50780  Biso   1.000  C
  H32      1.0000 0.95790  0.44730  0.48980  Biso   1.000  H
  Cu3      1.0000 0.50444  0.76115  0.95202  Biso   1.000  Cu
  O9       1.0000 0.42231  0.74239  0.81148  Biso   1.000  O
  O10      1.0000 0.42329  0.80480  0.67650  Biso   1.000  O
  O11      1.0000 0.48781  0.84678  0.94001  Biso   1.000  O
  O12      1.0000 0.37281  0.84826  0.93280  Biso   1.000  O
  N7       1.0000 0.59571  0.76683  0.09210  Biso   1.000  N
  N8       1.0000 0.53437  0.67583  0.96741  Biso   1.000  N
  N9       1.0000 0.42902  0.92887  0.70007  Biso   1.000  N
  C43      1.0000 0.62500  0.81625  0.14910  Biso   1.000  C
  H33      1.0000 0.60320  0.85270  0.11980  Biso   1.000  H
  C44      1.0000 0.68619  0.81520  0.24960  Biso   1.000  C
  H34      1.0000 0.70630  0.85060  0.28710  Biso   1.000  H
  C45      1.0000 0.71700  0.76290  0.29370  Biso   1.000  C
  H35      1.0000 0.75810  0.76140  0.36290  Biso   1.000  H
  C46      1.0000 0.68750  0.71170  0.23620  Biso   1.000  C
  H36      1.0000 0.70830  0.67500  0.26600  Biso   1.000  H
  C47      1.0000 0.62714  0.71451  0.13440  Biso   1.000  C
  C48      1.0000 0.59268  0.66316  0.06370  Biso   1.000  C
  C49      1.0000 0.61650  0.60575  0.09030  Biso   1.000  C
  H37      1.0000 0.65700  0.59740  0.15790  Biso   1.000  H
  C50      1.0000 0.58080  0.56084  0.01740  Biso   1.000  C
  H38      1.0000 0.59670  0.52160  0.03430  Biso   1.000  H
  C51      1.0000 0.52160  0.57399  0.91970  Biso   1.000  C
  H39      1.0000 0.49640  0.54400  0.86870  Biso   1.000  H
  C52      1.0000 0.49944  0.63184  0.89730  Biso   1.000  C
  H40      1.0000 0.45850  0.64080  0.83070  Biso   1.000  H
  C53      1.0000 0.35574  0.92379  0.65170  Biso   1.000  C
  H41      1.0000 0.33460  0.88600  0.63480  Biso   1.000  H
  C54      1.0000 0.31027  0.97286  0.62590  Biso   1.000  C
  H42      1.0000 0.25890  0.96840  0.59210  Biso   1.000  H
  C55      1.0000 0.34090  0.02738  0.64990  Biso   1.000  C
  H43      1.0000 0.31070  0.06100  0.63280  Biso   1.000  H
  C56      1.0000 0.41660  0.03325  0.69970  Biso   1.000  C
  H44      1.0000 0.43840  0.07080  0.71710  Biso   1.000  H
  C57      1.0000 0.45977  0.98282  0.72360  Biso   1.000  C
  C58      1.0000 0.39649  0.76330  0.71410  Biso   1.000  C
  C59      1.0000 0.32676  0.73675  0.63450  Biso   1.000  C
  H45      1.0000 0.31160  0.70050  0.65360  Biso   1.000  H
  C60      1.0000 0.28501  0.76198  0.53780  Biso   1.000  C
  H46      1.0000 0.30160  0.79720  0.51710  Biso   1.000  H
  C61      1.0000 0.43080  0.87300  0.94120  Biso   1.000  C
  C62      1.0000 0.43517  0.93821  0.95370  Biso   1.000  C
  H47      1.0000 0.39100  0.95940  0.93320  Biso   1.000  H
  C63      1.0000 0.49797  0.96830  0.99220  Biso   1.000  C
  H48      1.0000 0.54210  0.94730  0.01020  Biso   1.000  H
  Cu4      1.0000 0.00444  0.26115  0.95202  Biso   1.000  Cu
  O13      1.0000 0.92231  0.24239  0.81148  Biso   1.000  O
  O14      1.0000 0.92329  0.30480  0.67650  Biso   1.000  O
  O15      1.0000 0.98781  0.34678  0.94001  Biso   1.000  O
  O16      1.0000 0.87281  0.34826  0.93280  Biso   1.000  O
  N10      1.0000 0.09571  0.26683  0.09210  Biso   1.000  N
  N11      1.0000 0.03437  0.17583  0.96741  Biso   1.000  N
  N12      1.0000 0.92902  0.42887  0.70007  Biso   1.000  N
  C64      1.0000 0.12500  0.31625  0.14910  Biso   1.000  C
  H49      1.0000 0.10320  0.35270  0.11980  Biso   1.000  H
  C65      1.0000 0.18619  0.31520  0.24960  Biso   1.000  C
  H50      1.0000 0.20630  0.35060  0.28710  Biso   1.000  H
  C66      1.0000 0.21700  0.26290  0.29370  Biso   1.000  C
  H51      1.0000 0.25810  0.26140  0.36290  Biso   1.000  H
  C67      1.0000 0.18750  0.21170  0.23620  Biso   1.000  C
  H52      1.0000 0.20830  0.17500  0.26600  Biso   1.000  H
  C68      1.0000 0.12714  0.21451  0.13440  Biso   1.000  C
  C69      1.0000 0.09268  0.16316  0.06370  Biso   1.000  C
  C70      1.0000 0.11650  0.10575  0.09030  Biso   1.000  C
  H53      1.0000 0.15700  0.09740  0.15790  Biso   1.000  H
  C71      1.0000 0.08080  0.06084  0.01740  Biso   1.000  C
  H54      1.0000 0.09670  0.02160  0.03430  Biso   1.000  H
  C72      1.0000 0.02160  0.07399  0.91970  Biso   1.000  C
  H55      1.0000 0.99640  0.04400  0.86870  Biso   1.000  H
  C73      1.0000 0.99944  0.13184  0.89730  Biso   1.000  C
  H56      1.0000 0.95850  0.14080  0.83070  Biso   1.000  H
  C74      1.0000 0.85574  0.42379  0.65170  Biso   1.000  C
  H57      1.0000 0.83460  0.38600  0.63480  Biso   1.000  H
  C75      1.0000 0.81027  0.47286  0.62590  Biso   1.000  C
  H58      1.0000 0.75890  0.46840  0.59210  Biso   1.000  H
  C76      1.0000 0.84090  0.52738  0.64990  Biso   1.000  C
  H59      1.0000 0.81070  0.56100  0.63280  Biso   1.000  H
  C77      1.0000 0.91660  0.53325  0.69970  Biso   1.000  C
  H60      1.0000 0.93840  0.57080  0.71710  Biso   1.000  H
  C78      1.0000 0.95977  0.48282  0.72360  Biso   1.000  C
  C79      1.0000 0.89649  0.26330  0.71410  Biso   1.000  C
  C80      1.0000 0.82676  0.23675  0.63450  Biso   1.000  C
  H61      1.0000 0.81160  0.20050  0.65360  Biso   1.000  H
  C81      1.0000 0.78501  0.26198  0.53780  Biso   1.000  C
  H62      1.0000 0.80160  0.29720  0.51710  Biso   1.000  H
  C82      1.0000 0.93080  0.37300  0.94120  Biso   1.000  C
  C83      1.0000 0.93517  0.43821  0.95370  Biso   1.000  C
  H63      1.0000 0.89100  0.45940  0.93320  Biso   1.000  H
  C84      1.0000 0.99797  0.46830  0.99220  Biso   1.000  C
  H64      1.0000 0.04210  0.44730  0.01020  Biso   1.000  H
  Cu5      1.0000 0.50444  0.23885  0.45202  Biso   1.000  Cu
  O17      1.0000 0.42231  0.25761  0.31148  Biso   1.000  O
  O18      1.0000 0.42329  0.19520  0.17650  Biso   1.000  O
  O19      1.0000 0.48781  0.15322  0.44001  Biso   1.000  O
  O20      1.0000 0.37281  0.15174  0.43280  Biso   1.000  O
  N13      1.0000 0.59571  0.23317  0.59210  Biso   1.000  N
  N14      1.0000 0.53437  0.32417  0.46741  Biso   1.000  N
  N15      1.0000 0.42902  0.07113  0.20007  Biso   1.000  N
  C85      1.0000 0.62500  0.18375  0.64910  Biso   1.000  C
  H65      1.0000 0.60320  0.14730  0.61980  Biso   1.000  H
  C86      1.0000 0.68619  0.18480  0.74960  Biso   1.000  C
  H66      1.0000 0.70630  0.14940  0.78710  Biso   1.000  H
  C87      1.0000 0.71700  0.23710  0.79370  Biso   1.000  C
  H67      1.0000 0.75810  0.23860  0.86290  Biso   1.000  H
  C88      1.0000 0.68750  0.28830  0.73620  Biso   1.000  C
  H68      1.0000 0.70830  0.32500  0.76600  Biso   1.000  H
  C89      1.0000 0.62714  0.28549  0.63440  Biso   1.000  C
  C90      1.0000 0.59268  0.33684  0.56370  Biso   1.000  C
  C91      1.0000 0.61650  0.39425  0.59030  Biso   1.000  C
  H69      1.0000 0.65700  0.40260  0.65790  Biso   1.000  H
  C92      1.0000 0.58080  0.43916  0.51740  Biso   1.000  C
  H70      1.0000 0.59670  0.47840  0.53430  Biso   1.000  H
  C93      1.0000 0.52160  0.42601  0.41970  Biso   1.000  C
  H71      1.0000 0.49640  0.45600  0.36870  Biso   1.000  H
  C94      1.0000 0.49944  0.36816  0.39730  Biso   1.000  C
  H72      1.0000 0.45850  0.35920  0.33070  Biso   1.000  H
  C95      1.0000 0.35574  0.07621  0.15170  Biso   1.000  C
  H73      1.0000 0.33460  0.11400  0.13480  Biso   1.000  H
  C96      1.0000 0.31027  0.02714  0.12590  Biso   1.000  C
  H74      1.0000 0.25890  0.03160  0.09210  Biso   1.000  H
  C97      1.0000 0.34090  0.97262  0.14990  Biso   1.000  C
  H75      1.0000 0.31070  0.93900  0.13280  Biso   1.000  H
  C98      1.0000 0.41660  0.96675  0.19970  Biso   1.000  C
  H76      1.0000 0.43840  0.92920  0.21710  Biso   1.000  H
  C99      1.0000 0.45977  0.01718  0.22360  Biso   1.000  C
  C100     1.0000 0.39649  0.23670  0.21410  Biso   1.000  C
  C101     1.0000 0.32676  0.26325  0.13450  Biso   1.000  C
  H77      1.0000 0.31160  0.29950  0.15360  Biso   1.000  H
  C102     1.0000 0.28501  0.23802  0.03780  Biso   1.000  C
  H78      1.0000 0.30160  0.20280  0.01710  Biso   1.000  H
  C103     1.0000 0.43080  0.12700  0.44120  Biso   1.000  C
  C104     1.0000 0.43517  0.06179  0.45370  Biso   1.000  C
  H79      1.0000 0.39100  0.04060  0.43320  Biso   1.000  H
  C105     1.0000 0.49797  0.03170  0.49220  Biso   1.000  C
  H80      1.0000 0.54210  0.05270  0.51020  Biso   1.000  H
  Cu6      1.0000 0.00444  0.73885  0.45202  Biso   1.000  Cu
  O21      1.0000 0.92231  0.75761  0.31148  Biso   1.000  O
  O22      1.0000 0.92329  0.69520  0.17650  Biso   1.000  O
  O23      1.0000 0.98781  0.65322  0.44001  Biso   1.000  O
  O24      1.0000 0.87281  0.65174  0.43280  Biso   1.000  O
  N16      1.0000 0.09571  0.73317  0.59210  Biso   1.000  N
  N17      1.0000 0.03437  0.82417  0.46741  Biso   1.000  N
  N18      1.0000 0.92902  0.57113  0.20007  Biso   1.000  N
  C106     1.0000 0.12500  0.68375  0.64910  Biso   1.000  C
  H81      1.0000 0.10320  0.64730  0.61980  Biso   1.000  H
  C107     1.0000 0.18619  0.68480  0.74960  Biso   1.000  C
  H82      1.0000 0.20630  0.64940  0.78710  Biso   1.000  H
  C108     1.0000 0.21700  0.73710  0.79370  Biso   1.000  C
  H83      1.0000 0.25810  0.73860  0.86290  Biso   1.000  H
  C109     1.0000 0.18750  0.78830  0.73620  Biso   1.000  C
  H84      1.0000 0.20830  0.82500  0.76600  Biso   1.000  H
  C110     1.0000 0.12714  0.78549  0.63440  Biso   1.000  C
  C111     1.0000 0.09268  0.83684  0.56370  Biso   1.000  C
  C112     1.0000 0.11650  0.89425  0.59030  Biso   1.000  C
  H85      1.0000 0.15700  0.90260  0.65790  Biso   1.000  H
  C113     1.0000 0.08080  0.93916  0.51740  Biso   1.000  C
  H86      1.0000 0.09670  0.97840  0.53430  Biso   1.000  H
  C114     1.0000 0.02160  0.92601  0.41970  Biso   1.000  C
  H87      1.0000 0.99640  0.95600  0.36870  Biso   1.000  H
  C115     1.0000 0.99944  0.86816  0.39730  Biso   1.000  C
  H88      1.0000 0.95850  0.85920  0.33070  Biso   1.000  H
  C116     1.0000 0.85574  0.57621  0.15170  Biso   1.000  C
  H89      1.0000 0.83460  0.61400  0.13480  Biso   1.000  H
  C117     1.0000 0.81027  0.52714  0.12590  Biso   1.000  C
  H90      1.0000 0.75890  0.53160  0.09210  Biso   1.000  H
  C118     1.0000 0.84090  0.47262  0.14990  Biso   1.000  C
  H91      1.0000 0.81070  0.43900  0.13280  Biso   1.000  H
  C119     1.0000 0.91660  0.46675  0.19970  Biso   1.000  C
  H92      1.0000 0.93840  0.42920  0.21710  Biso   1.000  H
  C120     1.0000 0.95977  0.51718  0.22360  Biso   1.000  C
  C121     1.0000 0.89649  0.73670  0.21410  Biso   1.000  C
  C122     1.0000 0.82676  0.76325  0.13450  Biso   1.000  C
  H93      1.0000 0.81160  0.79950  0.15360  Biso   1.000  H
  C123     1.0000 0.78501  0.73802  0.03780  Biso   1.000  C
  H94      1.0000 0.80160  0.70280  0.01710  Biso   1.000  H
  C124     1.0000 0.93080  0.62700  0.44120  Biso   1.000  C
  C125     1.0000 0.93517  0.56179  0.45370  Biso   1.000  C
  H95      1.0000 0.89100  0.54060  0.43320  Biso   1.000  H
  C126     1.0000 0.99797  0.53170  0.49220  Biso   1.000  C
  H96      1.0000 0.04210  0.55270  0.51020  Biso   1.000  H
  Cu7      1.0000 0.49556  0.23885  0.04798  Biso   1.000  Cu
  O25      1.0000 0.57769  0.25761  0.18852  Biso   1.000  O
  O26      1.0000 0.57671  0.19520  0.32350  Biso   1.000  O
  O27      1.0000 0.51219  0.15322  0.05999  Biso   1.000  O
  O28      1.0000 0.62719  0.15174  0.06720  Biso   1.000  O
  N19      1.0000 0.40429  0.23317  0.90790  Biso   1.000  N
  N20      1.0000 0.46563  0.32417  0.03259  Biso   1.000  N
  N21      1.0000 0.57098  0.07113  0.29993  Biso   1.000  N
  C127     1.0000 0.37500  0.18375  0.85090  Biso   1.000  C
  H97      1.0000 0.39680  0.14730  0.88020  Biso   1.000  H
  C128     1.0000 0.31381  0.18480  0.75040  Biso   1.000  C
  H98      1.0000 0.29370  0.14940  0.71290  Biso   1.000  H
  C129     1.0000 0.28300  0.23710  0.70630  Biso   1.000  C
  H99      1.0000 0.24190  0.23860  0.63710  Biso   1.000  H
  C130     1.0000 0.31250  0.28830  0.76380  Biso   1.000  C
  H100     1.0000 0.29170  0.32500  0.73400  Biso   1.000  H
  C131     1.0000 0.37286  0.28549  0.86560  Biso   1.000  C
  C132     1.0000 0.40732  0.33684  0.93630  Biso   1.000  C
  C133     1.0000 0.38350  0.39425  0.90970  Biso   1.000  C
  H101     1.0000 0.34300  0.40260  0.84210  Biso   1.000  H
  C134     1.0000 0.41920  0.43916  0.98260  Biso   1.000  C
  H102     1.0000 0.40330  0.47840  0.96570  Biso   1.000  H
  C135     1.0000 0.47840  0.42601  0.08030  Biso   1.000  C
  H103     1.0000 0.50360  0.45600  0.13130  Biso   1.000  H
  C136     1.0000 0.50056  0.36816  0.10270  Biso   1.000  C
  H104     1.0000 0.54150  0.35920  0.16930  Biso   1.000  H
  C137     1.0000 0.64426  0.07621  0.34830  Biso   1.000  C
  H105     1.0000 0.66540  0.11400  0.36520  Biso   1.000  H
  C138     1.0000 0.68973  0.02714  0.37410  Biso   1.000  C
  H106     1.0000 0.74110  0.03160  0.40790  Biso   1.000  H
  C139     1.0000 0.65910  0.97262  0.35010  Biso   1.000  C
  H107     1.0000 0.68930  0.93900  0.36720  Biso   1.000  H
  C140     1.0000 0.58340  0.96675  0.30030  Biso   1.000  C
  H108     1.0000 0.56160  0.92920  0.28290  Biso   1.000  H
  C141     1.0000 0.54023  0.01718  0.27640  Biso   1.000  C
  C142     1.0000 0.60351  0.23670  0.28590  Biso   1.000  C
  C143     1.0000 0.67324  0.26325  0.36550  Biso   1.000  C
  H109     1.0000 0.68840  0.29950  0.34640  Biso   1.000  H
  C144     1.0000 0.71499  0.23802  0.46220  Biso   1.000  C
  H110     1.0000 0.69840  0.20280  0.48290  Biso   1.000  H
  C145     1.0000 0.56920  0.12700  0.05880  Biso   1.000  C
  C146     1.0000 0.56483  0.06179  0.04630  Biso   1.000  C
  H111     1.0000 0.60900  0.04060  0.06680  Biso   1.000  H
  C147     1.0000 0.50203  0.03170  0.00780  Biso   1.000  C
  H112     1.0000 0.45790  0.05270  0.98980  Biso   1.000  H
  Cu8      1.0000 0.99556  0.73885  0.04798  Biso   1.000  Cu
  O29      1.0000 0.07769  0.75761  0.18852  Biso   1.000  O
  O30      1.0000 0.07671  0.69520  0.32350  Biso   1.000  O
  O31      1.0000 0.01219  0.65322  0.05999  Biso   1.000  O
  O32      1.0000 0.12719  0.65174  0.06720  Biso   1.000  O
  N22      1.0000 0.90429  0.73317  0.90790  Biso   1.000  N
  N23      1.0000 0.96563  0.82417  0.03259  Biso   1.000  N
  N24      1.0000 0.07098  0.57113  0.29993  Biso   1.000  N
  C148     1.0000 0.87500  0.68375  0.85090  Biso   1.000  C
  H113     1.0000 0.89680  0.64730  0.88020  Biso   1.000  H
  C149     1.0000 0.81381  0.68480  0.75040  Biso   1.000  C
  H114     1.0000 0.79370  0.64940  0.71290  Biso   1.000  H
  C150     1.0000 0.78300  0.73710  0.70630  Biso   1.000  C
  H115     1.0000 0.74190  0.73860  0.63710  Biso   1.000  H
  C151     1.0000 0.81250  0.78830  0.76380  Biso   1.000  C
  H116     1.0000 0.79170  0.82500  0.73400  Biso   1.000  H
  C152     1.0000 0.87286  0.78549  0.86560  Biso   1.000  C
  C153     1.0000 0.90732  0.83684  0.93630  Biso   1.000  C
  C154     1.0000 0.88350  0.89425  0.90970  Biso   1.000  C
  H117     1.0000 0.84300  0.90260  0.84210  Biso   1.000  H
  C155     1.0000 0.91920  0.93916  0.98260  Biso   1.000  C
  H118     1.0000 0.90330  0.97840  0.96570  Biso   1.000  H
  C156     1.0000 0.97840  0.92601  0.08030  Biso   1.000  C
  H119     1.0000 0.00360  0.95600  0.13130  Biso   1.000  H
  C157     1.0000 0.00056  0.86816  0.10270  Biso   1.000  C
  H120     1.0000 0.04150  0.85920  0.16930  Biso   1.000  H
  C158     1.0000 0.14426  0.57621  0.34830  Biso   1.000  C
  H121     1.0000 0.16540  0.61400  0.36520  Biso   1.000  H
  C159     1.0000 0.18973  0.52714  0.37410  Biso   1.000  C
  H122     1.0000 0.24110  0.53160  0.40790  Biso   1.000  H
  C160     1.0000 0.15910  0.47262  0.35010  Biso   1.000  C
  H123     1.0000 0.18930  0.43900  0.36720  Biso   1.000  H
  C161     1.0000 0.08340  0.46675  0.30030  Biso   1.000  C
  H124     1.0000 0.06160  0.42920  0.28290  Biso   1.000  H
  C162     1.0000 0.04023  0.51718  0.27640  Biso   1.000  C
  C163     1.0000 0.10351  0.73670  0.28590  Biso   1.000  C
  C164     1.0000 0.17324  0.76325  0.36550  Biso   1.000  C
  H125     1.0000 0.18840  0.79950  0.34640  Biso   1.000  H
  C165     1.0000 0.21499  0.73802  0.46220  Biso   1.000  C
  H126     1.0000 0.19840  0.70280  0.48290  Biso   1.000  H
  C166     1.0000 0.06920  0.62700  0.05880  Biso   1.000  C
  C167     1.0000 0.06483  0.56179  0.04630  Biso   1.000  C
  H127     1.0000 0.10900  0.54060  0.06680  Biso   1.000  H
  C168     1.0000 0.00203  0.53170  0.00780  Biso   1.000  C
  H128     1.0000 0.95790  0.55270  0.98980  Biso   1.000  H
  Cu9      1.0000 0.50000  0.86212  0.75000  Biso   1.000  Cu
  Cu10     1.0000 0.00000  0.36212  0.75000  Biso   1.000  Cu
  Cu11     1.0000 0.50000  0.13788  0.25000  Biso   1.000  Cu
  Cu12     1.0000 0.00000  0.63788  0.25000  Biso   1.000  Cu
