data_image0
_cell_length_a       11.27
_cell_length_b       9.842
_cell_length_c       13.99
_cell_angle_alpha    90
_cell_angle_beta     93.25
_cell_angle_gamma    90

_symmetry_space_group_name_H-M    "P 1"
_symmetry_int_tables_number       1

loop_
  _symmetry_equiv_pos_as_xyz
  'x, y, z'

loop_
  _atom_site_label
  _atom_site_occupancy
  _atom_site_fract_x
  _atom_site_fract_y
  _atom_site_fract_z
  _atom_site_thermal_displace_type
  _atom_site_B_iso_or_equiv
  _atom_site_type_symbol
  Zn1      1.0000 0.74472  0.25233  0.84055  Biso   1.000  Zn
  S1       1.0000 0.77740  0.06500  0.67370  Biso   1.000  S
  C1       1.0000 0.59850  0.30280  0.00700  Biso   1.000  C
  H1       1.0000 0.62910  0.39050  0.01100  Biso   1.000  H
  C2       1.0000 0.56710  0.09790  0.96120  Biso   1.000  C
  C3       1.0000 0.56340  0.97400  0.91480  Biso   1.000  C
  H2       1.0000 0.60260  0.95700  0.85930  Biso   1.000  H
  C4       1.0000 0.49570  0.87750  0.95870  Biso   1.000  C
  C5       1.0000 0.98070  0.31830  0.93920  Biso   1.000  C
  H3       1.0000 0.97560  0.40950  0.92230  Biso   1.000  H
  C6       1.0000 0.04280  0.12590  0.00450  Biso   1.000  C
  C7       1.0000 0.10790  0.02940  0.05930  Biso   1.000  C
  H4       1.0000 0.17480  0.05090  0.09840  Biso   1.000  H
  C8       1.0000 0.93710  0.10050  0.95040  Biso   1.000  C
  C9       1.0000 0.89630  0.10350  0.69400  Biso   1.000  C
  H5       1.0000 0.90960  0.19170  0.66740  Biso   1.000  H
  H6       1.0000 0.94800  0.03870  0.66630  Biso   1.000  H
  H7       1.0000 0.91260  0.10620  0.76200  Biso   1.000  H
  C10      1.0000 0.74160  0.06280  0.57370  Biso   1.000  C
  H8       1.0000 0.75360  0.15110  0.54670  Biso   1.000  H
  H9       1.0000 0.65900  0.03900  0.56590  Biso   1.000  H
  H10      1.0000 0.78820  0.99710  0.54180  Biso   1.000  H
  N1       1.0000 0.62570  0.21750  0.93630  Biso   1.000  N
  N2       1.0000 0.89830  0.22040  0.90720  Biso   1.000  N
  N3       1.0000 0.06450  0.26870  0.99470  Biso   1.000  N
  N4       1.0000 0.47110  0.74230  0.93170  Biso   1.000  N
  O1       1.0000 0.70020  0.15010  0.72700  Biso   1.000  O
  O2       1.0000 0.76150  0.93100  0.71450  Biso   1.000  O
  Zn2      1.0000 0.75528  0.75233  0.65945  Biso   1.000  Zn
  S2       1.0000 0.72260  0.56500  0.82630  Biso   1.000  S
  C11      1.0000 0.90150  0.80280  0.49300  Biso   1.000  C
  H11      1.0000 0.87090  0.89050  0.48900  Biso   1.000  H
  C12      1.0000 0.93290  0.59790  0.53880  Biso   1.000  C
  C13      1.0000 0.93660  0.47400  0.58520  Biso   1.000  C
  H12      1.0000 0.89740  0.45700  0.64070  Biso   1.000  H
  C14      1.0000 0.00430  0.37750  0.54130  Biso   1.000  C
  C15      1.0000 0.51930  0.81830  0.56080  Biso   1.000  C
  H13      1.0000 0.52440  0.90950  0.57770  Biso   1.000  H
  C16      1.0000 0.45720  0.62590  0.49550  Biso   1.000  C
  C17      1.0000 0.39210  0.52940  0.44070  Biso   1.000  C
  H14      1.0000 0.32520  0.55090  0.40160  Biso   1.000  H
  C18      1.0000 0.56290  0.60050  0.54960  Biso   1.000  C
  C19      1.0000 0.60370  0.60350  0.80600  Biso   1.000  C
  H15      1.0000 0.59040  0.69170  0.83260  Biso   1.000  H
  H16      1.0000 0.55200  0.53870  0.83370  Biso   1.000  H
  H17      1.0000 0.58740  0.60620  0.73800  Biso   1.000  H
  C20      1.0000 0.75840  0.56280  0.92630  Biso   1.000  C
  H18      1.0000 0.74640  0.65110  0.95330  Biso   1.000  H
  H19      1.0000 0.84100  0.53900  0.93410  Biso   1.000  H
  H20      1.0000 0.71180  0.49710  0.95820  Biso   1.000  H
  N5       1.0000 0.87430  0.71750  0.56370  Biso   1.000  N
  N6       1.0000 0.60170  0.72040  0.59280  Biso   1.000  N
  N7       1.0000 0.43550  0.76870  0.50530  Biso   1.000  N
  N8       1.0000 0.02890  0.24230  0.56830  Biso   1.000  N
  O3       1.0000 0.79980  0.65010  0.77300  Biso   1.000  O
  O4       1.0000 0.73850  0.43100  0.78550  Biso   1.000  O
  Zn3      1.0000 0.25528  0.74767  0.15945  Biso   1.000  Zn
  S3       1.0000 0.22260  0.93500  0.32630  Biso   1.000  S
  C21      1.0000 0.40150  0.69720  0.99300  Biso   1.000  C
  H21      1.0000 0.37090  0.60950  0.98900  Biso   1.000  H
  C22      1.0000 0.43290  0.90210  0.03880  Biso   1.000  C
  C23      1.0000 0.43660  0.02600  0.08520  Biso   1.000  C
  H22      1.0000 0.39740  0.04300  0.14070  Biso   1.000  H
  C24      1.0000 0.50430  0.12250  0.04130  Biso   1.000  C
  C25      1.0000 0.01930  0.68170  0.06080  Biso   1.000  C
  H23      1.0000 0.02440  0.59050  0.07770  Biso   1.000  H
  C26      1.0000 0.95720  0.87410  0.99550  Biso   1.000  C
  C27      1.0000 0.89210  0.97060  0.94070  Biso   1.000  C
  H24      1.0000 0.82520  0.94910  0.90160  Biso   1.000  H
  C28      1.0000 0.06290  0.89950  0.04960  Biso   1.000  C
  C29      1.0000 0.10370  0.89650  0.30600  Biso   1.000  C
  H25      1.0000 0.09040  0.80830  0.33260  Biso   1.000  H
  H26      1.0000 0.05200  0.96130  0.33370  Biso   1.000  H
  H27      1.0000 0.08740  0.89380  0.23800  Biso   1.000  H
  C30      1.0000 0.25840  0.93720  0.42630  Biso   1.000  C
  H28      1.0000 0.24640  0.84890  0.45330  Biso   1.000  H
  H29      1.0000 0.34100  0.96100  0.43410  Biso   1.000  H
  H30      1.0000 0.21180  0.00290  0.45820  Biso   1.000  H
  N9       1.0000 0.37430  0.78250  0.06370  Biso   1.000  N
  N10      1.0000 0.10170  0.77960  0.09280  Biso   1.000  N
  N11      1.0000 0.93550  0.73130  0.00530  Biso   1.000  N
  N12      1.0000 0.52890  0.25770  0.06830  Biso   1.000  N
  O5       1.0000 0.29980  0.84990  0.27300  Biso   1.000  O
  O6       1.0000 0.23850  0.06900  0.28550  Biso   1.000  O
  Zn4      1.0000 0.24472  0.24767  0.34055  Biso   1.000  Zn
  S4       1.0000 0.27740  0.43500  0.17370  Biso   1.000  S
  C31      1.0000 0.09850  0.19720  0.50700  Biso   1.000  C
  H31      1.0000 0.12910  0.10950  0.51100  Biso   1.000  H
  C32      1.0000 0.06710  0.40210  0.46120  Biso   1.000  C
  C33      1.0000 0.06340  0.52600  0.41480  Biso   1.000  C
  H32      1.0000 0.10260  0.54300  0.35930  Biso   1.000  H
  C34      1.0000 0.99570  0.62250  0.45870  Biso   1.000  C
  C35      1.0000 0.48070  0.18170  0.43920  Biso   1.000  C
  H33      1.0000 0.47560  0.09050  0.42230  Biso   1.000  H
  C36      1.0000 0.54280  0.37410  0.50450  Biso   1.000  C
  C37      1.0000 0.60790  0.47060  0.55930  Biso   1.000  C
  H34      1.0000 0.67480  0.44910  0.59840  Biso   1.000  H
  C38      1.0000 0.43710  0.39950  0.45040  Biso   1.000  C
  C39      1.0000 0.39630  0.39650  0.19400  Biso   1.000  C
  H35      1.0000 0.40960  0.30830  0.16740  Biso   1.000  H
  H36      1.0000 0.44800  0.46130  0.16630  Biso   1.000  H
  H37      1.0000 0.41260  0.39380  0.26200  Biso   1.000  H
  C40      1.0000 0.24160  0.43720  0.07370  Biso   1.000  C
  H38      1.0000 0.25360  0.34890  0.04670  Biso   1.000  H
  H39      1.0000 0.15900  0.46100  0.06590  Biso   1.000  H
  H40      1.0000 0.28820  0.50290  0.04180  Biso   1.000  H
  N13      1.0000 0.12570  0.28250  0.43630  Biso   1.000  N
  N14      1.0000 0.39830  0.27960  0.40720  Biso   1.000  N
  N15      1.0000 0.56450  0.23130  0.49470  Biso   1.000  N
  N16      1.0000 0.97110  0.75770  0.43170  Biso   1.000  N
  O7       1.0000 0.20020  0.34990  0.22700  Biso   1.000  O
  O8       1.0000 0.26150  0.56900  0.21450  Biso   1.000  O
