data_GUPCAW_clean
_audit_creation_date              2014-07-02
_audit_creation_method            'Materials Studio'
_symmetry_space_group_name_H-M    'P1'
_symmetry_Int_Tables_number       1
_symmetry_cell_setting            triclinic
loop_
_symmetry_equiv_pos_as_xyz
  x,y,z
_cell_length_a                    20.2870
_cell_length_b                    23.0173
_cell_length_c                    23.0173
_cell_angle_alpha                 78.8015
_cell_angle_beta                  63.8520
_cell_angle_gamma                 63.8521
loop_
_atom_site_label
_atom_site_type_symbol
_atom_site_fract_x
_atom_site_fract_y
_atom_site_fract_z
_atom_site_U_iso_or_equiv
_atom_site_adp_type
_atom_site_occupancy
Cd1    Cd    0.42267   0.84417   0.62565   0.01267  Uiso   1.00
Cd2    Cd    0.73310   0.84420   0.37432   0.01267  Uiso   1.00
Cd3    Cd    0.89249   0.15583   0.37435   0.01267  Uiso   1.00
Cd4    Cd    0.95162   0.15580   0.62568   0.01267  Uiso   1.00
Cd5    Cd    0.04832   0.37435   0.84417   0.01267  Uiso   1.00
Cd6    Cd    0.10742   0.62568   0.84420   0.01267  Uiso   1.00
Cd7    Cd    0.26684   0.62565   0.15583   0.01267  Uiso   1.00
Cd8    Cd    0.57730   0.37432   0.15580   0.01267  Uiso   1.00
Cd9    Cd    0.57733   0.15583   0.37435   0.01267  Uiso   1.00
Cd10   Cd    0.26690   0.15580   0.62568   0.01267  Uiso   1.00
Cd11   Cd    0.10751   0.84417   0.62565   0.01267  Uiso   1.00
Cd12   Cd    0.04838   0.84420   0.37432   0.01267  Uiso   1.00
Cd13   Cd    0.95168   0.62565   0.15583   0.01267  Uiso   1.00
Cd14   Cd    0.89258   0.37432   0.15580   0.01267  Uiso   1.00
Cd15   Cd    0.73316   0.37435   0.84417   0.01267  Uiso   1.00
Cd16   Cd    0.42270   0.62568   0.84420   0.01267  Uiso   1.00
H1     H     0.39690   0.82800   0.49420   0.01267  Uiso   1.00
H2     H     0.48430   0.69910   0.63810   0.01267  Uiso   1.00
H3     H     0.44240   0.65680   0.68920   0.01267  Uiso   1.00
H4     H     0.52740   0.64850   0.67990   0.01267  Uiso   1.00
H5     H     0.77430   0.83030   0.50670   0.01267  Uiso   1.00
H6     H     0.26670   0.04290   0.57650   0.01267  Uiso   1.00
H7     H     0.26310   0.97690   0.60750   0.01267  Uiso   1.00
H8     H     0.33860   0.97770   0.54590   0.01267  Uiso   1.00
H9     H     0.37770   0.06240   0.70320   0.01267  Uiso   1.00
H10    H     0.44090   0.93930   0.70130   0.01267  Uiso   1.00
H11    H     0.73100   0.72370   0.48030   0.01267  Uiso   1.00
H12    H     0.61930   0.72620   0.57800   0.01267  Uiso   1.00
H13    H     0.39530   0.86200   0.77720   0.01267  Uiso   1.00
H14    H     0.39730   0.77740   0.86040   0.01267  Uiso   1.00
H15    H     0.71910   0.17200   0.50580   0.01267  Uiso   1.00
H16    H     0.82150   0.30090   0.36190   0.01267  Uiso   1.00
H17    H     0.78840   0.34320   0.31080   0.01267  Uiso   1.00
H18    H     0.85580   0.35150   0.32010   0.01267  Uiso   1.00
H19    H     0.11130   0.16970   0.49330   0.01267  Uiso   1.00
H20    H     0.88610   0.95710   0.42350   0.01267  Uiso   1.00
H21    H     0.84750   0.02310   0.39250   0.01267  Uiso   1.00
H22    H     0.86220   0.02230   0.45410   0.01267  Uiso   1.00
H23    H     0.14330   0.93760   0.29680   0.01267  Uiso   1.00
H24    H     0.08150   0.06070   0.29870   0.01267  Uiso   1.00
H25    H     0.93500   0.27630   0.51970   0.01267  Uiso   1.00
H26    H     0.92350   0.27380   0.42200   0.01267  Uiso   1.00
H27    H     0.03450   0.13800   0.22280   0.01267  Uiso   1.00
H28    H     0.03510   0.22260   0.13960   0.01267  Uiso   1.00
H29    H     0.89110   0.50580   0.82800   0.01267  Uiso   1.00
H30    H     0.12240   0.36190   0.69910   0.01267  Uiso   1.00
H31    H     0.13160   0.31080   0.65680   0.01267  Uiso   1.00
H32    H     0.20730   0.32010   0.64850   0.01267  Uiso   1.00
H33    H     0.28100   0.49330   0.83030   0.01267  Uiso   1.00
H34    H     0.84320   0.42350   0.04290   0.01267  Uiso   1.00
H35    H     0.87060   0.39250   0.97690   0.01267  Uiso   1.00
H36    H     0.88450   0.45410   0.97770   0.01267  Uiso   1.00
H37    H     0.08090   0.29680   0.06240   0.01267  Uiso   1.00
H38    H     0.14220   0.29870   0.93930   0.01267  Uiso   1.00
H39    H     0.21130   0.51970   0.72370   0.01267  Uiso   1.00
H40    H     0.19730   0.42200   0.72620   0.01267  Uiso   1.00
H41    H     0.17250   0.22280   0.86200   0.01267  Uiso   1.00
H42    H     0.25770   0.13960   0.77740   0.01267  Uiso   1.00
H43    H     0.22490   0.49420   0.17200   0.01267  Uiso   1.00
H44    H     0.18340   0.63810   0.30090   0.01267  Uiso   1.00
H45    H     0.09920   0.68920   0.34320   0.01267  Uiso   1.00
H46    H     0.17590   0.67990   0.35150   0.01267  Uiso   1.00
H47    H     0.60460   0.50670   0.16970   0.01267  Uiso   1.00
H48    H     0.30960   0.57650   0.95710   0.01267  Uiso   1.00
H49    H     0.24000   0.60750   0.02310   0.01267  Uiso   1.00
H50    H     0.31630   0.54590   0.02230   0.01267  Uiso   1.00
H51    H     0.44010   0.70320   0.93760   0.01267  Uiso   1.00
H52    H     0.38020   0.70130   0.06070   0.01267  Uiso   1.00
H53    H     0.45470   0.48030   0.27630   0.01267  Uiso   1.00
H54    H     0.34550   0.57800   0.27380   0.01267  Uiso   1.00
H55    H     0.25730   0.77720   0.13800   0.01267  Uiso   1.00
H56    H     0.17470   0.86040   0.22260   0.01267  Uiso   1.00
H57    H     0.60310   0.17200   0.50580   0.01267  Uiso   1.00
H58    H     0.51570   0.30090   0.36190   0.01267  Uiso   1.00
H59    H     0.55760   0.34320   0.31080   0.01267  Uiso   1.00
H60    H     0.47260   0.35150   0.32010   0.01267  Uiso   1.00
H61    H     0.22570   0.16970   0.49330   0.01267  Uiso   1.00
H62    H     0.73330   0.95710   0.42350   0.01267  Uiso   1.00
H63    H     0.73690   0.02310   0.39250   0.01267  Uiso   1.00
H64    H     0.66140   0.02230   0.45410   0.01267  Uiso   1.00
H65    H     0.62230   0.93760   0.29680   0.01267  Uiso   1.00
H66    H     0.55910   0.06070   0.29870   0.01267  Uiso   1.00
H67    H     0.26900   0.27630   0.51970   0.01267  Uiso   1.00
H68    H     0.38070   0.27380   0.42200   0.01267  Uiso   1.00
H69    H     0.60470   0.13800   0.22280   0.01267  Uiso   1.00
H70    H     0.60270   0.22260   0.13960   0.01267  Uiso   1.00
H71    H     0.28090   0.82800   0.49420   0.01267  Uiso   1.00
H72    H     0.17850   0.69910   0.63810   0.01267  Uiso   1.00
H73    H     0.21160   0.65680   0.68920   0.01267  Uiso   1.00
H74    H     0.14420   0.64850   0.67990   0.01267  Uiso   1.00
H75    H     0.88870   0.83030   0.50670   0.01267  Uiso   1.00
H76    H     0.11390   0.04290   0.57650   0.01267  Uiso   1.00
H77    H     0.15250   0.97690   0.60750   0.01267  Uiso   1.00
H78    H     0.13780   0.97770   0.54590   0.01267  Uiso   1.00
H79    H     0.85670   0.06240   0.70320   0.01267  Uiso   1.00
H80    H     0.91850   0.93930   0.70130   0.01267  Uiso   1.00
H81    H     0.06500   0.72370   0.48030   0.01267  Uiso   1.00
H82    H     0.07650   0.72620   0.57800   0.01267  Uiso   1.00
H83    H     0.96550   0.86200   0.77720   0.01267  Uiso   1.00
H84    H     0.96490   0.77740   0.86040   0.01267  Uiso   1.00
H85    H     0.10890   0.49420   0.17200   0.01267  Uiso   1.00
H86    H     0.87760   0.63810   0.30090   0.01267  Uiso   1.00
H87    H     0.86840   0.68920   0.34320   0.01267  Uiso   1.00
H88    H     0.79270   0.67990   0.35150   0.01267  Uiso   1.00
H89    H     0.71900   0.50670   0.16970   0.01267  Uiso   1.00
H90    H     0.15680   0.57650   0.95710   0.01267  Uiso   1.00
H91    H     0.12940   0.60750   0.02310   0.01267  Uiso   1.00
H92    H     0.11550   0.54590   0.02230   0.01267  Uiso   1.00
H93    H     0.91910   0.70320   0.93760   0.01267  Uiso   1.00
H94    H     0.85780   0.70130   0.06070   0.01267  Uiso   1.00
H95    H     0.78870   0.48030   0.27630   0.01267  Uiso   1.00
H96    H     0.80270   0.57800   0.27380   0.01267  Uiso   1.00
H97    H     0.82750   0.77720   0.13800   0.01267  Uiso   1.00
H98    H     0.74230   0.86040   0.22260   0.01267  Uiso   1.00
H99    H     0.77510   0.50580   0.82800   0.01267  Uiso   1.00
H100   H     0.81660   0.36190   0.69910   0.01267  Uiso   1.00
H101   H     0.90080   0.31080   0.65680   0.01267  Uiso   1.00
H102   H     0.82410   0.32010   0.64850   0.01267  Uiso   1.00
H103   H     0.39540   0.49330   0.83030   0.01267  Uiso   1.00
H104   H     0.69040   0.42350   0.04290   0.01267  Uiso   1.00
H105   H     0.76000   0.39250   0.97690   0.01267  Uiso   1.00
H106   H     0.68370   0.45410   0.97770   0.01267  Uiso   1.00
H107   H     0.55990   0.29680   0.06240   0.01267  Uiso   1.00
H108   H     0.61980   0.29870   0.93930   0.01267  Uiso   1.00
H109   H     0.54530   0.51970   0.72370   0.01267  Uiso   1.00
H110   H     0.65450   0.42200   0.72620   0.01267  Uiso   1.00
H111   H     0.74270   0.22280   0.86200   0.01267  Uiso   1.00
H112   H     0.82530   0.13960   0.77740   0.01267  Uiso   1.00
C1     C     0.57930   0.84430   0.49970   0.01267  Uiso   1.00
C2     C     0.35180   0.82890   0.53110   0.01267  Uiso   1.00
C3     C     0.47650   0.67900   0.67980   0.01267  Uiso   1.00
C4     C     0.43940   0.72780   0.72860   0.01267  Uiso   1.00
C5     C     0.81900   0.83020   0.46980   0.01267  Uiso   1.00
C6     C     0.29760   0.99950   0.58570   0.01267  Uiso   1.00
C7     C     0.33500   0.00080   0.62740   0.01267  Uiso   1.00
C8     C     0.37150   0.03550   0.68250   0.01267  Uiso   1.00
C9     C     0.40650   0.96610   0.68150   0.01267  Uiso   1.00
C10    C     0.67860   0.75470   0.49210   0.01267  Uiso   1.00
C11    C     0.61690   0.75570   0.54430   0.01267  Uiso   1.00
C12    C     0.40450   0.81960   0.77240   0.01267  Uiso   1.00
C13    C     0.40520   0.77240   0.81840   0.01267  Uiso   1.00
C14    C     0.92330   0.15570   0.50030   0.01267  Uiso   1.00
C15    C     0.71180   0.17110   0.46890   0.01267  Uiso   1.00
C16    C     0.83530   0.32100   0.32020   0.01267  Uiso   1.00
C17    C     0.89580   0.27220   0.27140   0.01267  Uiso   1.00
C18    C     0.11900   0.16980   0.53020   0.01267  Uiso   1.00
C19    C     0.88280   0.00050   0.41430   0.01267  Uiso   1.00
C20    C     0.96320   0.99920   0.37260   0.01267  Uiso   1.00
C21    C     0.08950   0.96450   0.31750   0.01267  Uiso   1.00
C22    C     0.05410   0.03390   0.31850   0.01267  Uiso   1.00
C23    C     0.92540   0.24530   0.50790   0.01267  Uiso   1.00
C24    C     0.91690   0.24430   0.45570   0.01267  Uiso   1.00
C25    C     0.99650   0.18040   0.22760   0.01267  Uiso   1.00
C26    C     0.99600   0.22760   0.18160   0.01267  Uiso   1.00
C27    C     0.07900   0.50030   0.84430   0.01267  Uiso   1.00
C28    C     0.88290   0.46890   0.82890   0.01267  Uiso   1.00
C29    C     0.15630   0.32020   0.67900   0.01267  Uiso   1.00
C30    C     0.16800   0.27140   0.72780   0.01267  Uiso   1.00
C31    C     0.28880   0.53020   0.83020   0.01267  Uiso   1.00
C32    C     0.88330   0.41430   0.99950   0.01267  Uiso   1.00
C33    C     0.96240   0.37260   0.00080   0.01267  Uiso   1.00
C34    C     0.05400   0.31750   0.03550   0.01267  Uiso   1.00
C35    C     0.08800   0.31850   0.96610   0.01267  Uiso   1.00
C36    C     0.17070   0.50790   0.75470   0.01267  Uiso   1.00
C37    C     0.16120   0.45570   0.75570   0.01267  Uiso   1.00
C38    C     0.17690   0.22760   0.81960   0.01267  Uiso   1.00
C39    C     0.22360   0.18160   0.77240   0.01267  Uiso   1.00
C40    C     0.42360   0.49970   0.15570   0.01267  Uiso   1.00
C41    C     0.18070   0.53110   0.17110   0.01267  Uiso   1.00
C42    C     0.15550   0.67980   0.32100   0.01267  Uiso   1.00
C43    C     0.16720   0.72860   0.27220   0.01267  Uiso   1.00
C44    C     0.64920   0.46980   0.16980   0.01267  Uiso   1.00
C45    C     0.29710   0.58570   0.00050   0.01267  Uiso   1.00
C46    C     0.33580   0.62740   0.99920   0.01267  Uiso   1.00
C47    C     0.40700   0.68250   0.96450   0.01267  Uiso   1.00
C48    C     0.37260   0.68150   0.03390   0.01267  Uiso   1.00
C49    C     0.43330   0.49210   0.24530   0.01267  Uiso   1.00
C50    C     0.37260   0.54430   0.24430   0.01267  Uiso   1.00
C51    C     0.22410   0.77240   0.18040   0.01267  Uiso   1.00
C52    C     0.17760   0.81840   0.22760   0.01267  Uiso   1.00
C53    C     0.42070   0.15570   0.50030   0.01267  Uiso   1.00
C54    C     0.64820   0.17110   0.46890   0.01267  Uiso   1.00
C55    C     0.52350   0.32100   0.32020   0.01267  Uiso   1.00
C56    C     0.56060   0.27220   0.27140   0.01267  Uiso   1.00
C57    C     0.18100   0.16980   0.53020   0.01267  Uiso   1.00
C58    C     0.70240   0.00050   0.41430   0.01267  Uiso   1.00
C59    C     0.66500   0.99920   0.37260   0.01267  Uiso   1.00
C60    C     0.62850   0.96450   0.31750   0.01267  Uiso   1.00
C61    C     0.59350   0.03390   0.31850   0.01267  Uiso   1.00
C62    C     0.32140   0.24530   0.50790   0.01267  Uiso   1.00
C63    C     0.38310   0.24430   0.45570   0.01267  Uiso   1.00
C64    C     0.59550   0.18040   0.22760   0.01267  Uiso   1.00
C65    C     0.59480   0.22760   0.18160   0.01267  Uiso   1.00
C66    C     0.07670   0.84430   0.49970   0.01267  Uiso   1.00
C67    C     0.28820   0.82890   0.53110   0.01267  Uiso   1.00
C68    C     0.16470   0.67900   0.67980   0.01267  Uiso   1.00
C69    C     0.10420   0.72780   0.72860   0.01267  Uiso   1.00
C70    C     0.88100   0.83020   0.46980   0.01267  Uiso   1.00
C71    C     0.11720   0.99950   0.58570   0.01267  Uiso   1.00
C72    C     0.03680   0.00080   0.62740   0.01267  Uiso   1.00
C73    C     0.91050   0.03550   0.68250   0.01267  Uiso   1.00
C74    C     0.94590   0.96610   0.68150   0.01267  Uiso   1.00
C75    C     0.07460   0.75470   0.49210   0.01267  Uiso   1.00
C76    C     0.08310   0.75570   0.54430   0.01267  Uiso   1.00
C77    C     0.00350   0.81960   0.77240   0.01267  Uiso   1.00
C78    C     0.00400   0.77240   0.81840   0.01267  Uiso   1.00
C79    C     0.92100   0.49970   0.15570   0.01267  Uiso   1.00
C80    C     0.11710   0.53110   0.17110   0.01267  Uiso   1.00
C81    C     0.84370   0.67980   0.32100   0.01267  Uiso   1.00
C82    C     0.83200   0.72860   0.27220   0.01267  Uiso   1.00
C83    C     0.71120   0.46980   0.16980   0.01267  Uiso   1.00
C84    C     0.11670   0.58570   0.00050   0.01267  Uiso   1.00
C85    C     0.03760   0.62740   0.99920   0.01267  Uiso   1.00
C86    C     0.94600   0.68250   0.96450   0.01267  Uiso   1.00
C87    C     0.91200   0.68150   0.03390   0.01267  Uiso   1.00
C88    C     0.82930   0.49210   0.24530   0.01267  Uiso   1.00
C89    C     0.83880   0.54430   0.24430   0.01267  Uiso   1.00
C90    C     0.82310   0.77240   0.18040   0.01267  Uiso   1.00
C91    C     0.77640   0.81840   0.22760   0.01267  Uiso   1.00
C92    C     0.57640   0.50030   0.84430   0.01267  Uiso   1.00
C93    C     0.81930   0.46890   0.82890   0.01267  Uiso   1.00
C94    C     0.84450   0.32020   0.67900   0.01267  Uiso   1.00
C95    C     0.83280   0.27140   0.72780   0.01267  Uiso   1.00
C96    C     0.35080   0.53020   0.83020   0.01267  Uiso   1.00
C97    C     0.70290   0.41430   0.99950   0.01267  Uiso   1.00
C98    C     0.66420   0.37260   0.00080   0.01267  Uiso   1.00
C99    C     0.59300   0.31750   0.03550   0.01267  Uiso   1.00
C100   C     0.62740   0.31850   0.96610   0.01267  Uiso   1.00
C101   C     0.56670   0.50790   0.75470   0.01267  Uiso   1.00
C102   C     0.62740   0.45570   0.75570   0.01267  Uiso   1.00
C103   C     0.77590   0.22760   0.81960   0.01267  Uiso   1.00
C104   C     0.82240   0.18160   0.77240   0.01267  Uiso   1.00
C105   C     0.23140   0.83350   0.70370   0.01267  Uiso   1.00
C106   C     0.26820   0.83200   0.63160   0.01267  Uiso   1.00
C107   C     0.76860   0.16650   0.29630   0.01267  Uiso   1.00
C108   C     0.73180   0.16800   0.36840   0.01267  Uiso   1.00
C109   C     0.93510   0.29630   0.83350   0.01267  Uiso   1.00
C110   C     0.89980   0.36840   0.83200   0.01267  Uiso   1.00
C111   C     0.06490   0.70370   0.16650   0.01267  Uiso   1.00
C112   C     0.10020   0.63160   0.16800   0.01267  Uiso   1.00
C113   C     0.93480   0.83220   0.29820   0.01267  Uiso   1.00
C114   C     0.89850   0.83370   0.36930   0.01267  Uiso   1.00
C115   C     0.06520   0.16780   0.70180   0.01267  Uiso   1.00
C116   C     0.10150   0.16630   0.63070   0.01267  Uiso   1.00
C117   C     0.23300   0.70180   0.83220   0.01267  Uiso   1.00
C118   C     0.26780   0.63070   0.83370   0.01267  Uiso   1.00
C119   C     0.76700   0.29820   0.16780   0.01267  Uiso   1.00
C120   C     0.73220   0.36930   0.16630   0.01267  Uiso   1.00
N1     N     0.65000   0.81090   0.45590   0.01267  Uiso   1.00
N2     N     0.53960   0.81110   0.54390   0.01267  Uiso   1.00
N3     N     0.34320   0.83060   0.59400   0.01267  Uiso   1.00
N4     N     0.42010   0.79220   0.71720   0.01267  Uiso   1.00
N5     N     0.41930   0.71640   0.79360   0.01267  Uiso   1.00
N6     N     0.82720   0.83000   0.40600   0.01267  Uiso   1.00
N7     N     0.32780   0.05330   0.64710   0.01267  Uiso   1.00
N8     N     0.38120   0.94660   0.64720   0.01267  Uiso   1.00
N9     N     0.91680   0.18910   0.54410   0.01267  Uiso   1.00
N10    N     0.89460   0.18890   0.45610   0.01267  Uiso   1.00
N11    N     0.76780   0.16940   0.40600   0.01267  Uiso   1.00
N12    N     0.92950   0.20780   0.28280   0.01267  Uiso   1.00
N13    N     0.92930   0.28360   0.20640   0.01267  Uiso   1.00
N14    N     0.06320   0.17000   0.59400   0.01267  Uiso   1.00
N15    N     0.02820   0.94670   0.35290   0.01267  Uiso   1.00
N16    N     0.97500   0.05340   0.35280   0.01267  Uiso   1.00
N17    N     0.10590   0.54410   0.81090   0.01267  Uiso   1.00
N18    N     0.08350   0.45610   0.81110   0.01267  Uiso   1.00
N19    N     0.93720   0.40600   0.83060   0.01267  Uiso   1.00
N20    N     0.13730   0.28280   0.79220   0.01267  Uiso   1.00
N21    N     0.21290   0.20640   0.71640   0.01267  Uiso   1.00
N22    N     0.23320   0.59400   0.83000   0.01267  Uiso   1.00
N23    N     0.97490   0.35290   0.05330   0.01267  Uiso   1.00
N24    N     0.02840   0.35280   0.94660   0.01267  Uiso   1.00
N25    N     0.46090   0.45590   0.18910   0.01267  Uiso   1.00
N26    N     0.35070   0.54390   0.18890   0.01267  Uiso   1.00
N27    N     0.17380   0.59400   0.16940   0.01267  Uiso   1.00
N28    N     0.21230   0.71720   0.20780   0.01267  Uiso   1.00
N29    N     0.13570   0.79360   0.28360   0.01267  Uiso   1.00
N30    N     0.65720   0.40600   0.17000   0.01267  Uiso   1.00
N31    N     0.38110   0.64710   0.94670   0.01267  Uiso   1.00
N32    N     0.32780   0.64720   0.05340   0.01267  Uiso   1.00
N33    N     0.35000   0.18910   0.54410   0.01267  Uiso   1.00
N34    N     0.46040   0.18890   0.45610   0.01267  Uiso   1.00
N35    N     0.65680   0.16940   0.40600   0.01267  Uiso   1.00
N36    N     0.57990   0.20780   0.28280   0.01267  Uiso   1.00
N37    N     0.58070   0.28360   0.20640   0.01267  Uiso   1.00
N38    N     0.17280   0.17000   0.59400   0.01267  Uiso   1.00
N39    N     0.67220   0.94670   0.35290   0.01267  Uiso   1.00
N40    N     0.61880   0.05340   0.35280   0.01267  Uiso   1.00
N41    N     0.08320   0.81090   0.45590   0.01267  Uiso   1.00
N42    N     0.10540   0.81110   0.54390   0.01267  Uiso   1.00
N43    N     0.23220   0.83060   0.59400   0.01267  Uiso   1.00
N44    N     0.07050   0.79220   0.71720   0.01267  Uiso   1.00
N45    N     0.07070   0.71640   0.79360   0.01267  Uiso   1.00
N46    N     0.93680   0.83000   0.40600   0.01267  Uiso   1.00
N47    N     0.97180   0.05330   0.64710   0.01267  Uiso   1.00
N48    N     0.02500   0.94660   0.64720   0.01267  Uiso   1.00
N49    N     0.89410   0.45590   0.18910   0.01267  Uiso   1.00
N50    N     0.91650   0.54390   0.18890   0.01267  Uiso   1.00
N51    N     0.06280   0.59400   0.16940   0.01267  Uiso   1.00
N52    N     0.86270   0.71720   0.20780   0.01267  Uiso   1.00
N53    N     0.78710   0.79360   0.28360   0.01267  Uiso   1.00
N54    N     0.76680   0.40600   0.17000   0.01267  Uiso   1.00
N55    N     0.02510   0.64710   0.94670   0.01267  Uiso   1.00
N56    N     0.97160   0.64720   0.05340   0.01267  Uiso   1.00
N57    N     0.53910   0.54410   0.81090   0.01267  Uiso   1.00
N58    N     0.64930   0.45610   0.81110   0.01267  Uiso   1.00
N59    N     0.82620   0.40600   0.83060   0.01267  Uiso   1.00
N60    N     0.78770   0.28280   0.79220   0.01267  Uiso   1.00
N61    N     0.86430   0.20640   0.71640   0.01267  Uiso   1.00
N62    N     0.34280   0.59400   0.83000   0.01267  Uiso   1.00
N63    N     0.61890   0.35290   0.05330   0.01267  Uiso   1.00
N64    N     0.67220   0.35280   0.94660   0.01267  Uiso   1.00
