data_GUPJEG01_clean
_audit_creation_date              2014-07-02
_audit_creation_method            'Materials Studio'
_symmetry_space_group_name_H-M    'P1'
_symmetry_Int_Tables_number       1
_symmetry_cell_setting            triclinic
loop_
_symmetry_equiv_pos_as_xyz
  x,y,z
_cell_length_a                    9.2494
_cell_length_b                    9.4212
_cell_length_c                    9.4212
_cell_angle_alpha                 101.2740
_cell_angle_beta                  112.8700
_cell_angle_gamma                 112.8700
loop_
_atom_site_label
_atom_site_type_symbol
_atom_site_fract_x
_atom_site_fract_y
_atom_site_fract_z
_atom_site_U_iso_or_equiv
_atom_site_adp_type
_atom_site_occupancy
Mn1    Mn    0.75000   0.03480   0.96520   0.01267  Uiso   1.00
Mn2    Mn    0.25000   0.96520   0.03480   0.01267  Uiso   1.00
H1     H     0.67760   0.26400   0.50920   0.01267  Uiso   1.00
H2     H     0.74890   0.86880   0.39060   0.01267  Uiso   1.00
H3     H     0.78590   0.85670   0.64650   0.01267  Uiso   1.00
H4     H     0.82240   0.49080   0.73600   0.01267  Uiso   1.00
H5     H     0.75110   0.60940   0.13120   0.01267  Uiso   1.00
H6     H     0.71410   0.35350   0.14330   0.01267  Uiso   1.00
H7     H     0.32240   0.73600   0.49080   0.01267  Uiso   1.00
H8     H     0.25110   0.13120   0.60940   0.01267  Uiso   1.00
H9     H     0.21410   0.14330   0.35350   0.01267  Uiso   1.00
H10    H     0.17760   0.50920   0.26400   0.01267  Uiso   1.00
H11    H     0.24890   0.39060   0.86880   0.01267  Uiso   1.00
H12    H     0.28590   0.64650   0.85670   0.01267  Uiso   1.00
C1     C     0.74320   0.17718   0.69262   0.01267  Uiso   1.00
C2     C     0.70430   0.18204   0.53676   0.01267  Uiso   1.00
C3     C     0.70480   0.06586   0.42094   0.01267  Uiso   1.00
C4     C     0.74160   0.94634   0.46466   0.01267  Uiso   1.00
C5     C     0.76760   0.94254   0.61926   0.01267  Uiso   1.00
C6     C     0.66950   0.07815   0.25505   0.01267  Uiso   1.00
C7     C     0.75680   0.30738   0.82282   0.01267  Uiso   1.00
C8     C     0.79570   0.46324   0.81796   0.01267  Uiso   1.00
C9     C     0.79520   0.57906   0.93414   0.01267  Uiso   1.00
C10    C     0.75840   0.53534   0.05366   0.01267  Uiso   1.00
C11    C     0.73240   0.38074   0.05746   0.01267  Uiso   1.00
C12    C     0.83050   0.74495   0.92185   0.01267  Uiso   1.00
C13    C     0.25680   0.82282   0.30738   0.01267  Uiso   1.00
C14    C     0.29570   0.81796   0.46324   0.01267  Uiso   1.00
C15    C     0.29520   0.93414   0.57906   0.01267  Uiso   1.00
C16    C     0.25840   0.05366   0.53534   0.01267  Uiso   1.00
C17    C     0.23240   0.05746   0.38074   0.01267  Uiso   1.00
C18    C     0.33050   0.92185   0.74495   0.01267  Uiso   1.00
C19    C     0.24320   0.69262   0.17718   0.01267  Uiso   1.00
C20    C     0.20430   0.53676   0.18204   0.01267  Uiso   1.00
C21    C     0.20480   0.42094   0.06586   0.01267  Uiso   1.00
C22    C     0.24160   0.46466   0.94634   0.01267  Uiso   1.00
C23    C     0.26760   0.61926   0.94254   0.01267  Uiso   1.00
C24    C     0.16950   0.25505   0.07815   0.01267  Uiso   1.00
N1     N     0.76780   0.05563   0.73223   0.01267  Uiso   1.00
N2     N     0.73220   0.26777   0.94437   0.01267  Uiso   1.00
N3     N     0.23220   0.94437   0.26777   0.01267  Uiso   1.00
N4     N     0.26780   0.73223   0.05563   0.01267  Uiso   1.00
O1     O     0.77440   0.06558   0.20592   0.01267  Uiso   1.00
O2     O     0.54590   0.10812   0.18310   0.01267  Uiso   1.00
O3     O     0.72560   0.79408   0.93442   0.01267  Uiso   1.00
O4     O     0.95410   0.81690   0.89188   0.01267  Uiso   1.00
O5     O     0.22560   0.93442   0.79408   0.01267  Uiso   1.00
O6     O     0.45410   0.89188   0.81690   0.01267  Uiso   1.00
O7     O     0.27440   0.20592   0.06558   0.01267  Uiso   1.00
O8     O     0.04590   0.18310   0.10812   0.01267  Uiso   1.00
