data_GUPJEG_clean
_audit_creation_date              2014-07-02
_audit_creation_method            'Materials Studio'
_symmetry_space_group_name_H-M    'P1'
_symmetry_Int_Tables_number       1
_symmetry_cell_setting            triclinic
loop_
_symmetry_equiv_pos_as_xyz
  x,y,z
_cell_length_a                    9.2470
_cell_length_b                    9.4464
_cell_length_c                    9.4464
_cell_angle_alpha                 101.4570
_cell_angle_beta                  112.6100
_cell_angle_gamma                 112.6100
loop_
_atom_site_label
_atom_site_type_symbol
_atom_site_fract_x
_atom_site_fract_y
_atom_site_fract_z
_atom_site_U_iso_or_equiv
_atom_site_adp_type
_atom_site_occupancy
Mn1    Mn    0.75000   0.03461   0.96539   0.01267  Uiso   1.00
Mn2    Mn    0.25000   0.96539   0.03461   0.01267  Uiso   1.00
H1     H     0.67690   0.26350   0.50910   0.01267  Uiso   1.00
H2     H     0.78630   0.85790   0.64570   0.01267  Uiso   1.00
H3     H     0.74730   0.86780   0.39100   0.01267  Uiso   1.00
H4     H     0.82310   0.49090   0.73650   0.01267  Uiso   1.00
H5     H     0.71370   0.35430   0.14210   0.01267  Uiso   1.00
H6     H     0.75270   0.60900   0.13220   0.01267  Uiso   1.00
H7     H     0.32310   0.73650   0.49090   0.01267  Uiso   1.00
H8     H     0.21370   0.14210   0.35430   0.01267  Uiso   1.00
H9     H     0.25270   0.13220   0.60900   0.01267  Uiso   1.00
H10    H     0.17690   0.50910   0.26350   0.01267  Uiso   1.00
H11    H     0.28630   0.64570   0.85790   0.01267  Uiso   1.00
H12    H     0.24730   0.39100   0.86780   0.01267  Uiso   1.00
C1     C     0.66850   0.07801   0.25499   0.01267  Uiso   1.00
C2     C     0.70540   0.06600   0.42140   0.01267  Uiso   1.00
C3     C     0.70420   0.18184   0.53656   0.01267  Uiso   1.00
C4     C     0.76760   0.94350   0.61890   0.01267  Uiso   1.00
C5     C     0.74320   0.17711   0.69249   0.01267  Uiso   1.00
C6     C     0.74110   0.94640   0.46520   0.01267  Uiso   1.00
C7     C     0.83150   0.74501   0.92199   0.01267  Uiso   1.00
C8     C     0.79460   0.57860   0.93400   0.01267  Uiso   1.00
C9     C     0.79580   0.46344   0.81816   0.01267  Uiso   1.00
C10    C     0.73240   0.38110   0.05650   0.01267  Uiso   1.00
C11    C     0.75680   0.30751   0.82289   0.01267  Uiso   1.00
C12    C     0.75890   0.53480   0.05360   0.01267  Uiso   1.00
C13    C     0.33150   0.92199   0.74501   0.01267  Uiso   1.00
C14    C     0.29460   0.93400   0.57860   0.01267  Uiso   1.00
C15    C     0.29580   0.81816   0.46344   0.01267  Uiso   1.00
C16    C     0.23240   0.05650   0.38110   0.01267  Uiso   1.00
C17    C     0.25680   0.82289   0.30751   0.01267  Uiso   1.00
C18    C     0.25890   0.05360   0.53480   0.01267  Uiso   1.00
C19    C     0.16850   0.25499   0.07801   0.01267  Uiso   1.00
C20    C     0.20540   0.42140   0.06600   0.01267  Uiso   1.00
C21    C     0.20420   0.53656   0.18184   0.01267  Uiso   1.00
C22    C     0.26760   0.61890   0.94350   0.01267  Uiso   1.00
C23    C     0.24320   0.69249   0.17711   0.01267  Uiso   1.00
C24    C     0.24110   0.46520   0.94640   0.01267  Uiso   1.00
N1     N     0.76820   0.05569   0.73231   0.01267  Uiso   1.00
N2     N     0.73180   0.26769   0.94431   0.01267  Uiso   1.00
N3     N     0.23180   0.94431   0.26769   0.01267  Uiso   1.00
N4     N     0.26820   0.73231   0.05569   0.01267  Uiso   1.00
O1     O     0.77320   0.06511   0.20549   0.01267  Uiso   1.00
O2     O     0.54600   0.10783   0.18337   0.01267  Uiso   1.00
O3     O     0.72680   0.79451   0.93489   0.01267  Uiso   1.00
O4     O     0.95400   0.81663   0.89217   0.01267  Uiso   1.00
O5     O     0.22680   0.93489   0.79451   0.01267  Uiso   1.00
O6     O     0.45400   0.89217   0.81663   0.01267  Uiso   1.00
O7     O     0.27320   0.20549   0.06511   0.01267  Uiso   1.00
O8     O     0.04600   0.18337   0.10783   0.01267  Uiso   1.00
