data_image0
_cell_length_a       8.6061
_cell_length_b       9.3656
_cell_length_c       13.016
_cell_angle_alpha    90
_cell_angle_beta     105.803
_cell_angle_gamma    90

_symmetry_space_group_name_H-M    "P 1"
_symmetry_int_tables_number       1

loop_
  _symmetry_equiv_pos_as_xyz
  'x, y, z'

loop_
  _atom_site_label
  _atom_site_occupancy
  _atom_site_fract_x
  _atom_site_fract_y
  _atom_site_fract_z
  _atom_site_thermal_displace_type
  _atom_site_B_iso_or_equiv
  _atom_site_type_symbol
  Cd1      1.0000 0.24515  0.25160  0.99082  Biso   1.000  Cd
  N1       1.0000 0.16680  0.19740  0.80690  Biso   1.000  N
  N2       1.0000 0.23240  0.19470  0.73929  Biso   1.000  N
  N3       1.0000 0.29690  0.18580  0.67150  Biso   1.000  N
  N4       1.0000 0.01220  0.12470  0.99630  Biso   1.000  N
  N5       1.0000 0.46820  0.37970  0.97960  Biso   1.000  N
  N6       1.0000 0.39460  0.04430  0.03230  Biso   1.000  N
  N7       1.0000 0.07190  0.44860  0.94390  Biso   1.000  N
  Cd2      1.0000 0.75485  0.75160  0.50918  Biso   1.000  Cd
  N8       1.0000 0.83320  0.69740  0.69310  Biso   1.000  N
  N9       1.0000 0.76760  0.69470  0.76071  Biso   1.000  N
  N10      1.0000 0.70310  0.68580  0.82850  Biso   1.000  N
  N11      1.0000 0.98780  0.62470  0.50370  Biso   1.000  N
  N12      1.0000 0.53180  0.87970  0.52040  Biso   1.000  N
  N13      1.0000 0.60540  0.54430  0.46770  Biso   1.000  N
  N14      1.0000 0.92810  0.94860  0.55610  Biso   1.000  N
  Cd3      1.0000 0.75485  0.74840  0.00918  Biso   1.000  Cd
  N15      1.0000 0.83320  0.80260  0.19310  Biso   1.000  N
  N16      1.0000 0.76760  0.80530  0.26071  Biso   1.000  N
  N17      1.0000 0.70310  0.81420  0.32850  Biso   1.000  N
  N18      1.0000 0.98780  0.87530  0.00370  Biso   1.000  N
  N19      1.0000 0.53180  0.62030  0.02040  Biso   1.000  N
  N20      1.0000 0.60540  0.95570  0.96770  Biso   1.000  N
  N21      1.0000 0.92810  0.55140  0.05610  Biso   1.000  N
  Cd4      1.0000 0.24515  0.24840  0.49082  Biso   1.000  Cd
  N22      1.0000 0.16680  0.30260  0.30690  Biso   1.000  N
  N23      1.0000 0.23240  0.30530  0.23929  Biso   1.000  N
  N24      1.0000 0.29690  0.31420  0.17150  Biso   1.000  N
  N25      1.0000 0.01220  0.37530  0.49630  Biso   1.000  N
  N26      1.0000 0.46820  0.12030  0.47960  Biso   1.000  N
  N27      1.0000 0.39460  0.45570  0.53230  Biso   1.000  N
  N28      1.0000 0.07190  0.05140  0.44390  Biso   1.000  N
  N29      1.0000 0.00000  0.00000  0.00000  Biso   1.000  N
  N30      1.0000 0.00000  0.50000  0.50000  Biso   1.000  N
  N31      1.0000 0.50000  0.50000  0.00000  Biso   1.000  N
  N32      1.0000 0.50000  0.00000  0.50000  Biso   1.000  N
  N33      1.0000 0.50000  0.00000  0.00000  Biso   1.000  N
  N34      1.0000 0.50000  0.50000  0.50000  Biso   1.000  N
  N35      1.0000 0.00000  0.50000  0.00000  Biso   1.000  N
  N36      1.0000 0.00000  0.00000  0.50000  Biso   1.000  N
