data_image0
_cell_length_a       9.8139
_cell_length_b       23.6796
_cell_length_c       21.3151
_cell_angle_alpha    90
_cell_angle_beta     98.069
_cell_angle_gamma    90

_symmetry_space_group_name_H-M    "P 1"
_symmetry_int_tables_number       1

loop_
  _symmetry_equiv_pos_as_xyz
  'x, y, z'

loop_
  _atom_site_label
  _atom_site_occupancy
  _atom_site_fract_x
  _atom_site_fract_y
  _atom_site_fract_z
  _atom_site_thermal_displace_type
  _atom_site_B_iso_or_equiv
  _atom_site_type_symbol
  Cu1      1.0000 0.46604  0.01485  0.89772  Biso   1.000  Cu
  O1       1.0000 0.59940  0.96492  0.94648  Biso   1.000  O
  N1       1.0000 0.67110  0.01214  0.69721  Biso   1.000  N
  C1       1.0000 0.61770  0.96440  0.67000  Biso   1.000  C
  H1       1.0000 0.57760  0.93880  0.69490  Biso   1.000  H
  O2       1.0000 0.31270  0.96657  0.91142  Biso   1.000  O
  H2       1.0000 0.31560  0.93340  0.92700  Biso   1.000  H
  H3       1.0000 0.36240  0.96520  0.88190  Biso   1.000  H
  Cu2      1.0000 0.62304  0.13650  0.91205  Biso   1.000  Cu
  O3       1.0000 0.47510  0.90335  0.99447  Biso   1.000  O
  N2       1.0000 0.87810  0.71766  0.55560  Biso   1.000  N
  C2       1.0000 0.61910  0.95160  0.60730  Biso   1.000  C
  H4       1.0000 0.58090  0.91790  0.59060  Biso   1.000  H
  Cu3      1.0000 0.65442  0.03480  0.78833  Biso   1.000  Cu
  N3       1.0000 0.75310  0.00104  0.46602  Biso   1.000  N
  H5       1.0000 0.80810  0.02600  0.48480  Biso   1.000  H
  C3       1.0000 0.67750  0.98880  0.56910  Biso   1.000  C
  O4       1.0000 0.69620  0.71220  0.99250  Biso   1.000  O
  N4       1.0000 0.85720  0.89604  0.42200  Biso   1.000  N
  H6       1.0000 0.79710  0.87230  0.40470  Biso   1.000  H
  C4       1.0000 0.73100  0.03830  0.59650  Biso   1.000  C
  H7       1.0000 0.76930  0.06510  0.57230  Biso   1.000  H
  O5       1.0000 0.91130  0.70552  0.02650  Biso   1.000  O
  O6       1.0000 0.19850  0.86812  0.03859  Biso   1.000  O
  N5       1.0000 0.80810  0.73297  0.00880  Biso   1.000  N
  C5       1.0000 0.72740  0.04770  0.65960  Biso   1.000  C
  H8       1.0000 0.76650  0.08080  0.67740  Biso   1.000  H
  O7       1.0000 0.11430  0.95427  0.04956  Biso   1.000  O
  N6       1.0000 0.10430  0.30656  0.82810  Biso   1.000  N
  C6       1.0000 0.66870  0.97380  0.49980  Biso   1.000  C
  O8       1.0000 0.32590  0.06901  0.86252  Biso   1.000  O
  C7       1.0000 0.75600  0.99030  0.39850  Biso   1.000  C
  H9       1.0000 0.66850  0.97290  0.38070  Biso   1.000  H
  O9       1.0000 0.44200  0.15110  0.86674  Biso   1.000  O
  C8       1.0000 0.77220  0.04560  0.36360  Biso   1.000  C
  H10      1.0000 0.69450  0.07000  0.36770  Biso   1.000  H
  H11      1.0000 0.85520  0.06460  0.38280  Biso   1.000  H
  C9       1.0000 0.78030  0.03540  0.29360  Biso   1.000  C
  H12      1.0000 0.69390  0.01970  0.27340  Biso   1.000  H
  H13      1.0000 0.79490  0.07110  0.27320  Biso   1.000  H
  O10      1.0000 0.21960  0.32679  0.83090  Biso   1.000  O
  O11      1.0000 0.99980  0.33446  0.82390  Biso   1.000  O
  C10      1.0000 0.89670  0.99520  0.28520  Biso   1.000  C
  H14      1.0000 0.98390  0.01240  0.30190  Biso   1.000  H
  H15      1.0000 0.89710  0.98810  0.24040  Biso   1.000  H
  O12      1.0000 0.71280  0.16408  0.81275  Biso   1.000  O
  C11      1.0000 0.88050  0.93940  0.31930  Biso   1.000  C
  H16      1.0000 0.79730  0.92050  0.30000  Biso   1.000  H
  H17      1.0000 0.95810  0.91500  0.31500  Biso   1.000  H
  O13      1.0000 0.81450  0.08303  0.79305  Biso   1.000  O
  C12      1.0000 0.87290  0.94958  0.38940  Biso   1.000  C
  H18      1.0000 0.95980  0.96680  0.40830  Biso   1.000  H
  C13      1.0000 0.93140  0.88240  0.47690  Biso   1.000  C
  C14      1.0000 0.90190  0.82547  0.50480  Biso   1.000  C
  C15      1.0000 0.94770  0.81390  0.56730  Biso   1.000  C
  H19      1.0000 0.98880  0.84210  0.59390  Biso   1.000  H
  C16      1.0000 0.93240  0.76040  0.59020  Biso   1.000  C
  H20      1.0000 0.96230  0.75380  0.63290  Biso   1.000  H
  C17      1.0000 0.82820  0.72910  0.49550  Biso   1.000  C
  H21      1.0000 0.78570  0.70010  0.47050  Biso   1.000  H
  C18      1.0000 0.83620  0.78180  0.46840  Biso   1.000  C
  H22      1.0000 0.79840  0.78810  0.42640  Biso   1.000  H
  O14      1.0000 0.58600  0.93767  0.47728  Biso   1.000  O
  C19      1.0000 0.58410  0.92000  0.97670  Biso   1.000  C
  O15      1.0000 0.02250  0.91171  0.50511  Biso   1.000  O
  C20      1.0000 0.71280  0.88506  0.99220  Biso   1.000  C
  O16      1.0000 0.62580  0.05804  0.87875  Biso   1.000  O
  C21      1.0000 0.84210  0.91037  0.00220  Biso   1.000  C
  H23      1.0000 0.84970  0.94940  0.99880  Biso   1.000  H
  C22      1.0000 0.96020  0.87763  0.01710  Biso   1.000  C
  C23      1.0000 0.94820  0.81920  0.01790  Biso   1.000  C
  H24      1.0000 0.02640  0.79660  0.02550  Biso   1.000  H
  C24      1.0000 0.82020  0.79500  0.00720  Biso   1.000  C
  C25      1.0000 0.70130  0.82654  0.99580  Biso   1.000  C
  H25      1.0000 0.61550  0.80920  0.99050  Biso   1.000  H
  C26      1.0000 0.10090  0.90390  0.03610  Biso   1.000  C
  C27      1.0000 0.33390  0.12170  0.85690  Biso   1.000  C
  C28      1.0000 0.20360  0.15494  0.83890  Biso   1.000  C
  C29      1.0000 0.21170  0.21338  0.83750  Biso   1.000  C
  H26      1.0000 0.29700  0.23120  0.84320  Biso   1.000  H
  C30      1.0000 0.09240  0.24474  0.82770  Biso   1.000  C
  C31      1.0000 0.96460  0.22028  0.81900  Biso   1.000  C
  H27      1.0000 0.88550  0.24230  0.81400  Biso   1.000  H
  C32      1.0000 0.95630  0.16202  0.81790  Biso   1.000  C
  C33      1.0000 0.07530  0.12946  0.82770  Biso   1.000  C
  H28      1.0000 0.06880  0.09030  0.82670  Biso   1.000  H
  C34      1.0000 0.81580  0.13480  0.80690  Biso   1.000  C
  Cu4      1.0000 0.03396  0.51485  0.60228  Biso   1.000  Cu
  O17      1.0000 0.90060  0.46492  0.55352  Biso   1.000  O
  N7       1.0000 0.82890  0.51214  0.80279  Biso   1.000  N
  C35      1.0000 0.88230  0.46440  0.83000  Biso   1.000  C
  H29      1.0000 0.92240  0.43880  0.80510  Biso   1.000  H
  O18      1.0000 0.18730  0.46657  0.58858  Biso   1.000  O
  H30      1.0000 0.18440  0.43340  0.57300  Biso   1.000  H
  H31      1.0000 0.13760  0.46520  0.61810  Biso   1.000  H
  Cu5      1.0000 0.87696  0.63650  0.58795  Biso   1.000  Cu
  O19      1.0000 0.02490  0.40335  0.50553  Biso   1.000  O
  N8       1.0000 0.62190  0.21766  0.94440  Biso   1.000  N
  C36      1.0000 0.88090  0.45160  0.89270  Biso   1.000  C
  H32      1.0000 0.91910  0.41790  0.90940  Biso   1.000  H
  Cu6      1.0000 0.84558  0.53480  0.71167  Biso   1.000  Cu
  N9       1.0000 0.74690  0.50104  0.03398  Biso   1.000  N
  H33      1.0000 0.69190  0.52600  0.01520  Biso   1.000  H
  C37      1.0000 0.82250  0.48880  0.93090  Biso   1.000  C
  O20      1.0000 0.80380  0.21220  0.50750  Biso   1.000  O
  N10      1.0000 0.64280  0.39604  0.07800  Biso   1.000  N
  H34      1.0000 0.70290  0.37230  0.09530  Biso   1.000  H
  C38      1.0000 0.76900  0.53830  0.90350  Biso   1.000  C
  H35      1.0000 0.73070  0.56510  0.92770  Biso   1.000  H
  O21      1.0000 0.58870  0.20552  0.47350  Biso   1.000  O
  O22      1.0000 0.30150  0.36812  0.46141  Biso   1.000  O
  N11      1.0000 0.69190  0.23297  0.49120  Biso   1.000  N
  C39      1.0000 0.77260  0.54770  0.84040  Biso   1.000  C
  H36      1.0000 0.73350  0.58080  0.82260  Biso   1.000  H
  O23      1.0000 0.38570  0.45427  0.45044  Biso   1.000  O
  N12      1.0000 0.39570  0.80656  0.67190  Biso   1.000  N
  C40      1.0000 0.83130  0.47380  0.00020  Biso   1.000  C
  O24      1.0000 0.17410  0.56901  0.63748  Biso   1.000  O
  C41      1.0000 0.74400  0.49030  0.10150  Biso   1.000  C
  H37      1.0000 0.83150  0.47290  0.11930  Biso   1.000  H
  O25      1.0000 0.05800  0.65110  0.63326  Biso   1.000  O
  C42      1.0000 0.72780  0.54560  0.13640  Biso   1.000  C
  H38      1.0000 0.80550  0.57000  0.13230  Biso   1.000  H
  H39      1.0000 0.64480  0.56460  0.11720  Biso   1.000  H
  C43      1.0000 0.71970  0.53540  0.20640  Biso   1.000  C
  H40      1.0000 0.80610  0.51970  0.22660  Biso   1.000  H
  H41      1.0000 0.70510  0.57110  0.22680  Biso   1.000  H
  O26      1.0000 0.28040  0.82679  0.66910  Biso   1.000  O
  O27      1.0000 0.50020  0.83446  0.67610  Biso   1.000  O
  C44      1.0000 0.60330  0.49520  0.21480  Biso   1.000  C
  H42      1.0000 0.51610  0.51240  0.19810  Biso   1.000  H
  H43      1.0000 0.60290  0.48810  0.25960  Biso   1.000  H
  O28      1.0000 0.78720  0.66408  0.68725  Biso   1.000  O
  C45      1.0000 0.61950  0.43940  0.18070  Biso   1.000  C
  H44      1.0000 0.70270  0.42050  0.20000  Biso   1.000  H
  H45      1.0000 0.54190  0.41500  0.18500  Biso   1.000  H
  O29      1.0000 0.68550  0.58303  0.70695  Biso   1.000  O
  C46      1.0000 0.62710  0.44958  0.11060  Biso   1.000  C
  H46      1.0000 0.54020  0.46680  0.09170  Biso   1.000  H
  C47      1.0000 0.56860  0.38240  0.02310  Biso   1.000  C
  C48      1.0000 0.59810  0.32547  0.99520  Biso   1.000  C
  C49      1.0000 0.55230  0.31390  0.93270  Biso   1.000  C
  H47      1.0000 0.51120  0.34210  0.90610  Biso   1.000  H
  C50      1.0000 0.56760  0.26040  0.90980  Biso   1.000  C
  H48      1.0000 0.53770  0.25380  0.86710  Biso   1.000  H
  C51      1.0000 0.67180  0.22910  0.00450  Biso   1.000  C
  H49      1.0000 0.71430  0.20010  0.02950  Biso   1.000  H
  C52      1.0000 0.66380  0.28180  0.03160  Biso   1.000  C
  H50      1.0000 0.70160  0.28810  0.07360  Biso   1.000  H
  O30      1.0000 0.91400  0.43767  0.02272  Biso   1.000  O
  C53      1.0000 0.91590  0.42000  0.52330  Biso   1.000  C
  O31      1.0000 0.47750  0.41171  0.99489  Biso   1.000  O
  C54      1.0000 0.78720  0.38506  0.50780  Biso   1.000  C
  O32      1.0000 0.87420  0.55804  0.62125  Biso   1.000  O
  C55      1.0000 0.65790  0.41037  0.49780  Biso   1.000  C
  H51      1.0000 0.65030  0.44940  0.50120  Biso   1.000  H
  C56      1.0000 0.53980  0.37763  0.48290  Biso   1.000  C
  C57      1.0000 0.55180  0.31920  0.48210  Biso   1.000  C
  H52      1.0000 0.47360  0.29660  0.47450  Biso   1.000  H
  C58      1.0000 0.67980  0.29500  0.49280  Biso   1.000  C
  C59      1.0000 0.79870  0.32654  0.50420  Biso   1.000  C
  H53      1.0000 0.88450  0.30920  0.50950  Biso   1.000  H
  C60      1.0000 0.39910  0.40390  0.46390  Biso   1.000  C
  C61      1.0000 0.16610  0.62170  0.64310  Biso   1.000  C
  C62      1.0000 0.29640  0.65494  0.66110  Biso   1.000  C
  C63      1.0000 0.28830  0.71338  0.66250  Biso   1.000  C
  H54      1.0000 0.20300  0.73120  0.65680  Biso   1.000  H
  C64      1.0000 0.40760  0.74474  0.67230  Biso   1.000  C
  C65      1.0000 0.53540  0.72028  0.68100  Biso   1.000  C
  H55      1.0000 0.61450  0.74230  0.68600  Biso   1.000  H
  C66      1.0000 0.54370  0.66202  0.68210  Biso   1.000  C
  C67      1.0000 0.42470  0.62946  0.67230  Biso   1.000  C
  H56      1.0000 0.43120  0.59030  0.67330  Biso   1.000  H
  C68      1.0000 0.68420  0.63480  0.69310  Biso   1.000  C
  Cu7      1.0000 0.53396  0.98515  0.10228  Biso   1.000  Cu
  O33      1.0000 0.40060  0.03508  0.05352  Biso   1.000  O
  N13      1.0000 0.32890  0.98786  0.30279  Biso   1.000  N
  C69      1.0000 0.38230  0.03560  0.33000  Biso   1.000  C
  H57      1.0000 0.42240  0.06120  0.30510  Biso   1.000  H
  O34      1.0000 0.68730  0.03343  0.08858  Biso   1.000  O
  H58      1.0000 0.68440  0.06660  0.07300  Biso   1.000  H
  H59      1.0000 0.63760  0.03480  0.11810  Biso   1.000  H
  Cu8      1.0000 0.37696  0.86350  0.08795  Biso   1.000  Cu
  O35      1.0000 0.52490  0.09665  0.00553  Biso   1.000  O
  N14      1.0000 0.12190  0.28234  0.44440  Biso   1.000  N
  C70      1.0000 0.38090  0.04840  0.39270  Biso   1.000  C
  H60      1.0000 0.41910  0.08210  0.40940  Biso   1.000  H
  Cu9      1.0000 0.34558  0.96520  0.21167  Biso   1.000  Cu
  N15      1.0000 0.24690  0.99896  0.53398  Biso   1.000  N
  H61      1.0000 0.19190  0.97400  0.51520  Biso   1.000  H
  C71      1.0000 0.32250  0.01120  0.43090  Biso   1.000  C
  O36      1.0000 0.30380  0.28780  0.00750  Biso   1.000  O
  N16      1.0000 0.14280  0.10396  0.57800  Biso   1.000  N
  H62      1.0000 0.20290  0.12770  0.59530  Biso   1.000  H
  C72      1.0000 0.26900  0.96170  0.40350  Biso   1.000  C
  H63      1.0000 0.23070  0.93490  0.42770  Biso   1.000  H
  O37      1.0000 0.08870  0.29448  0.97350  Biso   1.000  O
  O38      1.0000 0.80150  0.13188  0.96141  Biso   1.000  O
  N17      1.0000 0.19190  0.26703  0.99120  Biso   1.000  N
  C73      1.0000 0.27260  0.95230  0.34040  Biso   1.000  C
  H64      1.0000 0.23350  0.91920  0.32260  Biso   1.000  H
  O39      1.0000 0.88570  0.04573  0.95044  Biso   1.000  O
  N18      1.0000 0.89570  0.69344  0.17190  Biso   1.000  N
  C74      1.0000 0.33130  0.02620  0.50020  Biso   1.000  C
  O40      1.0000 0.67410  0.93099  0.13748  Biso   1.000  O
  C75      1.0000 0.24400  0.00970  0.60150  Biso   1.000  C
  H65      1.0000 0.33150  0.02710  0.61930  Biso   1.000  H
  O41      1.0000 0.55800  0.84890  0.13326  Biso   1.000  O
  C76      1.0000 0.22780  0.95440  0.63640  Biso   1.000  C
  H66      1.0000 0.30550  0.93000  0.63230  Biso   1.000  H
  H67      1.0000 0.14480  0.93540  0.61720  Biso   1.000  H
  C77      1.0000 0.21970  0.96460  0.70640  Biso   1.000  C
  H68      1.0000 0.30610  0.98030  0.72660  Biso   1.000  H
  H69      1.0000 0.20510  0.92890  0.72680  Biso   1.000  H
  O42      1.0000 0.78040  0.67321  0.16910  Biso   1.000  O
  O43      1.0000 0.00020  0.66554  0.17610  Biso   1.000  O
  C78      1.0000 0.10330  0.00480  0.71480  Biso   1.000  C
  H70      1.0000 0.01610  0.98760  0.69810  Biso   1.000  H
  H71      1.0000 0.10290  0.01190  0.75960  Biso   1.000  H
  O44      1.0000 0.28720  0.83592  0.18725  Biso   1.000  O
  C79      1.0000 0.11950  0.06060  0.68070  Biso   1.000  C
  H72      1.0000 0.20270  0.07950  0.70000  Biso   1.000  H
  H73      1.0000 0.04190  0.08500  0.68500  Biso   1.000  H
  O45      1.0000 0.18550  0.91697  0.20695  Biso   1.000  O
  C80      1.0000 0.12710  0.05042  0.61060  Biso   1.000  C
  H74      1.0000 0.04020  0.03320  0.59170  Biso   1.000  H
  C81      1.0000 0.06860  0.11760  0.52310  Biso   1.000  C
  C82      1.0000 0.09810  0.17453  0.49520  Biso   1.000  C
  C83      1.0000 0.05230  0.18610  0.43270  Biso   1.000  C
  H75      1.0000 0.01120  0.15790  0.40610  Biso   1.000  H
  C84      1.0000 0.06760  0.23960  0.40980  Biso   1.000  C
  H76      1.0000 0.03770  0.24620  0.36710  Biso   1.000  H
  C85      1.0000 0.17180  0.27090  0.50450  Biso   1.000  C
  H77      1.0000 0.21430  0.29990  0.52950  Biso   1.000  H
  C86      1.0000 0.16380  0.21820  0.53160  Biso   1.000  C
  H78      1.0000 0.20160  0.21190  0.57360  Biso   1.000  H
  O46      1.0000 0.41400  0.06233  0.52272  Biso   1.000  O
  C87      1.0000 0.41590  0.08000  0.02330  Biso   1.000  C
  O47      1.0000 0.97750  0.08829  0.49489  Biso   1.000  O
  C88      1.0000 0.28720  0.11494  0.00780  Biso   1.000  C
  O48      1.0000 0.37420  0.94196  0.12125  Biso   1.000  O
  C89      1.0000 0.15790  0.08963  0.99780  Biso   1.000  C
  H79      1.0000 0.15030  0.05060  0.00120  Biso   1.000  H
  C90      1.0000 0.03980  0.12237  0.98290  Biso   1.000  C
  C91      1.0000 0.05180  0.18080  0.98210  Biso   1.000  C
  H80      1.0000 0.97360  0.20340  0.97450  Biso   1.000  H
  C92      1.0000 0.17980  0.20500  0.99280  Biso   1.000  C
  C93      1.0000 0.29870  0.17346  0.00420  Biso   1.000  C
  H81      1.0000 0.38450  0.19080  0.00950  Biso   1.000  H
  C94      1.0000 0.89910  0.09610  0.96390  Biso   1.000  C
  C95      1.0000 0.66610  0.87830  0.14310  Biso   1.000  C
  C96      1.0000 0.79640  0.84506  0.16110  Biso   1.000  C
  C97      1.0000 0.78830  0.78662  0.16250  Biso   1.000  C
  H82      1.0000 0.70300  0.76880  0.15680  Biso   1.000  H
  C98      1.0000 0.90760  0.75526  0.17230  Biso   1.000  C
  C99      1.0000 0.03540  0.77972  0.18100  Biso   1.000  C
  H83      1.0000 0.11450  0.75770  0.18600  Biso   1.000  H
  C100     1.0000 0.04370  0.83798  0.18210  Biso   1.000  C
  C101     1.0000 0.92470  0.87054  0.17230  Biso   1.000  C
  H84      1.0000 0.93120  0.90970  0.17330  Biso   1.000  H
  C102     1.0000 0.18420  0.86520  0.19310  Biso   1.000  C
  Cu10     1.0000 0.96604  0.48515  0.39772  Biso   1.000  Cu
  O49      1.0000 0.09940  0.53508  0.44648  Biso   1.000  O
  N19      1.0000 0.17110  0.48786  0.19721  Biso   1.000  N
  C103     1.0000 0.11770  0.53560  0.17000  Biso   1.000  C
  H85      1.0000 0.07760  0.56120  0.19490  Biso   1.000  H
  O50      1.0000 0.81270  0.53343  0.41142  Biso   1.000  O
  H86      1.0000 0.81560  0.56660  0.42700  Biso   1.000  H
  H87      1.0000 0.86240  0.53480  0.38190  Biso   1.000  H
  Cu11     1.0000 0.12304  0.36350  0.41205  Biso   1.000  Cu
  O51      1.0000 0.97510  0.59665  0.49447  Biso   1.000  O
  N20      1.0000 0.37810  0.78234  0.05560  Biso   1.000  N
  C104     1.0000 0.11910  0.54840  0.10730  Biso   1.000  C
  H88      1.0000 0.08090  0.58210  0.09060  Biso   1.000  H
  Cu12     1.0000 0.15442  0.46520  0.28833  Biso   1.000  Cu
  N21      1.0000 0.25310  0.49896  0.96602  Biso   1.000  N
  H89      1.0000 0.30810  0.47400  0.98480  Biso   1.000  H
  C105     1.0000 0.17750  0.51120  0.06910  Biso   1.000  C
  O52      1.0000 0.19620  0.78780  0.49250  Biso   1.000  O
  N22      1.0000 0.35720  0.60396  0.92200  Biso   1.000  N
  H90      1.0000 0.29710  0.62770  0.90470  Biso   1.000  H
  C106     1.0000 0.23100  0.46170  0.09650  Biso   1.000  C
  H91      1.0000 0.26930  0.43490  0.07230  Biso   1.000  H
  O53      1.0000 0.41130  0.79448  0.52650  Biso   1.000  O
  O54      1.0000 0.69850  0.63188  0.53859  Biso   1.000  O
  N23      1.0000 0.30810  0.76703  0.50880  Biso   1.000  N
  C107     1.0000 0.22740  0.45230  0.15960  Biso   1.000  C
  H92      1.0000 0.26650  0.41920  0.17740  Biso   1.000  H
  O55      1.0000 0.61430  0.54573  0.54956  Biso   1.000  O
  N24      1.0000 0.60430  0.19344  0.32810  Biso   1.000  N
  C108     1.0000 0.16870  0.52620  0.99980  Biso   1.000  C
  O56      1.0000 0.82590  0.43099  0.36252  Biso   1.000  O
  C109     1.0000 0.25600  0.50970  0.89850  Biso   1.000  C
  H93      1.0000 0.16850  0.52710  0.88070  Biso   1.000  H
  O57      1.0000 0.94200  0.34890  0.36674  Biso   1.000  O
  C110     1.0000 0.27220  0.45440  0.86360  Biso   1.000  C
  H94      1.0000 0.19450  0.43000  0.86770  Biso   1.000  H
  H95      1.0000 0.35520  0.43540  0.88280  Biso   1.000  H
  C111     1.0000 0.28030  0.46460  0.79360  Biso   1.000  C
  H96      1.0000 0.19390  0.48030  0.77340  Biso   1.000  H
  H97      1.0000 0.29490  0.42890  0.77320  Biso   1.000  H
  O58      1.0000 0.71960  0.17321  0.33090  Biso   1.000  O
  O59      1.0000 0.49980  0.16554  0.32390  Biso   1.000  O
  C112     1.0000 0.39670  0.50480  0.78520  Biso   1.000  C
  H98      1.0000 0.48390  0.48760  0.80190  Biso   1.000  H
  H99      1.0000 0.39710  0.51190  0.74040  Biso   1.000  H
  O60      1.0000 0.21280  0.33592  0.31275  Biso   1.000  O
  C113     1.0000 0.38050  0.56060  0.81930  Biso   1.000  C
  H100     1.0000 0.29730  0.57950  0.80000  Biso   1.000  H
  H101     1.0000 0.45810  0.58500  0.81500  Biso   1.000  H
  O61      1.0000 0.31450  0.41697  0.29305  Biso   1.000  O
  C114     1.0000 0.37290  0.55042  0.88940  Biso   1.000  C
  H102     1.0000 0.45980  0.53320  0.90830  Biso   1.000  H
  C115     1.0000 0.43140  0.61760  0.97690  Biso   1.000  C
  C116     1.0000 0.40190  0.67453  0.00480  Biso   1.000  C
  C117     1.0000 0.44770  0.68610  0.06730  Biso   1.000  C
  H103     1.0000 0.48880  0.65790  0.09390  Biso   1.000  H
  C118     1.0000 0.43240  0.73960  0.09020  Biso   1.000  C
  H104     1.0000 0.46230  0.74620  0.13290  Biso   1.000  H
  C119     1.0000 0.32820  0.77090  0.99550  Biso   1.000  C
  H105     1.0000 0.28570  0.79990  0.97050  Biso   1.000  H
  C120     1.0000 0.33620  0.71820  0.96840  Biso   1.000  C
  H106     1.0000 0.29840  0.71190  0.92640  Biso   1.000  H
  O62      1.0000 0.08600  0.56233  0.97728  Biso   1.000  O
  C121     1.0000 0.08410  0.58000  0.47670  Biso   1.000  C
  O63      1.0000 0.52250  0.58829  0.00511  Biso   1.000  O
  C122     1.0000 0.21280  0.61494  0.49220  Biso   1.000  C
  O64      1.0000 0.12580  0.44196  0.37875  Biso   1.000  O
  C123     1.0000 0.34210  0.58963  0.50220  Biso   1.000  C
  H107     1.0000 0.34970  0.55060  0.49880  Biso   1.000  H
  C124     1.0000 0.46020  0.62237  0.51710  Biso   1.000  C
  C125     1.0000 0.44820  0.68080  0.51790  Biso   1.000  C
  H108     1.0000 0.52640  0.70340  0.52550  Biso   1.000  H
  C126     1.0000 0.32020  0.70500  0.50720  Biso   1.000  C
  C127     1.0000 0.20130  0.67346  0.49580  Biso   1.000  C
  H109     1.0000 0.11550  0.69080  0.49050  Biso   1.000  H
  C128     1.0000 0.60090  0.59610  0.53610  Biso   1.000  C
  C129     1.0000 0.83390  0.37830  0.35690  Biso   1.000  C
  C130     1.0000 0.70360  0.34506  0.33890  Biso   1.000  C
  C131     1.0000 0.71170  0.28662  0.33750  Biso   1.000  C
  H110     1.0000 0.79700  0.26880  0.34320  Biso   1.000  H
  C132     1.0000 0.59240  0.25526  0.32770  Biso   1.000  C
  C133     1.0000 0.46460  0.27972  0.31900  Biso   1.000  C
  H111     1.0000 0.38550  0.25770  0.31400  Biso   1.000  H
  C134     1.0000 0.45630  0.33798  0.31790  Biso   1.000  C
  C135     1.0000 0.57530  0.37054  0.32770  Biso   1.000  C
  H112     1.0000 0.56880  0.40970  0.32670  Biso   1.000  H
  C136     1.0000 0.31580  0.36520  0.30690  Biso   1.000  C
