data_image0
_cell_length_a       29.479
_cell_length_b       16.6876
_cell_length_c       15.7664
_cell_angle_alpha    90
_cell_angle_beta     113.53
_cell_angle_gamma    90

_symmetry_space_group_name_H-M    "P 1"
_symmetry_int_tables_number       1

loop_
  _symmetry_equiv_pos_as_xyz
  'x, y, z'

loop_
  _atom_site_label
  _atom_site_occupancy
  _atom_site_fract_x
  _atom_site_fract_y
  _atom_site_fract_z
  _atom_site_thermal_displace_type
  _atom_site_B_iso_or_equiv
  _atom_site_type_symbol
  Cd1      1.0000 0.24817  0.28110  0.87496  Biso   1.000  Cd
  N1       1.0000 0.33170  0.28270  0.94680  Biso   1.000  N
  N2       1.0000 0.66250  0.21860  0.30180  Biso   1.000  N
  C1       1.0000 0.35870  0.22450  0.92450  Biso   1.000  C
  H1       1.0000 0.34140  0.18470  0.88300  Biso   1.000  H
  C2       1.0000 0.63720  0.28380  0.29500  Biso   1.000  C
  H2       1.0000 0.65290  0.32930  0.32750  Biso   1.000  H
  C3       1.0000 0.56380  0.21940  0.19520  Biso   1.000  C
  C4       1.0000 0.58530  0.28640  0.23820  Biso   1.000  C
  H3       1.0000 0.56720  0.33330  0.23160  Biso   1.000  H
  C5       1.0000 0.63830  0.15330  0.27440  Biso   1.000  C
  H4       1.0000 0.65470  0.10440  0.29040  Biso   1.000  H
  C6       1.0000 0.35900  0.34350  0.99410  Biso   1.000  C
  H5       1.0000 0.34260  0.38890  0.00100  Biso   1.000  H
  C7       1.0000 0.58760  0.15520  0.22050  Biso   1.000  C
  H6       1.0000 0.57080  0.10690  0.20250  Biso   1.000  H
  C8       1.0000 0.41070  0.22210  0.96090  Biso   1.000  C
  H7       1.0000 0.42820  0.18350  0.94400  Biso   1.000  H
  C9       1.0000 0.40990  0.34460  0.03390  Biso   1.000  C
  H8       1.0000 0.42690  0.38910  0.06690  Biso   1.000  H
  C10      1.0000 0.49120  0.28000  0.06860  Biso   1.000  C
  H9       1.0000 0.51220  0.31070  0.05050  Biso   1.000  H
  C11      1.0000 0.43330  0.28210  0.02410  Biso   1.000  C
  C12      1.0000 0.16670  0.41540  0.27140  Biso   1.000  C
  C13      1.0000 0.24590  0.35850  0.72300  Biso   1.000  C
  C14      1.0000 0.24240  0.40170  0.63710  Biso   1.000  C
  C15      1.0000 0.24460  0.48390  0.63780  Biso   1.000  C
  H10      1.0000 0.24800  0.51200  0.69100  Biso   1.000  H
  C16      1.0000 0.23650  0.35980  0.55830  Biso   1.000  C
  H11      1.0000 0.23450  0.30420  0.55780  Biso   1.000  H
  C17      1.0000 0.23360  0.40060  0.47930  Biso   1.000  C
  C18      1.0000 0.24640  0.61440  0.56380  Biso   1.000  C
  C19      1.0000 0.21820  0.38980  0.31660  Biso   1.000  C
  H12      1.0000 0.22540  0.35220  0.27670  Biso   1.000  H
  H13      1.0000 0.23960  0.43590  0.32520  Biso   1.000  H
  C20      1.0000 0.23580  0.48410  0.47820  Biso   1.000  C
  H14      1.0000 0.23330  0.51140  0.42510  Biso   1.000  H
  C21      1.0000 0.12550  0.43330  0.23470  Biso   1.000  C
  H15      1.0000 0.09240  0.44760  0.20530  Biso   1.000  H
  C22      1.0000 0.50620  0.22280  0.14100  Biso   1.000  C
  H16      1.0000 0.48430  0.19110  0.15570  Biso   1.000  H
  O1       1.0000 0.24610  0.28280  0.72270  Biso   1.000  O
  O2       1.0000 0.24960  0.64820  0.63550  Biso   1.000  O
  O3       1.0000 0.24870  0.39910  0.79290  Biso   1.000  O
  O4       1.0000 0.24700  0.65240  0.49710  Biso   1.000  O
  C23      1.0000 0.24170  0.52540  0.55890  Biso   1.000  C
  O5       1.0000 0.22890  0.35250  0.40490  Biso   1.000  O
  Cd2      1.0000 0.74817  0.78110  0.87496  Biso   1.000  Cd
  N3       1.0000 0.83170  0.78270  0.94680  Biso   1.000  N
  N4       1.0000 0.16250  0.71860  0.30180  Biso   1.000  N
  C24      1.0000 0.85870  0.72450  0.92450  Biso   1.000  C
  H17      1.0000 0.84140  0.68470  0.88300  Biso   1.000  H
  C25      1.0000 0.13720  0.78380  0.29500  Biso   1.000  C
  H18      1.0000 0.15290  0.82930  0.32750  Biso   1.000  H
  C26      1.0000 0.06380  0.71940  0.19520  Biso   1.000  C
  C27      1.0000 0.08530  0.78640  0.23820  Biso   1.000  C
  H19      1.0000 0.06720  0.83330  0.23160  Biso   1.000  H
  C28      1.0000 0.13830  0.65330  0.27440  Biso   1.000  C
  H20      1.0000 0.15470  0.60440  0.29040  Biso   1.000  H
  C29      1.0000 0.85900  0.84350  0.99410  Biso   1.000  C
  H21      1.0000 0.84260  0.88890  0.00100  Biso   1.000  H
  C30      1.0000 0.08760  0.65520  0.22050  Biso   1.000  C
  H22      1.0000 0.07080  0.60690  0.20250  Biso   1.000  H
  C31      1.0000 0.91070  0.72210  0.96090  Biso   1.000  C
  H23      1.0000 0.92820  0.68350  0.94400  Biso   1.000  H
  C32      1.0000 0.90990  0.84460  0.03390  Biso   1.000  C
  H24      1.0000 0.92690  0.88910  0.06690  Biso   1.000  H
  C33      1.0000 0.99120  0.78000  0.06860  Biso   1.000  C
  H25      1.0000 0.01220  0.81070  0.05050  Biso   1.000  H
  C34      1.0000 0.93330  0.78210  0.02410  Biso   1.000  C
  C35      1.0000 0.66670  0.91540  0.27140  Biso   1.000  C
  C36      1.0000 0.74590  0.85850  0.72300  Biso   1.000  C
  C37      1.0000 0.74240  0.90170  0.63710  Biso   1.000  C
  C38      1.0000 0.74460  0.98390  0.63780  Biso   1.000  C
  H26      1.0000 0.74800  0.01200  0.69100  Biso   1.000  H
  C39      1.0000 0.73650  0.85980  0.55830  Biso   1.000  C
  H27      1.0000 0.73450  0.80420  0.55780  Biso   1.000  H
  C40      1.0000 0.73360  0.90060  0.47930  Biso   1.000  C
  C41      1.0000 0.74640  0.11440  0.56380  Biso   1.000  C
  C42      1.0000 0.71820  0.88980  0.31660  Biso   1.000  C
  H28      1.0000 0.72540  0.85220  0.27670  Biso   1.000  H
  H29      1.0000 0.73960  0.93590  0.32520  Biso   1.000  H
  C43      1.0000 0.73580  0.98410  0.47820  Biso   1.000  C
  H30      1.0000 0.73330  0.01140  0.42510  Biso   1.000  H
  C44      1.0000 0.62550  0.93330  0.23470  Biso   1.000  C
  H31      1.0000 0.59240  0.94760  0.20530  Biso   1.000  H
  C45      1.0000 0.00620  0.72280  0.14100  Biso   1.000  C
  H32      1.0000 0.98430  0.69110  0.15570  Biso   1.000  H
  O6       1.0000 0.74610  0.78280  0.72270  Biso   1.000  O
  O7       1.0000 0.74960  0.14820  0.63550  Biso   1.000  O
  O8       1.0000 0.74870  0.89910  0.79290  Biso   1.000  O
  O9       1.0000 0.74700  0.15240  0.49710  Biso   1.000  O
  C46      1.0000 0.74170  0.02540  0.55890  Biso   1.000  C
  O10      1.0000 0.72890  0.85250  0.40490  Biso   1.000  O
  Cd3      1.0000 0.75183  0.28110  0.62504  Biso   1.000  Cd
  N5       1.0000 0.66830  0.28270  0.55320  Biso   1.000  N
  N6       1.0000 0.33750  0.21860  0.19820  Biso   1.000  N
  C47      1.0000 0.64130  0.22450  0.57550  Biso   1.000  C
  H33      1.0000 0.65860  0.18470  0.61700  Biso   1.000  H
  C48      1.0000 0.36280  0.28380  0.20500  Biso   1.000  C
  H34      1.0000 0.34710  0.32930  0.17250  Biso   1.000  H
  C49      1.0000 0.43620  0.21940  0.30480  Biso   1.000  C
  C50      1.0000 0.41470  0.28640  0.26180  Biso   1.000  C
  H35      1.0000 0.43280  0.33330  0.26840  Biso   1.000  H
  C51      1.0000 0.36170  0.15330  0.22560  Biso   1.000  C
  H36      1.0000 0.34530  0.10440  0.20960  Biso   1.000  H
  C52      1.0000 0.64100  0.34350  0.50590  Biso   1.000  C
  H37      1.0000 0.65740  0.38890  0.49900  Biso   1.000  H
  C53      1.0000 0.41240  0.15520  0.27950  Biso   1.000  C
  H38      1.0000 0.42920  0.10690  0.29750  Biso   1.000  H
  C54      1.0000 0.58930  0.22210  0.53910  Biso   1.000  C
  H39      1.0000 0.57180  0.18350  0.55600  Biso   1.000  H
  C55      1.0000 0.59010  0.34460  0.46610  Biso   1.000  C
  H40      1.0000 0.57310  0.38910  0.43310  Biso   1.000  H
  C56      1.0000 0.50880  0.28000  0.43140  Biso   1.000  C
  H41      1.0000 0.48780  0.31070  0.44950  Biso   1.000  H
  C57      1.0000 0.56670  0.28210  0.47590  Biso   1.000  C
  C58      1.0000 0.83330  0.41540  0.22860  Biso   1.000  C
  C59      1.0000 0.75410  0.35850  0.77700  Biso   1.000  C
  C60      1.0000 0.75760  0.40170  0.86290  Biso   1.000  C
  C61      1.0000 0.75540  0.48390  0.86220  Biso   1.000  C
  H42      1.0000 0.75200  0.51200  0.80900  Biso   1.000  H
  C62      1.0000 0.76350  0.35980  0.94170  Biso   1.000  C
  H43      1.0000 0.76550  0.30420  0.94220  Biso   1.000  H
  C63      1.0000 0.76640  0.40060  0.02070  Biso   1.000  C
  C64      1.0000 0.75360  0.61440  0.93620  Biso   1.000  C
  C65      1.0000 0.78180  0.38980  0.18340  Biso   1.000  C
  H44      1.0000 0.77460  0.35220  0.22330  Biso   1.000  H
  H45      1.0000 0.76040  0.43590  0.17480  Biso   1.000  H
  C66      1.0000 0.76420  0.48410  0.02180  Biso   1.000  C
  H46      1.0000 0.76670  0.51140  0.07490  Biso   1.000  H
  C67      1.0000 0.87450  0.43330  0.26530  Biso   1.000  C
  H47      1.0000 0.90760  0.44760  0.29470  Biso   1.000  H
  C68      1.0000 0.49380  0.22280  0.35900  Biso   1.000  C
  H48      1.0000 0.51570  0.19110  0.34430  Biso   1.000  H
  O11      1.0000 0.75390  0.28280  0.77730  Biso   1.000  O
  O12      1.0000 0.75040  0.64820  0.86450  Biso   1.000  O
  O13      1.0000 0.75130  0.39910  0.70710  Biso   1.000  O
  O14      1.0000 0.75300  0.65240  0.00290  Biso   1.000  O
  C69      1.0000 0.75830  0.52540  0.94110  Biso   1.000  C
  O15      1.0000 0.77110  0.35250  0.09510  Biso   1.000  O
  Cd4      1.0000 0.25183  0.78110  0.62504  Biso   1.000  Cd
  N7       1.0000 0.16830  0.78270  0.55320  Biso   1.000  N
  N8       1.0000 0.83750  0.71860  0.19820  Biso   1.000  N
  C70      1.0000 0.14130  0.72450  0.57550  Biso   1.000  C
  H49      1.0000 0.15860  0.68470  0.61700  Biso   1.000  H
  C71      1.0000 0.86280  0.78380  0.20500  Biso   1.000  C
  H50      1.0000 0.84710  0.82930  0.17250  Biso   1.000  H
  C72      1.0000 0.93620  0.71940  0.30480  Biso   1.000  C
  C73      1.0000 0.91470  0.78640  0.26180  Biso   1.000  C
  H51      1.0000 0.93280  0.83330  0.26840  Biso   1.000  H
  C74      1.0000 0.86170  0.65330  0.22560  Biso   1.000  C
  H52      1.0000 0.84530  0.60440  0.20960  Biso   1.000  H
  C75      1.0000 0.14100  0.84350  0.50590  Biso   1.000  C
  H53      1.0000 0.15740  0.88890  0.49900  Biso   1.000  H
  C76      1.0000 0.91240  0.65520  0.27950  Biso   1.000  C
  H54      1.0000 0.92920  0.60690  0.29750  Biso   1.000  H
  C77      1.0000 0.08930  0.72210  0.53910  Biso   1.000  C
  H55      1.0000 0.07180  0.68350  0.55600  Biso   1.000  H
  C78      1.0000 0.09010  0.84460  0.46610  Biso   1.000  C
  H56      1.0000 0.07310  0.88910  0.43310  Biso   1.000  H
  C79      1.0000 0.00880  0.78000  0.43140  Biso   1.000  C
  H57      1.0000 0.98780  0.81070  0.44950  Biso   1.000  H
  C80      1.0000 0.06670  0.78210  0.47590  Biso   1.000  C
  C81      1.0000 0.33330  0.91540  0.22860  Biso   1.000  C
  C82      1.0000 0.25410  0.85850  0.77700  Biso   1.000  C
  C83      1.0000 0.25760  0.90170  0.86290  Biso   1.000  C
  C84      1.0000 0.25540  0.98390  0.86220  Biso   1.000  C
  H58      1.0000 0.25200  0.01200  0.80900  Biso   1.000  H
  C85      1.0000 0.26350  0.85980  0.94170  Biso   1.000  C
  H59      1.0000 0.26550  0.80420  0.94220  Biso   1.000  H
  C86      1.0000 0.26640  0.90060  0.02070  Biso   1.000  C
  C87      1.0000 0.25360  0.11440  0.93620  Biso   1.000  C
  C88      1.0000 0.28180  0.88980  0.18340  Biso   1.000  C
  H60      1.0000 0.27460  0.85220  0.22330  Biso   1.000  H
  H61      1.0000 0.26040  0.93590  0.17480  Biso   1.000  H
  C89      1.0000 0.26420  0.98410  0.02180  Biso   1.000  C
  H62      1.0000 0.26670  0.01140  0.07490  Biso   1.000  H
  C90      1.0000 0.37450  0.93330  0.26530  Biso   1.000  C
  H63      1.0000 0.40760  0.94760  0.29470  Biso   1.000  H
  C91      1.0000 0.99380  0.72280  0.35900  Biso   1.000  C
  H64      1.0000 0.01570  0.69110  0.34430  Biso   1.000  H
  O16      1.0000 0.25390  0.78280  0.77730  Biso   1.000  O
  O17      1.0000 0.25040  0.14820  0.86450  Biso   1.000  O
  O18      1.0000 0.25130  0.89910  0.70710  Biso   1.000  O
  O19      1.0000 0.25300  0.15240  0.00290  Biso   1.000  O
  C92      1.0000 0.25830  0.02540  0.94110  Biso   1.000  C
  O20      1.0000 0.27110  0.85250  0.09510  Biso   1.000  O
  Cd5      1.0000 0.75183  0.71890  0.12504  Biso   1.000  Cd
  N9       1.0000 0.66830  0.71730  0.05320  Biso   1.000  N
  N10      1.0000 0.33750  0.78140  0.69820  Biso   1.000  N
  C93      1.0000 0.64130  0.77550  0.07550  Biso   1.000  C
  H65      1.0000 0.65860  0.81530  0.11700  Biso   1.000  H
  C94      1.0000 0.36280  0.71620  0.70500  Biso   1.000  C
  H66      1.0000 0.34710  0.67070  0.67250  Biso   1.000  H
  C95      1.0000 0.43620  0.78060  0.80480  Biso   1.000  C
  C96      1.0000 0.41470  0.71360  0.76180  Biso   1.000  C
  H67      1.0000 0.43280  0.66670  0.76840  Biso   1.000  H
  C97      1.0000 0.36170  0.84670  0.72560  Biso   1.000  C
  H68      1.0000 0.34530  0.89560  0.70960  Biso   1.000  H
  C98      1.0000 0.64100  0.65650  0.00590  Biso   1.000  C
  H69      1.0000 0.65740  0.61110  0.99900  Biso   1.000  H
  C99      1.0000 0.41240  0.84480  0.77950  Biso   1.000  C
  H70      1.0000 0.42920  0.89310  0.79750  Biso   1.000  H
  C100     1.0000 0.58930  0.77790  0.03910  Biso   1.000  C
  H71      1.0000 0.57180  0.81650  0.05600  Biso   1.000  H
  C101     1.0000 0.59010  0.65540  0.96610  Biso   1.000  C
  H72      1.0000 0.57310  0.61090  0.93310  Biso   1.000  H
  C102     1.0000 0.50880  0.72000  0.93140  Biso   1.000  C
  H73      1.0000 0.48780  0.68930  0.94950  Biso   1.000  H
  C103     1.0000 0.56670  0.71790  0.97590  Biso   1.000  C
  C104     1.0000 0.83330  0.58460  0.72860  Biso   1.000  C
  C105     1.0000 0.75410  0.64150  0.27700  Biso   1.000  C
  C106     1.0000 0.75760  0.59830  0.36290  Biso   1.000  C
  C107     1.0000 0.75540  0.51610  0.36220  Biso   1.000  C
  H74      1.0000 0.75200  0.48800  0.30900  Biso   1.000  H
  C108     1.0000 0.76350  0.64020  0.44170  Biso   1.000  C
  H75      1.0000 0.76550  0.69580  0.44220  Biso   1.000  H
  C109     1.0000 0.76640  0.59940  0.52070  Biso   1.000  C
  C110     1.0000 0.75360  0.38560  0.43620  Biso   1.000  C
  C111     1.0000 0.78180  0.61020  0.68340  Biso   1.000  C
  H76      1.0000 0.77460  0.64780  0.72330  Biso   1.000  H
  H77      1.0000 0.76040  0.56410  0.67480  Biso   1.000  H
  C112     1.0000 0.76420  0.51590  0.52180  Biso   1.000  C
  H78      1.0000 0.76670  0.48860  0.57490  Biso   1.000  H
  C113     1.0000 0.87450  0.56670  0.76530  Biso   1.000  C
  H79      1.0000 0.90760  0.55240  0.79470  Biso   1.000  H
  C114     1.0000 0.49380  0.77720  0.85900  Biso   1.000  C
  H80      1.0000 0.51570  0.80890  0.84430  Biso   1.000  H
  O21      1.0000 0.75390  0.71720  0.27730  Biso   1.000  O
  O22      1.0000 0.75040  0.35180  0.36450  Biso   1.000  O
  O23      1.0000 0.75130  0.60090  0.20710  Biso   1.000  O
  O24      1.0000 0.75300  0.34760  0.50290  Biso   1.000  O
  C115     1.0000 0.75830  0.47460  0.44110  Biso   1.000  C
  O25      1.0000 0.77110  0.64750  0.59510  Biso   1.000  O
  Cd6      1.0000 0.25183  0.21890  0.12504  Biso   1.000  Cd
  N11      1.0000 0.16830  0.21730  0.05320  Biso   1.000  N
  N12      1.0000 0.83750  0.28140  0.69820  Biso   1.000  N
  C116     1.0000 0.14130  0.27550  0.07550  Biso   1.000  C
  H81      1.0000 0.15860  0.31530  0.11700  Biso   1.000  H
  C117     1.0000 0.86280  0.21620  0.70500  Biso   1.000  C
  H82      1.0000 0.84710  0.17070  0.67250  Biso   1.000  H
  C118     1.0000 0.93620  0.28060  0.80480  Biso   1.000  C
  C119     1.0000 0.91470  0.21360  0.76180  Biso   1.000  C
  H83      1.0000 0.93280  0.16670  0.76840  Biso   1.000  H
  C120     1.0000 0.86170  0.34670  0.72560  Biso   1.000  C
  H84      1.0000 0.84530  0.39560  0.70960  Biso   1.000  H
  C121     1.0000 0.14100  0.15650  0.00590  Biso   1.000  C
  H85      1.0000 0.15740  0.11110  0.99900  Biso   1.000  H
  C122     1.0000 0.91240  0.34480  0.77950  Biso   1.000  C
  H86      1.0000 0.92920  0.39310  0.79750  Biso   1.000  H
  C123     1.0000 0.08930  0.27790  0.03910  Biso   1.000  C
  H87      1.0000 0.07180  0.31650  0.05600  Biso   1.000  H
  C124     1.0000 0.09010  0.15540  0.96610  Biso   1.000  C
  H88      1.0000 0.07310  0.11090  0.93310  Biso   1.000  H
  C125     1.0000 0.00880  0.22000  0.93140  Biso   1.000  C
  H89      1.0000 0.98780  0.18930  0.94950  Biso   1.000  H
  C126     1.0000 0.06670  0.21790  0.97590  Biso   1.000  C
  C127     1.0000 0.33330  0.08460  0.72860  Biso   1.000  C
  C128     1.0000 0.25410  0.14150  0.27700  Biso   1.000  C
  C129     1.0000 0.25760  0.09830  0.36290  Biso   1.000  C
  C130     1.0000 0.25540  0.01610  0.36220  Biso   1.000  C
  H90      1.0000 0.25200  0.98800  0.30900  Biso   1.000  H
  C131     1.0000 0.26350  0.14020  0.44170  Biso   1.000  C
  H91      1.0000 0.26550  0.19580  0.44220  Biso   1.000  H
  C132     1.0000 0.26640  0.09940  0.52070  Biso   1.000  C
  C133     1.0000 0.25360  0.88560  0.43620  Biso   1.000  C
  C134     1.0000 0.28180  0.11020  0.68340  Biso   1.000  C
  H92      1.0000 0.27460  0.14780  0.72330  Biso   1.000  H
  H93      1.0000 0.26040  0.06410  0.67480  Biso   1.000  H
  C135     1.0000 0.26420  0.01590  0.52180  Biso   1.000  C
  H94      1.0000 0.26670  0.98860  0.57490  Biso   1.000  H
  C136     1.0000 0.37450  0.06670  0.76530  Biso   1.000  C
  H95      1.0000 0.40760  0.05240  0.79470  Biso   1.000  H
  C137     1.0000 0.99380  0.27720  0.85900  Biso   1.000  C
  H96      1.0000 0.01570  0.30890  0.84430  Biso   1.000  H
  O26      1.0000 0.25390  0.21720  0.27730  Biso   1.000  O
  O27      1.0000 0.25040  0.85180  0.36450  Biso   1.000  O
  O28      1.0000 0.25130  0.10090  0.20710  Biso   1.000  O
  O29      1.0000 0.25300  0.84760  0.50290  Biso   1.000  O
  C138     1.0000 0.25830  0.97460  0.44110  Biso   1.000  C
  O30      1.0000 0.27110  0.14750  0.59510  Biso   1.000  O
  Cd7      1.0000 0.24817  0.71890  0.37496  Biso   1.000  Cd
  N13      1.0000 0.33170  0.71730  0.44680  Biso   1.000  N
  N14      1.0000 0.66250  0.78140  0.80180  Biso   1.000  N
  C139     1.0000 0.35870  0.77550  0.42450  Biso   1.000  C
  H97      1.0000 0.34140  0.81530  0.38300  Biso   1.000  H
  C140     1.0000 0.63720  0.71620  0.79500  Biso   1.000  C
  H98      1.0000 0.65290  0.67070  0.82750  Biso   1.000  H
  C141     1.0000 0.56380  0.78060  0.69520  Biso   1.000  C
  C142     1.0000 0.58530  0.71360  0.73820  Biso   1.000  C
  H99      1.0000 0.56720  0.66670  0.73160  Biso   1.000  H
  C143     1.0000 0.63830  0.84670  0.77440  Biso   1.000  C
  H100     1.0000 0.65470  0.89560  0.79040  Biso   1.000  H
  C144     1.0000 0.35900  0.65650  0.49410  Biso   1.000  C
  H101     1.0000 0.34260  0.61110  0.50100  Biso   1.000  H
  C145     1.0000 0.58760  0.84480  0.72050  Biso   1.000  C
  H102     1.0000 0.57080  0.89310  0.70250  Biso   1.000  H
  C146     1.0000 0.41070  0.77790  0.46090  Biso   1.000  C
  H103     1.0000 0.42820  0.81650  0.44400  Biso   1.000  H
  C147     1.0000 0.40990  0.65540  0.53390  Biso   1.000  C
  H104     1.0000 0.42690  0.61090  0.56690  Biso   1.000  H
  C148     1.0000 0.49120  0.72000  0.56860  Biso   1.000  C
  H105     1.0000 0.51220  0.68930  0.55050  Biso   1.000  H
  C149     1.0000 0.43330  0.71790  0.52410  Biso   1.000  C
  C150     1.0000 0.16670  0.58460  0.77140  Biso   1.000  C
  C151     1.0000 0.24590  0.64150  0.22300  Biso   1.000  C
  C152     1.0000 0.24240  0.59830  0.13710  Biso   1.000  C
  C153     1.0000 0.24460  0.51610  0.13780  Biso   1.000  C
  H106     1.0000 0.24800  0.48800  0.19100  Biso   1.000  H
  C154     1.0000 0.23650  0.64020  0.05830  Biso   1.000  C
  H107     1.0000 0.23450  0.69580  0.05780  Biso   1.000  H
  C155     1.0000 0.23360  0.59940  0.97930  Biso   1.000  C
  C156     1.0000 0.24640  0.38560  0.06380  Biso   1.000  C
  C157     1.0000 0.21820  0.61020  0.81660  Biso   1.000  C
  H108     1.0000 0.22540  0.64780  0.77670  Biso   1.000  H
  H109     1.0000 0.23960  0.56410  0.82520  Biso   1.000  H
  C158     1.0000 0.23580  0.51590  0.97820  Biso   1.000  C
  H110     1.0000 0.23330  0.48860  0.92510  Biso   1.000  H
  C159     1.0000 0.12550  0.56670  0.73470  Biso   1.000  C
  H111     1.0000 0.09240  0.55240  0.70530  Biso   1.000  H
  C160     1.0000 0.50620  0.77720  0.64100  Biso   1.000  C
  H112     1.0000 0.48430  0.80890  0.65570  Biso   1.000  H
  O31      1.0000 0.24610  0.71720  0.22270  Biso   1.000  O
  O32      1.0000 0.24960  0.35180  0.13550  Biso   1.000  O
  O33      1.0000 0.24870  0.60090  0.29290  Biso   1.000  O
  O34      1.0000 0.24700  0.34760  0.99710  Biso   1.000  O
  C161     1.0000 0.24170  0.47460  0.05890  Biso   1.000  C
  O35      1.0000 0.22890  0.64750  0.90490  Biso   1.000  O
  Cd8      1.0000 0.74817  0.21890  0.37496  Biso   1.000  Cd
  N15      1.0000 0.83170  0.21730  0.44680  Biso   1.000  N
  N16      1.0000 0.16250  0.28140  0.80180  Biso   1.000  N
  C162     1.0000 0.85870  0.27550  0.42450  Biso   1.000  C
  H113     1.0000 0.84140  0.31530  0.38300  Biso   1.000  H
  C163     1.0000 0.13720  0.21620  0.79500  Biso   1.000  C
  H114     1.0000 0.15290  0.17070  0.82750  Biso   1.000  H
  C164     1.0000 0.06380  0.28060  0.69520  Biso   1.000  C
  C165     1.0000 0.08530  0.21360  0.73820  Biso   1.000  C
  H115     1.0000 0.06720  0.16670  0.73160  Biso   1.000  H
  C166     1.0000 0.13830  0.34670  0.77440  Biso   1.000  C
  H116     1.0000 0.15470  0.39560  0.79040  Biso   1.000  H
  C167     1.0000 0.85900  0.15650  0.49410  Biso   1.000  C
  H117     1.0000 0.84260  0.11110  0.50100  Biso   1.000  H
  C168     1.0000 0.08760  0.34480  0.72050  Biso   1.000  C
  H118     1.0000 0.07080  0.39310  0.70250  Biso   1.000  H
  C169     1.0000 0.91070  0.27790  0.46090  Biso   1.000  C
  H119     1.0000 0.92820  0.31650  0.44400  Biso   1.000  H
  C170     1.0000 0.90990  0.15540  0.53390  Biso   1.000  C
  H120     1.0000 0.92690  0.11090  0.56690  Biso   1.000  H
  C171     1.0000 0.99120  0.22000  0.56860  Biso   1.000  C
  H121     1.0000 0.01220  0.18930  0.55050  Biso   1.000  H
  C172     1.0000 0.93330  0.21790  0.52410  Biso   1.000  C
  C173     1.0000 0.66670  0.08460  0.77140  Biso   1.000  C
  C174     1.0000 0.74590  0.14150  0.22300  Biso   1.000  C
  C175     1.0000 0.74240  0.09830  0.13710  Biso   1.000  C
  C176     1.0000 0.74460  0.01610  0.13780  Biso   1.000  C
  H122     1.0000 0.74800  0.98800  0.19100  Biso   1.000  H
  C177     1.0000 0.73650  0.14020  0.05830  Biso   1.000  C
  H123     1.0000 0.73450  0.19580  0.05780  Biso   1.000  H
  C178     1.0000 0.73360  0.09940  0.97930  Biso   1.000  C
  C179     1.0000 0.74640  0.88560  0.06380  Biso   1.000  C
  C180     1.0000 0.71820  0.11020  0.81660  Biso   1.000  C
  H124     1.0000 0.72540  0.14780  0.77670  Biso   1.000  H
  H125     1.0000 0.73960  0.06410  0.82520  Biso   1.000  H
  C181     1.0000 0.73580  0.01590  0.97820  Biso   1.000  C
  H126     1.0000 0.73330  0.98860  0.92510  Biso   1.000  H
  C182     1.0000 0.62550  0.06670  0.73470  Biso   1.000  C
  H127     1.0000 0.59240  0.05240  0.70530  Biso   1.000  H
  C183     1.0000 0.00620  0.27720  0.64100  Biso   1.000  C
  H128     1.0000 0.98430  0.30890  0.65570  Biso   1.000  H
  O36      1.0000 0.74610  0.21720  0.22270  Biso   1.000  O
  O37      1.0000 0.74960  0.85180  0.13550  Biso   1.000  O
  O38      1.0000 0.74870  0.10090  0.29290  Biso   1.000  O
  O39      1.0000 0.74700  0.84760  0.99710  Biso   1.000  O
  C184     1.0000 0.74170  0.97460  0.05890  Biso   1.000  C
  O40      1.0000 0.72890  0.14750  0.90490  Biso   1.000  O
