data_GURPUF_clean
_audit_creation_date              2014-07-02
_audit_creation_method            'Materials Studio'
_symmetry_space_group_name_H-M    'P1'
_symmetry_Int_Tables_number       1
_symmetry_cell_setting            triclinic
loop_
_symmetry_equiv_pos_as_xyz
  x,y,z
_cell_length_a                    16.2740
_cell_length_b                    20.4650
_cell_length_c                    21.2430
_cell_angle_alpha                 90.0000
_cell_angle_beta                  90.0000
_cell_angle_gamma                 90.0000
loop_
_atom_site_label
_atom_site_type_symbol
_atom_site_fract_x
_atom_site_fract_y
_atom_site_fract_z
_atom_site_U_iso_or_equiv
_atom_site_adp_type
_atom_site_occupancy
Mn1    Mn    0.25815   0.00889   0.62949   0.01267  Uiso   1.00
Mn2    Mn    0.01662   0.62523   0.49462   0.01267  Uiso   1.00
Mn3    Mn    0.75815   0.99111   0.37051   0.01267  Uiso   1.00
Mn4    Mn    0.51662   0.37477   0.50538   0.01267  Uiso   1.00
Mn5    Mn    0.25815   0.50889   0.87051   0.01267  Uiso   1.00
Mn6    Mn    0.01662   0.12523   0.00538   0.01267  Uiso   1.00
Mn7    Mn    0.75815   0.49111   0.12949   0.01267  Uiso   1.00
Mn8    Mn    0.51662   0.87477   0.99462   0.01267  Uiso   1.00
Cr1    Cr    0.01209   0.88797   0.50169   0.01267  Uiso   1.00
Cr2    Cr    0.26172   0.99989   0.88328   0.01267  Uiso   1.00
Cr3    Cr    0.51209   0.11203   0.49831   0.01267  Uiso   1.00
Cr4    Cr    0.76172   0.00011   0.11672   0.01267  Uiso   1.00
Cr5    Cr    0.01209   0.38797   0.99831   0.01267  Uiso   1.00
Cr6    Cr    0.26172   0.49989   0.61672   0.01267  Uiso   1.00
Cr7    Cr    0.51209   0.61203   0.00169   0.01267  Uiso   1.00
Cr8    Cr    0.76172   0.50011   0.38328   0.01267  Uiso   1.00
C1     C     0.01440   0.75980   0.53530   0.01267  Uiso   1.00
C2     C     0.01660   0.76130   0.46210   0.01267  Uiso   1.00
C3     C     0.16330   0.93200   0.54210   0.01267  Uiso   1.00
C4     C     0.09860   0.96730   0.58340   0.01267  Uiso   1.00
C5     C     0.35890   0.08150   0.54240   0.01267  Uiso   1.00
C6     C     0.42000   0.04270   0.58340   0.01267  Uiso   1.00
C7     C     0.35410   0.91710   0.95570   0.01267  Uiso   1.00
C8     C     0.41640   0.96030   0.91870   0.01267  Uiso   1.00
C9     C     0.25310   0.04230   0.76100   0.01267  Uiso   1.00
C10    C     0.26490   0.96550   0.75900   0.01267  Uiso   1.00
C11    C     0.11080   0.03760   0.92760   0.01267  Uiso   1.00
C12    C     0.17560   0.08030   0.96070   0.01267  Uiso   1.00
C13    C     0.51440   0.24020   0.46470   0.01267  Uiso   1.00
C14    C     0.51660   0.23870   0.53790   0.01267  Uiso   1.00
C15    C     0.66330   0.06800   0.45790   0.01267  Uiso   1.00
C16    C     0.59860   0.03270   0.41660   0.01267  Uiso   1.00
C17    C     0.85890   0.91850   0.45760   0.01267  Uiso   1.00
C18    C     0.92000   0.95730   0.41660   0.01267  Uiso   1.00
C19    C     0.85410   0.08290   0.04430   0.01267  Uiso   1.00
C20    C     0.91640   0.03970   0.08130   0.01267  Uiso   1.00
C21    C     0.75310   0.95770   0.23900   0.01267  Uiso   1.00
C22    C     0.76490   0.03450   0.24100   0.01267  Uiso   1.00
C23    C     0.61080   0.96240   0.07240   0.01267  Uiso   1.00
C24    C     0.67560   0.91970   0.03930   0.01267  Uiso   1.00
C25    C     0.01440   0.25980   0.96470   0.01267  Uiso   1.00
C26    C     0.01660   0.26130   0.03790   0.01267  Uiso   1.00
C27    C     0.16330   0.43200   0.95790   0.01267  Uiso   1.00
C28    C     0.09860   0.46730   0.91660   0.01267  Uiso   1.00
C29    C     0.35890   0.58150   0.95760   0.01267  Uiso   1.00
C30    C     0.42000   0.54270   0.91660   0.01267  Uiso   1.00
C31    C     0.35410   0.41710   0.54430   0.01267  Uiso   1.00
C32    C     0.41640   0.46030   0.58130   0.01267  Uiso   1.00
C33    C     0.25310   0.54230   0.73900   0.01267  Uiso   1.00
C34    C     0.26490   0.46550   0.74100   0.01267  Uiso   1.00
C35    C     0.11080   0.53760   0.57240   0.01267  Uiso   1.00
C36    C     0.17560   0.58030   0.53930   0.01267  Uiso   1.00
C37    C     0.51440   0.74020   0.03530   0.01267  Uiso   1.00
C38    C     0.51660   0.73870   0.96210   0.01267  Uiso   1.00
C39    C     0.66330   0.56800   0.04210   0.01267  Uiso   1.00
C40    C     0.59860   0.53270   0.08340   0.01267  Uiso   1.00
C41    C     0.85890   0.41850   0.04240   0.01267  Uiso   1.00
C42    C     0.92000   0.45730   0.08340   0.01267  Uiso   1.00
C43    C     0.85410   0.58290   0.45570   0.01267  Uiso   1.00
C44    C     0.91640   0.53970   0.41870   0.01267  Uiso   1.00
C45    C     0.75310   0.45770   0.26100   0.01267  Uiso   1.00
C46    C     0.76490   0.53450   0.25900   0.01267  Uiso   1.00
C47    C     0.61080   0.46240   0.42760   0.01267  Uiso   1.00
C48    C     0.67560   0.41970   0.46070   0.01267  Uiso   1.00
O1     O     0.01580   0.81470   0.56150   0.01267  Uiso   1.00
O2     O     0.01300   0.81870   0.43810   0.01267  Uiso   1.00
O3     O     0.01120   0.70570   0.56190   0.01267  Uiso   1.00
O4     O     0.01870   0.70860   0.43300   0.01267  Uiso   1.00
O5     O     0.13270   0.89570   0.49840   0.01267  Uiso   1.00
O6     O     0.02320   0.95330   0.56980   0.01267  Uiso   1.00
O7     O     0.23570   0.93950   0.55390   0.01267  Uiso   1.00
O8     O     0.12380   0.00480   0.62320   0.01267  Uiso   1.00
O9     O     0.39090   0.11260   0.49570   0.01267  Uiso   1.00
O10    O     0.49550   0.04730   0.56690   0.01267  Uiso   1.00
O11    O     0.28540   0.07970   0.55650   0.01267  Uiso   1.00
O12    O     0.39250   0.01260   0.62820   0.01267  Uiso   1.00
O13    O     0.38190   0.87450   0.99110   0.01267  Uiso   1.00
O14    O     0.48960   0.94940   0.92330   0.01267  Uiso   1.00
O15    O     0.38240   0.00470   0.88420   0.01267  Uiso   1.00
O16    O     0.27850   0.92920   0.94500   0.01267  Uiso   1.00
O17    O     0.24930   0.07260   0.71160   0.01267  Uiso   1.00
O18    O     0.26780   0.93960   0.70740   0.01267  Uiso   1.00
O19    O     0.25130   0.06590   0.81650   0.01267  Uiso   1.00
O20    O     0.26480   0.93800   0.81200   0.01267  Uiso   1.00
O21    O     0.14120   0.99350   0.89170   0.01267  Uiso   1.00
O22    O     0.24950   0.06870   0.94750   0.01267  Uiso   1.00
O23    O     0.03760   0.04760   0.93680   0.01267  Uiso   1.00
O24    O     0.14940   0.12350   0.99720   0.01267  Uiso   1.00
O25    O     0.51580   0.18530   0.43850   0.01267  Uiso   1.00
O26    O     0.51300   0.18130   0.56190   0.01267  Uiso   1.00
O27    O     0.51120   0.29430   0.43810   0.01267  Uiso   1.00
O28    O     0.51870   0.29140   0.56700   0.01267  Uiso   1.00
O29    O     0.63270   0.10430   0.50160   0.01267  Uiso   1.00
O30    O     0.52320   0.04670   0.43020   0.01267  Uiso   1.00
O31    O     0.73570   0.06050   0.44610   0.01267  Uiso   1.00
O32    O     0.62380   0.99520   0.37680   0.01267  Uiso   1.00
O33    O     0.89090   0.88740   0.50430   0.01267  Uiso   1.00
O34    O     0.99550   0.95270   0.43310   0.01267  Uiso   1.00
O35    O     0.78540   0.92030   0.44350   0.01267  Uiso   1.00
O36    O     0.89250   0.98740   0.37180   0.01267  Uiso   1.00
O37    O     0.88190   0.12550   0.00890   0.01267  Uiso   1.00
O38    O     0.98960   0.05060   0.07670   0.01267  Uiso   1.00
O39    O     0.88240   0.99530   0.11580   0.01267  Uiso   1.00
O40    O     0.77850   0.07080   0.05500   0.01267  Uiso   1.00
O41    O     0.74930   0.92740   0.28840   0.01267  Uiso   1.00
O42    O     0.76780   0.06040   0.29260   0.01267  Uiso   1.00
O43    O     0.75130   0.93410   0.18350   0.01267  Uiso   1.00
O44    O     0.76480   0.06200   0.18800   0.01267  Uiso   1.00
O45    O     0.64120   0.00650   0.10830   0.01267  Uiso   1.00
O46    O     0.74950   0.93130   0.05250   0.01267  Uiso   1.00
O47    O     0.53760   0.95240   0.06320   0.01267  Uiso   1.00
O48    O     0.64940   0.87650   0.00280   0.01267  Uiso   1.00
O49    O     0.01580   0.31470   0.93850   0.01267  Uiso   1.00
O50    O     0.01300   0.31870   0.06190   0.01267  Uiso   1.00
O51    O     0.01120   0.20570   0.93810   0.01267  Uiso   1.00
O52    O     0.01870   0.20860   0.06700   0.01267  Uiso   1.00
O53    O     0.13270   0.39570   0.00160   0.01267  Uiso   1.00
O54    O     0.02320   0.45330   0.93020   0.01267  Uiso   1.00
O55    O     0.23570   0.43950   0.94610   0.01267  Uiso   1.00
O56    O     0.12380   0.50480   0.87680   0.01267  Uiso   1.00
O57    O     0.39090   0.61260   0.00430   0.01267  Uiso   1.00
O58    O     0.49550   0.54730   0.93310   0.01267  Uiso   1.00
O59    O     0.28540   0.57970   0.94350   0.01267  Uiso   1.00
O60    O     0.39250   0.51260   0.87180   0.01267  Uiso   1.00
O61    O     0.38190   0.37450   0.50890   0.01267  Uiso   1.00
O62    O     0.48960   0.44940   0.57670   0.01267  Uiso   1.00
O63    O     0.38240   0.50470   0.61580   0.01267  Uiso   1.00
O64    O     0.27850   0.42920   0.55500   0.01267  Uiso   1.00
O65    O     0.24930   0.57260   0.78840   0.01267  Uiso   1.00
O66    O     0.26780   0.43960   0.79260   0.01267  Uiso   1.00
O67    O     0.25130   0.56590   0.68350   0.01267  Uiso   1.00
O68    O     0.26480   0.43800   0.68800   0.01267  Uiso   1.00
O69    O     0.14120   0.49350   0.60830   0.01267  Uiso   1.00
O70    O     0.24950   0.56870   0.55250   0.01267  Uiso   1.00
O71    O     0.03760   0.54760   0.56320   0.01267  Uiso   1.00
O72    O     0.14940   0.62350   0.50280   0.01267  Uiso   1.00
O73    O     0.51580   0.68530   0.06150   0.01267  Uiso   1.00
O74    O     0.51300   0.68130   0.93810   0.01267  Uiso   1.00
O75    O     0.51120   0.79430   0.06190   0.01267  Uiso   1.00
O76    O     0.51870   0.79140   0.93300   0.01267  Uiso   1.00
O77    O     0.63270   0.60430   0.99840   0.01267  Uiso   1.00
O78    O     0.52320   0.54670   0.06980   0.01267  Uiso   1.00
O79    O     0.73570   0.56050   0.05390   0.01267  Uiso   1.00
O80    O     0.62380   0.49520   0.12320   0.01267  Uiso   1.00
O81    O     0.89090   0.38740   0.99570   0.01267  Uiso   1.00
O82    O     0.99550   0.45270   0.06690   0.01267  Uiso   1.00
O83    O     0.78540   0.42030   0.05650   0.01267  Uiso   1.00
O84    O     0.89250   0.48740   0.12820   0.01267  Uiso   1.00
O85    O     0.88190   0.62550   0.49110   0.01267  Uiso   1.00
O86    O     0.98960   0.55060   0.42330   0.01267  Uiso   1.00
O87    O     0.88240   0.49530   0.38420   0.01267  Uiso   1.00
O88    O     0.77850   0.57080   0.44500   0.01267  Uiso   1.00
O89    O     0.74930   0.42740   0.21160   0.01267  Uiso   1.00
O90    O     0.76780   0.56040   0.20740   0.01267  Uiso   1.00
O91    O     0.75130   0.43410   0.31650   0.01267  Uiso   1.00
O92    O     0.76480   0.56200   0.31200   0.01267  Uiso   1.00
O93    O     0.64120   0.50650   0.39170   0.01267  Uiso   1.00
O94    O     0.74950   0.43130   0.44750   0.01267  Uiso   1.00
O95    O     0.53760   0.45240   0.43680   0.01267  Uiso   1.00
O96    O     0.64940   0.37650   0.49720   0.01267  Uiso   1.00
