data_image0
_cell_length_a       21.918
_cell_length_b       14.033
_cell_length_c       22.467
_cell_angle_alpha    90
_cell_angle_beta     92.639
_cell_angle_gamma    90

_symmetry_space_group_name_H-M    "P 1"
_symmetry_int_tables_number       1

loop_
  _symmetry_equiv_pos_as_xyz
  'x, y, z'

loop_
  _atom_site_label
  _atom_site_occupancy
  _atom_site_fract_x
  _atom_site_fract_y
  _atom_site_fract_z
  _atom_site_thermal_displace_type
  _atom_site_B_iso_or_equiv
  _atom_site_type_symbol
  Cr1      1.0000 0.76410  0.96190  0.65939  Biso   1.000  Cr
  Cr2      1.0000 0.51994  0.96637  0.67579  Biso   1.000  Cr
  Cr3      1.0000 0.88276  0.22569  0.53793  Biso   1.000  Cr
  Cr4      1.0000 0.91044  0.74084  0.80089  Biso   1.000  Cr
  O1       1.0000 0.68670  0.94340  0.60640  Biso   1.000  O
  O2       1.0000 0.69930  0.96290  0.72330  Biso   1.000  O
  O3       1.0000 0.58420  0.95930  0.61190  Biso   1.000  O
  O4       1.0000 0.59850  0.96280  0.73110  Biso   1.000  O
  O5       1.0000 0.76260  0.10690  0.64630  Biso   1.000  O
  O6       1.0000 0.82450  0.96960  0.59230  Biso   1.000  O
  O7       1.0000 0.80800  0.21730  0.59350  Biso   1.000  O
  O8       1.0000 0.87320  0.07980  0.54120  Biso   1.000  O
  O9       1.0000 0.83400  0.97600  0.72380  Biso   1.000  O
  O10      1.0000 0.78320  0.82290  0.67490  Biso   1.000  O
  O11      1.0000 0.89510  0.88320  0.78490  Biso   1.000  O
  O12      1.0000 0.84510  0.72970  0.73230  Biso   1.000  O
  O13      1.0000 0.44960  0.96960  0.61060  Biso   1.000  O
  O14      1.0000 0.50190  0.82080  0.67030  Biso   1.000  O
  O15      1.0000 0.39280  0.87080  0.55590  Biso   1.000  O
  O16      1.0000 0.44680  0.72150  0.61030  Biso   1.000  O
  O17      1.0000 0.51990  0.11600  0.68330  Biso   1.000  O
  O18      1.0000 0.46020  0.98280  0.74270  Biso   1.000  O
  O19      1.0000 0.47780  0.22840  0.73990  Biso   1.000  O
  O20      1.0000 0.41950  0.09530  0.79910  Biso   1.000  O
  O21      1.0000 0.83080  0.25160  0.45840  Biso   1.000  O
  O22      1.0000 0.95060  0.22360  0.47490  Biso   1.000  O
  O23      1.0000 0.84200  0.26470  0.36130  Biso   1.000  O
  O24      1.0000 0.96270  0.23890  0.37750  Biso   1.000  O
  C1       1.0000 0.63730  0.95400  0.63370  Biso   1.000  C
  C2       1.0000 0.64680  0.95880  0.70210  Biso   1.000  C
  C3       1.0000 0.79860  0.13020  0.60690  Biso   1.000  C
  C4       1.0000 0.83420  0.05210  0.57950  Biso   1.000  C
  C5       1.0000 0.85460  0.89590  0.74500  Biso   1.000  C
  C6       1.0000 0.82380  0.81030  0.71460  Biso   1.000  C
  C7       1.0000 0.43230  0.88760  0.59600  Biso   1.000  C
  C8       1.0000 0.46250  0.80140  0.62770  Biso   1.000  C
  C9       1.0000 0.48640  0.14430  0.72370  Biso   1.000  C
  C10      1.0000 0.45280  0.06770  0.75920  Biso   1.000  C
  C11      1.0000 0.86030  0.25280  0.41090  Biso   1.000  C
  C12      1.0000 0.93140  0.23730  0.42090  Biso   1.000  C
  Mn1      1.0000 0.41044  0.24084  0.80089  Biso   1.000  Mn
  Cr5      1.0000 0.26410  0.46190  0.65939  Biso   1.000  Cr
  Cr6      1.0000 0.01994  0.46637  0.67579  Biso   1.000  Cr
  Cr7      1.0000 0.38276  0.72569  0.53793  Biso   1.000  Cr
  O25      1.0000 0.18670  0.44340  0.60640  Biso   1.000  O
  O26      1.0000 0.19930  0.46290  0.72330  Biso   1.000  O
  O27      1.0000 0.08420  0.45930  0.61190  Biso   1.000  O
  O28      1.0000 0.09850  0.46280  0.73110  Biso   1.000  O
  O29      1.0000 0.26260  0.60690  0.64630  Biso   1.000  O
  O30      1.0000 0.32450  0.46960  0.59230  Biso   1.000  O
  O31      1.0000 0.30800  0.71730  0.59350  Biso   1.000  O
  O32      1.0000 0.37320  0.57980  0.54120  Biso   1.000  O
  O33      1.0000 0.33400  0.47600  0.72380  Biso   1.000  O
  O34      1.0000 0.28320  0.32290  0.67490  Biso   1.000  O
  O35      1.0000 0.39510  0.38320  0.78490  Biso   1.000  O
  O36      1.0000 0.34510  0.22970  0.73230  Biso   1.000  O
  O37      1.0000 0.94960  0.46960  0.61060  Biso   1.000  O
  O38      1.0000 0.00190  0.32080  0.67030  Biso   1.000  O
  O39      1.0000 0.89280  0.37080  0.55590  Biso   1.000  O
  O40      1.0000 0.94680  0.22150  0.61030  Biso   1.000  O
  O41      1.0000 0.01990  0.61600  0.68330  Biso   1.000  O
  O42      1.0000 0.96020  0.48280  0.74270  Biso   1.000  O
  O43      1.0000 0.97780  0.72840  0.73990  Biso   1.000  O
  O44      1.0000 0.91950  0.59530  0.79910  Biso   1.000  O
  O45      1.0000 0.33080  0.75160  0.45840  Biso   1.000  O
  O46      1.0000 0.45060  0.72360  0.47490  Biso   1.000  O
  O47      1.0000 0.34200  0.76470  0.36130  Biso   1.000  O
  O48      1.0000 0.46270  0.73890  0.37750  Biso   1.000  O
  C13      1.0000 0.13730  0.45400  0.63370  Biso   1.000  C
  C14      1.0000 0.14680  0.45880  0.70210  Biso   1.000  C
  C15      1.0000 0.29860  0.63020  0.60690  Biso   1.000  C
  C16      1.0000 0.33420  0.55210  0.57950  Biso   1.000  C
  C17      1.0000 0.35460  0.39590  0.74500  Biso   1.000  C
  C18      1.0000 0.32380  0.31030  0.71460  Biso   1.000  C
  C19      1.0000 0.93230  0.38760  0.59600  Biso   1.000  C
  C20      1.0000 0.96250  0.30140  0.62770  Biso   1.000  C
  C21      1.0000 0.98640  0.64430  0.72370  Biso   1.000  C
  C22      1.0000 0.95280  0.56770  0.75920  Biso   1.000  C
  C23      1.0000 0.36030  0.75280  0.41090  Biso   1.000  C
  C24      1.0000 0.43140  0.73730  0.42090  Biso   1.000  C
  Cr8      1.0000 0.76410  0.03810  0.15939  Biso   1.000  Cr
  Cr9      1.0000 0.51994  0.03363  0.17579  Biso   1.000  Cr
  Cr10     1.0000 0.88276  0.77431  0.03793  Biso   1.000  Cr
  Cr11     1.0000 0.91044  0.25916  0.30089  Biso   1.000  Cr
  O49      1.0000 0.68670  0.05660  0.10640  Biso   1.000  O
  O50      1.0000 0.69930  0.03710  0.22330  Biso   1.000  O
  O51      1.0000 0.58420  0.04070  0.11190  Biso   1.000  O
  O52      1.0000 0.59850  0.03720  0.23110  Biso   1.000  O
  O53      1.0000 0.76260  0.89310  0.14630  Biso   1.000  O
  O54      1.0000 0.82450  0.03040  0.09230  Biso   1.000  O
  O55      1.0000 0.80800  0.78270  0.09350  Biso   1.000  O
  O56      1.0000 0.87320  0.92020  0.04120  Biso   1.000  O
  O57      1.0000 0.83400  0.02400  0.22380  Biso   1.000  O
  O58      1.0000 0.78320  0.17710  0.17490  Biso   1.000  O
  O59      1.0000 0.89510  0.11680  0.28490  Biso   1.000  O
  O60      1.0000 0.84510  0.27030  0.23230  Biso   1.000  O
  O61      1.0000 0.44960  0.03040  0.11060  Biso   1.000  O
  O62      1.0000 0.50190  0.17920  0.17030  Biso   1.000  O
  O63      1.0000 0.39280  0.12920  0.05590  Biso   1.000  O
  O64      1.0000 0.44680  0.27850  0.11030  Biso   1.000  O
  O65      1.0000 0.51990  0.88400  0.18330  Biso   1.000  O
  O66      1.0000 0.46020  0.01720  0.24270  Biso   1.000  O
  O67      1.0000 0.47780  0.77160  0.23990  Biso   1.000  O
  O68      1.0000 0.41950  0.90470  0.29910  Biso   1.000  O
  O69      1.0000 0.83080  0.74840  0.95840  Biso   1.000  O
  O70      1.0000 0.95060  0.77640  0.97490  Biso   1.000  O
  O71      1.0000 0.84200  0.73530  0.86130  Biso   1.000  O
  O72      1.0000 0.96270  0.76110  0.87750  Biso   1.000  O
  C25      1.0000 0.63730  0.04600  0.13370  Biso   1.000  C
  C26      1.0000 0.64680  0.04120  0.20210  Biso   1.000  C
  C27      1.0000 0.79860  0.86980  0.10690  Biso   1.000  C
  C28      1.0000 0.83420  0.94790  0.07950  Biso   1.000  C
  C29      1.0000 0.85460  0.10410  0.24500  Biso   1.000  C
  C30      1.0000 0.82380  0.18970  0.21460  Biso   1.000  C
  C31      1.0000 0.43230  0.11240  0.09600  Biso   1.000  C
  C32      1.0000 0.46250  0.19860  0.12770  Biso   1.000  C
  C33      1.0000 0.48640  0.85570  0.22370  Biso   1.000  C
  C34      1.0000 0.45280  0.93230  0.25920  Biso   1.000  C
  C35      1.0000 0.86030  0.74720  0.91090  Biso   1.000  C
  C36      1.0000 0.93140  0.76270  0.92090  Biso   1.000  C
  Mn2      1.0000 0.41044  0.75916  0.30089  Biso   1.000  Mn
  Cr12     1.0000 0.26410  0.53810  0.15939  Biso   1.000  Cr
  Cr13     1.0000 0.01994  0.53363  0.17579  Biso   1.000  Cr
  Cr14     1.0000 0.38276  0.27431  0.03793  Biso   1.000  Cr
  O73      1.0000 0.18670  0.55660  0.10640  Biso   1.000  O
  O74      1.0000 0.19930  0.53710  0.22330  Biso   1.000  O
  O75      1.0000 0.08420  0.54070  0.11190  Biso   1.000  O
  O76      1.0000 0.09850  0.53720  0.23110  Biso   1.000  O
  O77      1.0000 0.26260  0.39310  0.14630  Biso   1.000  O
  O78      1.0000 0.32450  0.53040  0.09230  Biso   1.000  O
  O79      1.0000 0.30800  0.28270  0.09350  Biso   1.000  O
  O80      1.0000 0.37320  0.42020  0.04120  Biso   1.000  O
  O81      1.0000 0.33400  0.52400  0.22380  Biso   1.000  O
  O82      1.0000 0.28320  0.67710  0.17490  Biso   1.000  O
  O83      1.0000 0.39510  0.61680  0.28490  Biso   1.000  O
  O84      1.0000 0.34510  0.77030  0.23230  Biso   1.000  O
  O85      1.0000 0.94960  0.53040  0.11060  Biso   1.000  O
  O86      1.0000 0.00190  0.67920  0.17030  Biso   1.000  O
  O87      1.0000 0.89280  0.62920  0.05590  Biso   1.000  O
  O88      1.0000 0.94680  0.77850  0.11030  Biso   1.000  O
  O89      1.0000 0.01990  0.38400  0.18330  Biso   1.000  O
  O90      1.0000 0.96020  0.51720  0.24270  Biso   1.000  O
  O91      1.0000 0.97780  0.27160  0.23990  Biso   1.000  O
  O92      1.0000 0.91950  0.40470  0.29910  Biso   1.000  O
  O93      1.0000 0.33080  0.24840  0.95840  Biso   1.000  O
  O94      1.0000 0.45060  0.27640  0.97490  Biso   1.000  O
  O95      1.0000 0.34200  0.23530  0.86130  Biso   1.000  O
  O96      1.0000 0.46270  0.26110  0.87750  Biso   1.000  O
  C37      1.0000 0.13730  0.54600  0.13370  Biso   1.000  C
  C38      1.0000 0.14680  0.54120  0.20210  Biso   1.000  C
  C39      1.0000 0.29860  0.36980  0.10690  Biso   1.000  C
  C40      1.0000 0.33420  0.44790  0.07950  Biso   1.000  C
  C41      1.0000 0.35460  0.60410  0.24500  Biso   1.000  C
  C42      1.0000 0.32380  0.68970  0.21460  Biso   1.000  C
  C43      1.0000 0.93230  0.61240  0.09600  Biso   1.000  C
  C44      1.0000 0.96250  0.69860  0.12770  Biso   1.000  C
  C45      1.0000 0.98640  0.35570  0.22370  Biso   1.000  C
  C46      1.0000 0.95280  0.43230  0.25920  Biso   1.000  C
  C47      1.0000 0.36030  0.24720  0.91090  Biso   1.000  C
  C48      1.0000 0.43140  0.26270  0.92090  Biso   1.000  C
