data_GURZID01_clean
_audit_creation_date              2015-10-16
_audit_creation_method            'Materials Studio'
_symmetry_space_group_name_H-M    'P1'
_symmetry_Int_Tables_number       1
_symmetry_cell_setting            triclinic
loop_
_symmetry_equiv_pos_as_xyz
  x,y,z
_cell_length_a                    6.6224
_cell_length_b                    13.0407
_cell_length_c                    13.9772
_cell_angle_alpha                 90.0000
_cell_angle_beta                  90.0000
_cell_angle_gamma                 90.0000
loop_
_atom_site_label
_atom_site_type_symbol
_atom_site_fract_x
_atom_site_fract_y
_atom_site_fract_z
_atom_site_U_iso_or_equiv
_atom_site_adp_type
_atom_site_occupancy
Cd1    Cd    0.00000   0.75000   0.77406   0.01267  Uiso   1.00
Cd2    Cd    0.50000   0.75000   0.27406   0.01267  Uiso   1.00
Cd3    Cd    0.00000   0.25000   0.22594   0.01267  Uiso   1.00
Cd4    Cd    0.50000   0.25000   0.72594   0.01267  Uiso   1.00
Cu1    Cu    0.50000   0.00000   0.50000   0.01267  Uiso   1.00
Cu2    Cu    0.50000   0.50000   0.50000   0.01267  Uiso   1.00
Cu3    Cu    0.00000   0.00000   0.00000   0.01267  Uiso   1.00
Cu4    Cu    0.00000   0.50000   0.00000   0.01267  Uiso   1.00
H1     H     0.35520   0.89780   0.77090   0.01267  Uiso   1.00
H2     H     0.43410   0.61850   0.72330   0.01267  Uiso   1.00
H3     H     0.93410   0.38150   0.77670   0.01267  Uiso   1.00
H4     H     0.14480   0.89780   0.27090   0.01267  Uiso   1.00
H5     H     0.93410   0.88150   0.22330   0.01267  Uiso   1.00
H6     H     0.06590   0.11850   0.77670   0.01267  Uiso   1.00
H7     H     0.14480   0.39780   0.72910   0.01267  Uiso   1.00
H8     H     0.64480   0.60220   0.77090   0.01267  Uiso   1.00
H9     H     0.56590   0.38150   0.27670   0.01267  Uiso   1.00
H10    H     0.06590   0.61850   0.22330   0.01267  Uiso   1.00
H11    H     0.64480   0.10220   0.22910   0.01267  Uiso   1.00
H12    H     0.35520   0.39780   0.22910   0.01267  Uiso   1.00
H13    H     0.85520   0.60220   0.27090   0.01267  Uiso   1.00
H14    H     0.43410   0.11850   0.27670   0.01267  Uiso   1.00
H15    H     0.56590   0.88150   0.72330   0.01267  Uiso   1.00
H16    H     0.85520   0.10220   0.72910   0.01267  Uiso   1.00
C1     C     0.06740   0.41029   0.78688   0.01267  Uiso   1.00
C2     C     0.66610   0.64932   0.63281   0.01267  Uiso   1.00
C3     C     0.16610   0.85068   0.13281   0.01267  Uiso   1.00
C4     C     0.06740   0.91029   0.21312   0.01267  Uiso   1.00
C5     C     0.16610   0.35068   0.86719   0.01267  Uiso   1.00
C6     C     0.54380   0.47548   0.70252   0.01267  Uiso   1.00
C7     C     0.93260   0.58971   0.21312   0.01267  Uiso   1.00
C8     C     0.33390   0.85068   0.63281   0.01267  Uiso   1.00
C9     C     0.43260   0.91029   0.71312   0.01267  Uiso   1.00
C10    C     0.56740   0.08971   0.28688   0.01267  Uiso   1.00
C11    C     0.95620   0.97548   0.79748   0.01267  Uiso   1.00
C12    C     0.95620   0.47548   0.20252   0.01267  Uiso   1.00
C13    C     0.83390   0.14932   0.86719   0.01267  Uiso   1.00
C14    C     0.04380   0.02452   0.20252   0.01267  Uiso   1.00
C15    C     0.54380   0.97548   0.29748   0.01267  Uiso   1.00
C16    C     0.45620   0.02452   0.70252   0.01267  Uiso   1.00
C17    C     0.66610   0.14932   0.36719   0.01267  Uiso   1.00
C18    C     0.33390   0.35068   0.36719   0.01267  Uiso   1.00
C19    C     0.93260   0.08971   0.78688   0.01267  Uiso   1.00
C20    C     0.43260   0.41029   0.28688   0.01267  Uiso   1.00
C21    C     0.83390   0.64932   0.13281   0.01267  Uiso   1.00
C22    C     0.04380   0.52452   0.79748   0.01267  Uiso   1.00
C23    C     0.45620   0.52452   0.29748   0.01267  Uiso   1.00
C24    C     0.56740   0.58971   0.71312   0.01267  Uiso   1.00
O1     O     0.49330   0.93677   0.37697   0.01267  Uiso   1.00
O2     O     0.63800   0.12176   0.45336   0.01267  Uiso   1.00
O3     O     0.00670   0.93677   0.87697   0.01267  Uiso   1.00
O4     O     0.99330   0.56323   0.87697   0.01267  Uiso   1.00
O5     O     0.49330   0.43677   0.62303   0.01267  Uiso   1.00
O6     O     0.50670   0.56323   0.37697   0.01267  Uiso   1.00
O7     O     0.00670   0.43677   0.12303   0.01267  Uiso   1.00
O8     O     0.56610   0.91975   0.22630   0.01267  Uiso   1.00
O9     O     0.06610   0.58025   0.72630   0.01267  Uiso   1.00
O10    O     0.36200   0.37824   0.45336   0.01267  Uiso   1.00
O11    O     0.73660   0.72783   0.15330   0.01267  Uiso   1.00
O12    O     0.76340   0.72783   0.65330   0.01267  Uiso   1.00
O13    O     0.86200   0.12176   0.95336   0.01267  Uiso   1.00
O14    O     0.76340   0.22783   0.34670   0.01267  Uiso   1.00
O15    O     0.43390   0.08025   0.77370   0.01267  Uiso   1.00
O16    O     0.63800   0.62176   0.54664   0.01267  Uiso   1.00
O17    O     0.26340   0.27217   0.84670   0.01267  Uiso   1.00
O18    O     0.23660   0.77217   0.65330   0.01267  Uiso   1.00
O19    O     0.50670   0.06323   0.62303   0.01267  Uiso   1.00
O20    O     0.99330   0.06323   0.12303   0.01267  Uiso   1.00
O21    O     0.36200   0.87824   0.54664   0.01267  Uiso   1.00
O22    O     0.23660   0.27217   0.34670   0.01267  Uiso   1.00
O23    O     0.06610   0.08025   0.27370   0.01267  Uiso   1.00
O24    O     0.13800   0.87824   0.04664   0.01267  Uiso   1.00
O25    O     0.93390   0.91975   0.72630   0.01267  Uiso   1.00
O26    O     0.26340   0.77217   0.15330   0.01267  Uiso   1.00
O27    O     0.73660   0.22783   0.84670   0.01267  Uiso   1.00
O28    O     0.43390   0.58025   0.22630   0.01267  Uiso   1.00
O29    O     0.13800   0.37824   0.95336   0.01267  Uiso   1.00
O30    O     0.93390   0.41975   0.27370   0.01267  Uiso   1.00
O31    O     0.86200   0.62176   0.04664   0.01267  Uiso   1.00
O32    O     0.56610   0.41975   0.77370   0.01267  Uiso   1.00
