data_GURZID_clean
_audit_creation_date              2014-07-02
_audit_creation_method            'Materials Studio'
_symmetry_space_group_name_H-M    'P1'
_symmetry_Int_Tables_number       1
_symmetry_cell_setting            triclinic
loop_
_symmetry_equiv_pos_as_xyz
  x,y,z
_cell_length_a                    6.6260
_cell_length_b                    13.0520
_cell_length_c                    13.9580
_cell_angle_alpha                 90.0000
_cell_angle_beta                  90.0000
_cell_angle_gamma                 90.0000
loop_
_atom_site_label
_atom_site_type_symbol
_atom_site_fract_x
_atom_site_fract_y
_atom_site_fract_z
_atom_site_U_iso_or_equiv
_atom_site_adp_type
_atom_site_occupancy
Cd1    Cd    0.00000   0.25000   0.77423   0.01267  Uiso   1.00
Cd2    Cd    0.50000   0.75000   0.72577   0.01267  Uiso   1.00
Cd3    Cd    0.00000   0.75000   0.22577   0.01267  Uiso   1.00
Cd4    Cd    0.50000   0.25000   0.27423   0.01267  Uiso   1.00
Cu1    Cu    0.50000   0.50000   0.50000   0.01267  Uiso   1.00
Cu2    Cu    0.00000   0.00000   0.00000   0.01267  Uiso   1.00
Cu3    Cu    0.50000   0.00000   0.50000   0.01267  Uiso   1.00
Cu4    Cu    0.00000   0.50000   0.00000   0.01267  Uiso   1.00
H1     H     0.43360   0.38150   0.72360   0.01267  Uiso   1.00
H2     H     0.64410   0.39760   0.77140   0.01267  Uiso   1.00
H3     H     0.06640   0.88150   0.77640   0.01267  Uiso   1.00
H4     H     0.85590   0.89760   0.72860   0.01267  Uiso   1.00
H5     H     0.56640   0.11850   0.72360   0.01267  Uiso   1.00
H6     H     0.35590   0.10240   0.77140   0.01267  Uiso   1.00
H7     H     0.93360   0.61850   0.77640   0.01267  Uiso   1.00
H8     H     0.14410   0.60240   0.72860   0.01267  Uiso   1.00
H9     H     0.56640   0.61850   0.27640   0.01267  Uiso   1.00
H10    H     0.35590   0.60240   0.22860   0.01267  Uiso   1.00
H11    H     0.93360   0.11850   0.22360   0.01267  Uiso   1.00
H12    H     0.14410   0.10240   0.27140   0.01267  Uiso   1.00
H13    H     0.43360   0.88150   0.27640   0.01267  Uiso   1.00
H14    H     0.64410   0.89760   0.22860   0.01267  Uiso   1.00
H15    H     0.06640   0.38150   0.22360   0.01267  Uiso   1.00
H16    H     0.85590   0.39760   0.27140   0.01267  Uiso   1.00
C1     C     0.66570   0.35070   0.63298   0.01267  Uiso   1.00
C2     C     0.56690   0.41010   0.71350   0.01267  Uiso   1.00
C3     C     0.54400   0.52450   0.70250   0.01267  Uiso   1.00
C4     C     0.83430   0.85070   0.86702   0.01267  Uiso   1.00
C5     C     0.93310   0.91010   0.78650   0.01267  Uiso   1.00
C6     C     0.95600   0.02450   0.79750   0.01267  Uiso   1.00
C7     C     0.33430   0.14930   0.63298   0.01267  Uiso   1.00
C8     C     0.43310   0.08990   0.71350   0.01267  Uiso   1.00
C9     C     0.45600   0.97550   0.70250   0.01267  Uiso   1.00
C10    C     0.16570   0.64930   0.86702   0.01267  Uiso   1.00
C11    C     0.06690   0.58990   0.78650   0.01267  Uiso   1.00
C12    C     0.04400   0.47550   0.79750   0.01267  Uiso   1.00
C13    C     0.33430   0.64930   0.36702   0.01267  Uiso   1.00
C14    C     0.43310   0.58990   0.28650   0.01267  Uiso   1.00
C15    C     0.45600   0.47550   0.29750   0.01267  Uiso   1.00
C16    C     0.16570   0.14930   0.13298   0.01267  Uiso   1.00
C17    C     0.06690   0.08990   0.21350   0.01267  Uiso   1.00
C18    C     0.04400   0.97550   0.20250   0.01267  Uiso   1.00
C19    C     0.66570   0.85070   0.36702   0.01267  Uiso   1.00
C20    C     0.56690   0.91010   0.28650   0.01267  Uiso   1.00
C21    C     0.54400   0.02450   0.29750   0.01267  Uiso   1.00
C22    C     0.83430   0.35070   0.13298   0.01267  Uiso   1.00
C23    C     0.93310   0.41010   0.21350   0.01267  Uiso   1.00
C24    C     0.95600   0.52450   0.20250   0.01267  Uiso   1.00
O1     O     0.76310   0.27235   0.65350   0.01267  Uiso   1.00
O2     O     0.63760   0.37808   0.54691   0.01267  Uiso   1.00
O3     O     0.49330   0.56341   0.62323   0.01267  Uiso   1.00
O4     O     0.56600   0.58042   0.77397   0.01267  Uiso   1.00
O5     O     0.73690   0.77235   0.84650   0.01267  Uiso   1.00
O6     O     0.86240   0.87808   0.95309   0.01267  Uiso   1.00
O7     O     0.00670   0.06341   0.87677   0.01267  Uiso   1.00
O8     O     0.93400   0.08042   0.72603   0.01267  Uiso   1.00
O9     O     0.23690   0.22765   0.65350   0.01267  Uiso   1.00
O10    O     0.36240   0.12192   0.54691   0.01267  Uiso   1.00
O11    O     0.50670   0.93659   0.62323   0.01267  Uiso   1.00
O12    O     0.43400   0.91958   0.77397   0.01267  Uiso   1.00
O13    O     0.26310   0.72765   0.84650   0.01267  Uiso   1.00
O14    O     0.13760   0.62192   0.95309   0.01267  Uiso   1.00
O15    O     0.99330   0.43659   0.87677   0.01267  Uiso   1.00
O16    O     0.06600   0.41958   0.72603   0.01267  Uiso   1.00
O17    O     0.23690   0.72765   0.34650   0.01267  Uiso   1.00
O18    O     0.36240   0.62192   0.45309   0.01267  Uiso   1.00
O19    O     0.50670   0.43659   0.37677   0.01267  Uiso   1.00
O20    O     0.43400   0.41958   0.22603   0.01267  Uiso   1.00
O21    O     0.26310   0.22765   0.15350   0.01267  Uiso   1.00
O22    O     0.13760   0.12192   0.04691   0.01267  Uiso   1.00
O23    O     0.99330   0.93659   0.12323   0.01267  Uiso   1.00
O24    O     0.06600   0.91958   0.27397   0.01267  Uiso   1.00
O25    O     0.76310   0.77235   0.34650   0.01267  Uiso   1.00
O26    O     0.63760   0.87808   0.45309   0.01267  Uiso   1.00
O27    O     0.49330   0.06341   0.37677   0.01267  Uiso   1.00
O28    O     0.56600   0.08042   0.22603   0.01267  Uiso   1.00
O29    O     0.73690   0.27235   0.15350   0.01267  Uiso   1.00
O30    O     0.86240   0.37808   0.04691   0.01267  Uiso   1.00
O31    O     0.00670   0.56341   0.12323   0.01267  Uiso   1.00
O32    O     0.93400   0.58042   0.27397   0.01267  Uiso   1.00
