data_GUSCIH_clean
_audit_creation_date              2014-07-02
_audit_creation_method            'Materials Studio'
_symmetry_space_group_name_H-M    'P1'
_symmetry_Int_Tables_number       1
_symmetry_cell_setting            triclinic
loop_
_symmetry_equiv_pos_as_xyz
  x,y,z
_cell_length_a                    9.9962
_cell_length_b                    10.6260
_cell_length_c                    10.8273
_cell_angle_alpha                 80.5520
_cell_angle_beta                  73.1170
_cell_angle_gamma                 74.1290
loop_
_atom_site_label
_atom_site_type_symbol
_atom_site_fract_x
_atom_site_fract_y
_atom_site_fract_z
_atom_site_U_iso_or_equiv
_atom_site_adp_type
_atom_site_occupancy
Gd1    Gd    0.67484   0.69283   0.03667   0.01267  Uiso   1.00
Gd2    Gd    0.32516   0.30717   0.96333   0.01267  Uiso   1.00
Ni1    Ni    0.78685   0.86753   0.62009   0.01267  Uiso   1.00
Ni2    Ni    0.21315   0.13247   0.37991   0.01267  Uiso   1.00
H1     H     0.56380   0.69440   0.73980   0.01267  Uiso   1.00
H2     H     0.36570   0.66540   0.69070   0.01267  Uiso   1.00
H3     H     0.31900   0.75570   0.49390   0.01267  Uiso   1.00
H4     H     0.98320   0.26990   0.62030   0.01267  Uiso   1.00
H5     H     0.77580   0.43600   0.65270   0.01267  Uiso   1.00
H6     H     0.69970   0.55250   0.47410   0.01267  Uiso   1.00
H7     H     0.43620   0.30560   0.26020   0.01267  Uiso   1.00
H8     H     0.63430   0.33460   0.30930   0.01267  Uiso   1.00
H9     H     0.68100   0.24430   0.50610   0.01267  Uiso   1.00
H10    H     0.01680   0.73010   0.37970   0.01267  Uiso   1.00
H11    H     0.22420   0.56400   0.34730   0.01267  Uiso   1.00
H12    H     0.30030   0.44750   0.52590   0.01267  Uiso   1.00
C1     C     0.54500   0.73110   0.66070   0.01267  Uiso   1.00
C2     C     0.42630   0.71280   0.63180   0.01267  Uiso   1.00
C3     C     0.39930   0.76580   0.51450   0.01267  Uiso   1.00
C4     C     0.49270   0.83500   0.42620   0.01267  Uiso   1.00
C5     C     0.60890   0.85060   0.46270   0.01267  Uiso   1.00
C6     C     0.71420   0.92990   0.38060   0.01267  Uiso   1.00
C7     C     0.46640   0.88350   0.29480   0.01267  Uiso   1.00
C8     C     0.95420   0.31830   0.54890   0.01267  Uiso   1.00
C9     C     0.82910   0.41700   0.56910   0.01267  Uiso   1.00
C10    C     0.78470   0.48710   0.46250   0.01267  Uiso   1.00
C11    C     0.86750   0.45960   0.33830   0.01267  Uiso   1.00
C12    C     0.99330   0.36120   0.32680   0.01267  Uiso   1.00
C13    C     0.09910   0.32970   0.19890   0.01267  Uiso   1.00
C14    C     0.81420   0.53800   0.22400   0.01267  Uiso   1.00
C15    C     0.44030   0.52280   0.06090   0.01267  Uiso   1.00
C16    C     0.45500   0.26890   0.33930   0.01267  Uiso   1.00
C17    C     0.57370   0.28720   0.36820   0.01267  Uiso   1.00
C18    C     0.60070   0.23420   0.48550   0.01267  Uiso   1.00
C19    C     0.50730   0.16500   0.57380   0.01267  Uiso   1.00
C20    C     0.39110   0.14940   0.53730   0.01267  Uiso   1.00
C21    C     0.28580   0.07010   0.61940   0.01267  Uiso   1.00
C22    C     0.53360   0.11650   0.70520   0.01267  Uiso   1.00
C23    C     0.04580   0.68170   0.45110   0.01267  Uiso   1.00
C24    C     0.17090   0.58300   0.43090   0.01267  Uiso   1.00
C25    C     0.21530   0.51290   0.53750   0.01267  Uiso   1.00
C26    C     0.13250   0.54040   0.66170   0.01267  Uiso   1.00
C27    C     0.00670   0.63880   0.67320   0.01267  Uiso   1.00
C28    C     0.90090   0.67030   0.80110   0.01267  Uiso   1.00
C29    C     0.18580   0.46200   0.77600   0.01267  Uiso   1.00
C30    C     0.55970   0.47720   0.93910   0.01267  Uiso   1.00
N1     N     0.63360   0.79960   0.57920   0.01267  Uiso   1.00
N2     N     0.03470   0.29020   0.43010   0.01267  Uiso   1.00
N3     N     0.36640   0.20040   0.42080   0.01267  Uiso   1.00
N4     N     0.96530   0.70980   0.56990   0.01267  Uiso   1.00
O1     O     0.80190   0.94840   0.43546   0.01267  Uiso   1.00
O2     O     0.70630   0.97330   0.26847   0.01267  Uiso   1.00
O3     O     0.52640   0.80460   0.20968   0.01267  Uiso   1.00
O4     O     0.38290   0.99190   0.27735   0.01267  Uiso   1.00
O5     O     0.07900   0.39610   0.09702   0.01267  Uiso   1.00
O6     O     0.21190   0.23840   0.20067   0.01267  Uiso   1.00
O7     O     0.74650   0.48920   0.17110   0.01267  Uiso   1.00
O8     O     0.83030   0.65270   0.19350   0.01267  Uiso   1.00
O9     O     0.45650   0.60830   0.11750   0.01267  Uiso   1.00
O10    O     0.33630   0.46830   0.09314   0.01267  Uiso   1.00
O11    O     0.19810   0.05160   0.56454   0.01267  Uiso   1.00
O12    O     0.29370   0.02670   0.73153   0.01267  Uiso   1.00
O13    O     0.47360   0.19540   0.79032   0.01267  Uiso   1.00
O14    O     0.61710   0.00810   0.72265   0.01267  Uiso   1.00
O15    O     0.92100   0.60390   0.90298   0.01267  Uiso   1.00
O16    O     0.78810   0.76160   0.79933   0.01267  Uiso   1.00
O17    O     0.25350   0.51080   0.82890   0.01267  Uiso   1.00
O18    O     0.16970   0.34730   0.80650   0.01267  Uiso   1.00
O19    O     0.54350   0.39170   0.88250   0.01267  Uiso   1.00
O20    O     0.66370   0.53170   0.90686   0.01267  Uiso   1.00
