data_image0
_cell_length_a       24.042
_cell_length_b       12.49
_cell_length_c       31.15
_cell_angle_alpha    90
_cell_angle_beta     107.8
_cell_angle_gamma    90

_symmetry_space_group_name_H-M    "P 1"
_symmetry_int_tables_number       1

loop_
  _symmetry_equiv_pos_as_xyz
  'x, y, z'

loop_
  _atom_site_label
  _atom_site_occupancy
  _atom_site_fract_x
  _atom_site_fract_y
  _atom_site_fract_z
  _atom_site_thermal_displace_type
  _atom_site_B_iso_or_equiv
  _atom_site_type_symbol
  Pt1      1.0000 0.28217  0.49248  0.39029  Biso   1.000  Pt
  Cu1      1.0000 0.53736  0.80281  0.45702  Biso   1.000  Cu
  Cu2      1.0000 0.59980  0.87048  0.57071  Biso   1.000  Cu
  N1       1.0000 0.29200  0.53440  0.33030  Biso   1.000  N
  H1       1.0000 0.27060  0.59280  0.31920  Biso   1.000  H
  H2       1.0000 0.32970  0.54880  0.33340  Biso   1.000  H
  N2       1.0000 0.27330  0.34160  0.36430  Biso   1.000  N
  H3       1.0000 0.29970  0.29800  0.38280  Biso   1.000  H
  H4       1.0000 0.23740  0.31650  0.36190  Biso   1.000  H
  N3       1.0000 0.29460  0.64460  0.41430  Biso   1.000  N
  N4       1.0000 0.77570  0.94290  0.45010  Biso   1.000  N
  N5       1.0000 0.52920  0.61240  0.79530  Biso   1.000  N
  H5       1.0000 0.56720  0.62220  0.81050  Biso   1.000  H
  H6       1.0000 0.50870  0.61100  0.81510  Biso   1.000  H
  N6       1.0000 0.46920  0.84570  0.70160  Biso   1.000  N
  O1       1.0000 0.42270  0.93520  0.46740  Biso   1.000  O
  O2       1.0000 0.45140  0.78820  0.43810  Biso   1.000  O
  O3       1.0000 0.62010  0.83550  0.46690  Biso   1.000  O
  O4       1.0000 0.66000  0.84930  0.54210  Biso   1.000  O
  O5       1.0000 0.47760  0.00240  0.56720  Biso   1.000  O
  O6       1.0000 0.54800  0.89440  0.60630  Biso   1.000  O
  O7       1.0000 0.53450  0.85800  0.51520  Biso   1.000  O
  C1       1.0000 0.27130  0.44000  0.29920  Biso   1.000  C
  H7       1.0000 0.22960  0.44680  0.28480  Biso   1.000  H
  H8       1.0000 0.29000  0.44290  0.27560  Biso   1.000  H
  C2       1.0000 0.28210  0.34300  0.31930  Biso   1.000  C
  H9       1.0000 0.32210  0.32210  0.32240  Biso   1.000  H
  H10      1.0000 0.25650  0.29010  0.30020  Biso   1.000  H
  C3       1.0000 0.34410  0.69570  0.42080  Biso   1.000  C
  H11      1.0000 0.37420  0.66160  0.41310  Biso   1.000  H
  C4       1.0000 0.35380  0.79790  0.43850  Biso   1.000  C
  C5       1.0000 0.31010  0.85150  0.44780  Biso   1.000  C
  H12      1.0000 0.31580  0.91990  0.46030  Biso   1.000  H
  C6       1.0000 0.25690  0.80110  0.43820  Biso   1.000  C
  H13      1.0000 0.22520  0.83800  0.44210  Biso   1.000  H
  C7       1.0000 0.24970  0.69880  0.42300  Biso   1.000  C
  H14      1.0000 0.21380  0.66500  0.41850  Biso   1.000  H
  C8       1.0000 0.41420  0.84510  0.44840  Biso   1.000  C
  C9       1.0000 0.72530  0.90590  0.45540  Biso   1.000  C
  H15      1.0000 0.69310  0.89650  0.43000  Biso   1.000  H
  C10      1.0000 0.71980  0.88130  0.49790  Biso   1.000  C
  C11      1.0000 0.76860  0.88970  0.53500  Biso   1.000  C
  H16      1.0000 0.76740  0.87110  0.56360  Biso   1.000  H
  C12      1.0000 0.81920  0.92650  0.52840  Biso   1.000  C
  H17      1.0000 0.85290  0.93410  0.55270  Biso   1.000  H
  C13      1.0000 0.81990  0.95220  0.48540  Biso   1.000  C
  H18      1.0000 0.85460  0.97780  0.48190  Biso   1.000  H
  C14      1.0000 0.66060  0.85290  0.50110  Biso   1.000  C
  C15      1.0000 0.52100  0.50860  0.76890  Biso   1.000  C
  H19      1.0000 0.55710  0.49160  0.76290  Biso   1.000  H
  H20      1.0000 0.51350  0.45190  0.78770  Biso   1.000  H
  C16      1.0000 0.49350  0.85790  0.66850  Biso   1.000  C
  H21      1.0000 0.52430  0.81380  0.66760  Biso   1.000  H
  C17      1.0000 0.47370  0.93380  0.63630  Biso   1.000  C
  C18      1.0000 0.42530  0.99580  0.63640  Biso   1.000  C
  H22      1.0000 0.40960  0.04530  0.61360  Biso   1.000  H
  C19      1.0000 0.40240  0.98300  0.66970  Biso   1.000  C
  H23      1.0000 0.37160  0.02590  0.67110  Biso   1.000  H
  C20      1.0000 0.42360  0.90500  0.70200  Biso   1.000  C
  H24      1.0000 0.40580  0.89500  0.72440  Biso   1.000  H
  C21      1.0000 0.50160  0.94710  0.59970  Biso   1.000  C
  Pt2      1.0000 0.78217  0.99248  0.39029  Biso   1.000  Pt
  Cu3      1.0000 0.03736  0.30281  0.45702  Biso   1.000  Cu
  Cu4      1.0000 0.09980  0.37048  0.57071  Biso   1.000  Cu
  N7       1.0000 0.79200  0.03440  0.33030  Biso   1.000  N
  H25      1.0000 0.77060  0.09280  0.31920  Biso   1.000  H
  H26      1.0000 0.82970  0.04880  0.33340  Biso   1.000  H
  N8       1.0000 0.77330  0.84160  0.36430  Biso   1.000  N
  H27      1.0000 0.79970  0.79800  0.38280  Biso   1.000  H
  H28      1.0000 0.73740  0.81650  0.36190  Biso   1.000  H
  N9       1.0000 0.79460  0.14460  0.41430  Biso   1.000  N
  N10      1.0000 0.27570  0.44290  0.45010  Biso   1.000  N
  N11      1.0000 0.02920  0.11240  0.79530  Biso   1.000  N
  H29      1.0000 0.06720  0.12220  0.81050  Biso   1.000  H
  H30      1.0000 0.00870  0.11100  0.81510  Biso   1.000  H
  N12      1.0000 0.96920  0.34570  0.70160  Biso   1.000  N
  O8       1.0000 0.92270  0.43520  0.46740  Biso   1.000  O
  O9       1.0000 0.95140  0.28820  0.43810  Biso   1.000  O
  O10      1.0000 0.12010  0.33550  0.46690  Biso   1.000  O
  O11      1.0000 0.16000  0.34930  0.54210  Biso   1.000  O
  O12      1.0000 0.97760  0.50240  0.56720  Biso   1.000  O
  O13      1.0000 0.04800  0.39440  0.60630  Biso   1.000  O
  O14      1.0000 0.03450  0.35800  0.51520  Biso   1.000  O
  C22      1.0000 0.77130  0.94000  0.29920  Biso   1.000  C
  H31      1.0000 0.72960  0.94680  0.28480  Biso   1.000  H
  H32      1.0000 0.79000  0.94290  0.27560  Biso   1.000  H
  C23      1.0000 0.78210  0.84300  0.31930  Biso   1.000  C
  H33      1.0000 0.82210  0.82210  0.32240  Biso   1.000  H
  H34      1.0000 0.75650  0.79010  0.30020  Biso   1.000  H
  C24      1.0000 0.84410  0.19570  0.42080  Biso   1.000  C
  H35      1.0000 0.87420  0.16160  0.41310  Biso   1.000  H
  C25      1.0000 0.85380  0.29790  0.43850  Biso   1.000  C
  C26      1.0000 0.81010  0.35150  0.44780  Biso   1.000  C
  H36      1.0000 0.81580  0.41990  0.46030  Biso   1.000  H
  C27      1.0000 0.75690  0.30110  0.43820  Biso   1.000  C
  H37      1.0000 0.72520  0.33800  0.44210  Biso   1.000  H
  C28      1.0000 0.74970  0.19880  0.42300  Biso   1.000  C
  H38      1.0000 0.71380  0.16500  0.41850  Biso   1.000  H
  C29      1.0000 0.91420  0.34510  0.44840  Biso   1.000  C
  C30      1.0000 0.22530  0.40590  0.45540  Biso   1.000  C
  H39      1.0000 0.19310  0.39650  0.43000  Biso   1.000  H
  C31      1.0000 0.21980  0.38130  0.49790  Biso   1.000  C
  C32      1.0000 0.26860  0.38970  0.53500  Biso   1.000  C
  H40      1.0000 0.26740  0.37110  0.56360  Biso   1.000  H
  C33      1.0000 0.31920  0.42650  0.52840  Biso   1.000  C
  H41      1.0000 0.35290  0.43410  0.55270  Biso   1.000  H
  C34      1.0000 0.31990  0.45220  0.48540  Biso   1.000  C
  H42      1.0000 0.35460  0.47780  0.48190  Biso   1.000  H
  C35      1.0000 0.16060  0.35290  0.50110  Biso   1.000  C
  C36      1.0000 0.02100  0.00860  0.76890  Biso   1.000  C
  H43      1.0000 0.05710  0.99160  0.76290  Biso   1.000  H
  H44      1.0000 0.01350  0.95190  0.78770  Biso   1.000  H
  C37      1.0000 0.99350  0.35790  0.66850  Biso   1.000  C
  H45      1.0000 0.02430  0.31380  0.66760  Biso   1.000  H
  C38      1.0000 0.97370  0.43380  0.63630  Biso   1.000  C
  C39      1.0000 0.92530  0.49580  0.63640  Biso   1.000  C
  H46      1.0000 0.90960  0.54530  0.61360  Biso   1.000  H
  C40      1.0000 0.90240  0.48300  0.66970  Biso   1.000  C
  H47      1.0000 0.87160  0.52590  0.67110  Biso   1.000  H
  C41      1.0000 0.92360  0.40500  0.70200  Biso   1.000  C
  H48      1.0000 0.90580  0.39500  0.72440  Biso   1.000  H
  C42      1.0000 0.00160  0.44710  0.59970  Biso   1.000  C
  Pt3      1.0000 0.71783  0.49248  0.10971  Biso   1.000  Pt
  Cu5      1.0000 0.46264  0.80281  0.04298  Biso   1.000  Cu
  Cu6      1.0000 0.40020  0.87048  0.92929  Biso   1.000  Cu
  N13      1.0000 0.70800  0.53440  0.16970  Biso   1.000  N
  H49      1.0000 0.72940  0.59280  0.18080  Biso   1.000  H
  H50      1.0000 0.67030  0.54880  0.16660  Biso   1.000  H
  N14      1.0000 0.72670  0.34160  0.13570  Biso   1.000  N
  H51      1.0000 0.70030  0.29800  0.11720  Biso   1.000  H
  H52      1.0000 0.76260  0.31650  0.13810  Biso   1.000  H
  N15      1.0000 0.70540  0.64460  0.08570  Biso   1.000  N
  N16      1.0000 0.22430  0.94290  0.04990  Biso   1.000  N
  N17      1.0000 0.47080  0.61240  0.70470  Biso   1.000  N
  H53      1.0000 0.43280  0.62220  0.68950  Biso   1.000  H
  H54      1.0000 0.49130  0.61100  0.68490  Biso   1.000  H
  N18      1.0000 0.53080  0.84570  0.79840  Biso   1.000  N
  O15      1.0000 0.57730  0.93520  0.03260  Biso   1.000  O
  O16      1.0000 0.54860  0.78820  0.06190  Biso   1.000  O
  O17      1.0000 0.37990  0.83550  0.03310  Biso   1.000  O
  O18      1.0000 0.34000  0.84930  0.95790  Biso   1.000  O
  O19      1.0000 0.52240  0.00240  0.93280  Biso   1.000  O
  O20      1.0000 0.45200  0.89440  0.89370  Biso   1.000  O
  O21      1.0000 0.46550  0.85800  0.98480  Biso   1.000  O
  C43      1.0000 0.72870  0.44000  0.20080  Biso   1.000  C
  H55      1.0000 0.77040  0.44680  0.21520  Biso   1.000  H
  H56      1.0000 0.71000  0.44290  0.22440  Biso   1.000  H
  C44      1.0000 0.71790  0.34300  0.18070  Biso   1.000  C
  H57      1.0000 0.67790  0.32210  0.17760  Biso   1.000  H
  H58      1.0000 0.74350  0.29010  0.19980  Biso   1.000  H
  C45      1.0000 0.65590  0.69570  0.07920  Biso   1.000  C
  H59      1.0000 0.62580  0.66160  0.08690  Biso   1.000  H
  C46      1.0000 0.64620  0.79790  0.06150  Biso   1.000  C
  C47      1.0000 0.68990  0.85150  0.05220  Biso   1.000  C
  H60      1.0000 0.68420  0.91990  0.03970  Biso   1.000  H
  C48      1.0000 0.74310  0.80110  0.06180  Biso   1.000  C
  H61      1.0000 0.77480  0.83800  0.05790  Biso   1.000  H
  C49      1.0000 0.75030  0.69880  0.07700  Biso   1.000  C
  H62      1.0000 0.78620  0.66500  0.08150  Biso   1.000  H
  C50      1.0000 0.58580  0.84510  0.05160  Biso   1.000  C
  C51      1.0000 0.27470  0.90590  0.04460  Biso   1.000  C
  H63      1.0000 0.30690  0.89650  0.07000  Biso   1.000  H
  C52      1.0000 0.28020  0.88130  0.00210  Biso   1.000  C
  C53      1.0000 0.23140  0.88970  0.96500  Biso   1.000  C
  H64      1.0000 0.23260  0.87110  0.93640  Biso   1.000  H
  C54      1.0000 0.18080  0.92650  0.97160  Biso   1.000  C
  H65      1.0000 0.14710  0.93410  0.94730  Biso   1.000  H
  C55      1.0000 0.18010  0.95220  0.01460  Biso   1.000  C
  H66      1.0000 0.14540  0.97780  0.01810  Biso   1.000  H
  C56      1.0000 0.33940  0.85290  0.99890  Biso   1.000  C
  C57      1.0000 0.47900  0.50860  0.73110  Biso   1.000  C
  H67      1.0000 0.44290  0.49160  0.73710  Biso   1.000  H
  H68      1.0000 0.48650  0.45190  0.71230  Biso   1.000  H
  C58      1.0000 0.50650  0.85790  0.83150  Biso   1.000  C
  H69      1.0000 0.47570  0.81380  0.83240  Biso   1.000  H
  C59      1.0000 0.52630  0.93380  0.86370  Biso   1.000  C
  C60      1.0000 0.57470  0.99580  0.86360  Biso   1.000  C
  H70      1.0000 0.59040  0.04530  0.88640  Biso   1.000  H
  C61      1.0000 0.59760  0.98300  0.83030  Biso   1.000  C
  H71      1.0000 0.62840  0.02590  0.82890  Biso   1.000  H
  C62      1.0000 0.57640  0.90500  0.79800  Biso   1.000  C
  H72      1.0000 0.59420  0.89500  0.77560  Biso   1.000  H
  C63      1.0000 0.49840  0.94710  0.90030  Biso   1.000  C
  Pt4      1.0000 0.21783  0.99248  0.10971  Biso   1.000  Pt
  Cu7      1.0000 0.96264  0.30281  0.04298  Biso   1.000  Cu
  Cu8      1.0000 0.90020  0.37048  0.92929  Biso   1.000  Cu
  N19      1.0000 0.20800  0.03440  0.16970  Biso   1.000  N
  H73      1.0000 0.22940  0.09280  0.18080  Biso   1.000  H
  H74      1.0000 0.17030  0.04880  0.16660  Biso   1.000  H
  N20      1.0000 0.22670  0.84160  0.13570  Biso   1.000  N
  H75      1.0000 0.20030  0.79800  0.11720  Biso   1.000  H
  H76      1.0000 0.26260  0.81650  0.13810  Biso   1.000  H
  N21      1.0000 0.20540  0.14460  0.08570  Biso   1.000  N
  N22      1.0000 0.72430  0.44290  0.04990  Biso   1.000  N
  N23      1.0000 0.97080  0.11240  0.70470  Biso   1.000  N
  H77      1.0000 0.93280  0.12220  0.68950  Biso   1.000  H
  H78      1.0000 0.99130  0.11100  0.68490  Biso   1.000  H
  N24      1.0000 0.03080  0.34570  0.79840  Biso   1.000  N
  O22      1.0000 0.07730  0.43520  0.03260  Biso   1.000  O
  O23      1.0000 0.04860  0.28820  0.06190  Biso   1.000  O
  O24      1.0000 0.87990  0.33550  0.03310  Biso   1.000  O
  O25      1.0000 0.84000  0.34930  0.95790  Biso   1.000  O
  O26      1.0000 0.02240  0.50240  0.93280  Biso   1.000  O
  O27      1.0000 0.95200  0.39440  0.89370  Biso   1.000  O
  O28      1.0000 0.96550  0.35800  0.98480  Biso   1.000  O
  C64      1.0000 0.22870  0.94000  0.20080  Biso   1.000  C
  H79      1.0000 0.27040  0.94680  0.21520  Biso   1.000  H
  H80      1.0000 0.21000  0.94290  0.22440  Biso   1.000  H
  C65      1.0000 0.21790  0.84300  0.18070  Biso   1.000  C
  H81      1.0000 0.17790  0.82210  0.17760  Biso   1.000  H
  H82      1.0000 0.24350  0.79010  0.19980  Biso   1.000  H
  C66      1.0000 0.15590  0.19570  0.07920  Biso   1.000  C
  H83      1.0000 0.12580  0.16160  0.08690  Biso   1.000  H
  C67      1.0000 0.14620  0.29790  0.06150  Biso   1.000  C
  C68      1.0000 0.18990  0.35150  0.05220  Biso   1.000  C
  H84      1.0000 0.18420  0.41990  0.03970  Biso   1.000  H
  C69      1.0000 0.24310  0.30110  0.06180  Biso   1.000  C
  H85      1.0000 0.27480  0.33800  0.05790  Biso   1.000  H
  C70      1.0000 0.25030  0.19880  0.07700  Biso   1.000  C
  H86      1.0000 0.28620  0.16500  0.08150  Biso   1.000  H
  C71      1.0000 0.08580  0.34510  0.05160  Biso   1.000  C
  C72      1.0000 0.77470  0.40590  0.04460  Biso   1.000  C
  H87      1.0000 0.80690  0.39650  0.07000  Biso   1.000  H
  C73      1.0000 0.78020  0.38130  0.00210  Biso   1.000  C
  C74      1.0000 0.73140  0.38970  0.96500  Biso   1.000  C
  H88      1.0000 0.73260  0.37110  0.93640  Biso   1.000  H
  C75      1.0000 0.68080  0.42650  0.97160  Biso   1.000  C
  H89      1.0000 0.64710  0.43410  0.94730  Biso   1.000  H
  C76      1.0000 0.68010  0.45220  0.01460  Biso   1.000  C
  H90      1.0000 0.64540  0.47780  0.01810  Biso   1.000  H
  C77      1.0000 0.83940  0.35290  0.99890  Biso   1.000  C
  C78      1.0000 0.97900  0.00860  0.73110  Biso   1.000  C
  H91      1.0000 0.94290  0.99160  0.73710  Biso   1.000  H
  H92      1.0000 0.98650  0.95190  0.71230  Biso   1.000  H
  C79      1.0000 0.00650  0.35790  0.83150  Biso   1.000  C
  H93      1.0000 0.97570  0.31380  0.83240  Biso   1.000  H
  C80      1.0000 0.02630  0.43380  0.86370  Biso   1.000  C
  C81      1.0000 0.07470  0.49580  0.86360  Biso   1.000  C
  H94      1.0000 0.09040  0.54530  0.88640  Biso   1.000  H
  C82      1.0000 0.09760  0.48300  0.83030  Biso   1.000  C
  H95      1.0000 0.12840  0.52590  0.82890  Biso   1.000  H
  C83      1.0000 0.07640  0.40500  0.79800  Biso   1.000  C
  H96      1.0000 0.09420  0.39500  0.77560  Biso   1.000  H
  C84      1.0000 0.99840  0.44710  0.90030  Biso   1.000  C
  Pt5      1.0000 0.71783  0.50752  0.60971  Biso   1.000  Pt
  Cu9      1.0000 0.46264  0.19719  0.54298  Biso   1.000  Cu
  Cu10     1.0000 0.40020  0.12952  0.42929  Biso   1.000  Cu
  N25      1.0000 0.70800  0.46560  0.66970  Biso   1.000  N
  H97      1.0000 0.72940  0.40720  0.68080  Biso   1.000  H
  H98      1.0000 0.67030  0.45120  0.66660  Biso   1.000  H
  N26      1.0000 0.72670  0.65840  0.63570  Biso   1.000  N
  H99      1.0000 0.70030  0.70200  0.61720  Biso   1.000  H
  H100     1.0000 0.76260  0.68350  0.63810  Biso   1.000  H
  N27      1.0000 0.70540  0.35540  0.58570  Biso   1.000  N
  N28      1.0000 0.22430  0.05710  0.54990  Biso   1.000  N
  N29      1.0000 0.47080  0.38760  0.20470  Biso   1.000  N
  H101     1.0000 0.43280  0.37780  0.18950  Biso   1.000  H
  H102     1.0000 0.49130  0.38900  0.18490  Biso   1.000  H
  N30      1.0000 0.53080  0.15430  0.29840  Biso   1.000  N
  O29      1.0000 0.57730  0.06480  0.53260  Biso   1.000  O
  O30      1.0000 0.54860  0.21180  0.56190  Biso   1.000  O
  O31      1.0000 0.37990  0.16450  0.53310  Biso   1.000  O
  O32      1.0000 0.34000  0.15070  0.45790  Biso   1.000  O
  O33      1.0000 0.52240  0.99760  0.43280  Biso   1.000  O
  O34      1.0000 0.45200  0.10560  0.39370  Biso   1.000  O
  O35      1.0000 0.46550  0.14200  0.48480  Biso   1.000  O
  C85      1.0000 0.72870  0.56000  0.70080  Biso   1.000  C
  H103     1.0000 0.77040  0.55320  0.71520  Biso   1.000  H
  H104     1.0000 0.71000  0.55710  0.72440  Biso   1.000  H
  C86      1.0000 0.71790  0.65700  0.68070  Biso   1.000  C
  H105     1.0000 0.67790  0.67790  0.67760  Biso   1.000  H
  H106     1.0000 0.74350  0.70990  0.69980  Biso   1.000  H
  C87      1.0000 0.65590  0.30430  0.57920  Biso   1.000  C
  H107     1.0000 0.62580  0.33840  0.58690  Biso   1.000  H
  C88      1.0000 0.64620  0.20210  0.56150  Biso   1.000  C
  C89      1.0000 0.68990  0.14850  0.55220  Biso   1.000  C
  H108     1.0000 0.68420  0.08010  0.53970  Biso   1.000  H
  C90      1.0000 0.74310  0.19890  0.56180  Biso   1.000  C
  H109     1.0000 0.77480  0.16200  0.55790  Biso   1.000  H
  C91      1.0000 0.75030  0.30120  0.57700  Biso   1.000  C
  H110     1.0000 0.78620  0.33500  0.58150  Biso   1.000  H
  C92      1.0000 0.58580  0.15490  0.55160  Biso   1.000  C
  C93      1.0000 0.27470  0.09410  0.54460  Biso   1.000  C
  H111     1.0000 0.30690  0.10350  0.57000  Biso   1.000  H
  C94      1.0000 0.28020  0.11870  0.50210  Biso   1.000  C
  C95      1.0000 0.23140  0.11030  0.46500  Biso   1.000  C
  H112     1.0000 0.23260  0.12890  0.43640  Biso   1.000  H
  C96      1.0000 0.18080  0.07350  0.47160  Biso   1.000  C
  H113     1.0000 0.14710  0.06590  0.44730  Biso   1.000  H
  C97      1.0000 0.18010  0.04780  0.51460  Biso   1.000  C
  H114     1.0000 0.14540  0.02220  0.51810  Biso   1.000  H
  C98      1.0000 0.33940  0.14710  0.49890  Biso   1.000  C
  C99      1.0000 0.47900  0.49140  0.23110  Biso   1.000  C
  H115     1.0000 0.44290  0.50840  0.23710  Biso   1.000  H
  H116     1.0000 0.48650  0.54810  0.21230  Biso   1.000  H
  C100     1.0000 0.50650  0.14210  0.33150  Biso   1.000  C
  H117     1.0000 0.47570  0.18620  0.33240  Biso   1.000  H
  C101     1.0000 0.52630  0.06620  0.36370  Biso   1.000  C
  C102     1.0000 0.57470  0.00420  0.36360  Biso   1.000  C
  H118     1.0000 0.59040  0.95470  0.38640  Biso   1.000  H
  C103     1.0000 0.59760  0.01700  0.33030  Biso   1.000  C
  H119     1.0000 0.62840  0.97410  0.32890  Biso   1.000  H
  C104     1.0000 0.57640  0.09500  0.29800  Biso   1.000  C
  H120     1.0000 0.59420  0.10500  0.27560  Biso   1.000  H
  C105     1.0000 0.49840  0.05290  0.40030  Biso   1.000  C
  Pt6      1.0000 0.21783  0.00752  0.60971  Biso   1.000  Pt
  Cu11     1.0000 0.96264  0.69719  0.54298  Biso   1.000  Cu
  Cu12     1.0000 0.90020  0.62952  0.42929  Biso   1.000  Cu
  N31      1.0000 0.20800  0.96560  0.66970  Biso   1.000  N
  H121     1.0000 0.22940  0.90720  0.68080  Biso   1.000  H
  H122     1.0000 0.17030  0.95120  0.66660  Biso   1.000  H
  N32      1.0000 0.22670  0.15840  0.63570  Biso   1.000  N
  H123     1.0000 0.20030  0.20200  0.61720  Biso   1.000  H
  H124     1.0000 0.26260  0.18350  0.63810  Biso   1.000  H
  N33      1.0000 0.20540  0.85540  0.58570  Biso   1.000  N
  N34      1.0000 0.72430  0.55710  0.54990  Biso   1.000  N
  N35      1.0000 0.97080  0.88760  0.20470  Biso   1.000  N
  H125     1.0000 0.93280  0.87780  0.18950  Biso   1.000  H
  H126     1.0000 0.99130  0.88900  0.18490  Biso   1.000  H
  N36      1.0000 0.03080  0.65430  0.29840  Biso   1.000  N
  O36      1.0000 0.07730  0.56480  0.53260  Biso   1.000  O
  O37      1.0000 0.04860  0.71180  0.56190  Biso   1.000  O
  O38      1.0000 0.87990  0.66450  0.53310  Biso   1.000  O
  O39      1.0000 0.84000  0.65070  0.45790  Biso   1.000  O
  O40      1.0000 0.02240  0.49760  0.43280  Biso   1.000  O
  O41      1.0000 0.95200  0.60560  0.39370  Biso   1.000  O
  O42      1.0000 0.96550  0.64200  0.48480  Biso   1.000  O
  C106     1.0000 0.22870  0.06000  0.70080  Biso   1.000  C
  H127     1.0000 0.27040  0.05320  0.71520  Biso   1.000  H
  H128     1.0000 0.21000  0.05710  0.72440  Biso   1.000  H
  C107     1.0000 0.21790  0.15700  0.68070  Biso   1.000  C
  H129     1.0000 0.17790  0.17790  0.67760  Biso   1.000  H
  H130     1.0000 0.24350  0.20990  0.69980  Biso   1.000  H
  C108     1.0000 0.15590  0.80430  0.57920  Biso   1.000  C
  H131     1.0000 0.12580  0.83840  0.58690  Biso   1.000  H
  C109     1.0000 0.14620  0.70210  0.56150  Biso   1.000  C
  C110     1.0000 0.18990  0.64850  0.55220  Biso   1.000  C
  H132     1.0000 0.18420  0.58010  0.53970  Biso   1.000  H
  C111     1.0000 0.24310  0.69890  0.56180  Biso   1.000  C
  H133     1.0000 0.27480  0.66200  0.55790  Biso   1.000  H
  C112     1.0000 0.25030  0.80120  0.57700  Biso   1.000  C
  H134     1.0000 0.28620  0.83500  0.58150  Biso   1.000  H
  C113     1.0000 0.08580  0.65490  0.55160  Biso   1.000  C
  C114     1.0000 0.77470  0.59410  0.54460  Biso   1.000  C
  H135     1.0000 0.80690  0.60350  0.57000  Biso   1.000  H
  C115     1.0000 0.78020  0.61870  0.50210  Biso   1.000  C
  C116     1.0000 0.73140  0.61030  0.46500  Biso   1.000  C
  H136     1.0000 0.73260  0.62890  0.43640  Biso   1.000  H
  C117     1.0000 0.68080  0.57350  0.47160  Biso   1.000  C
  H137     1.0000 0.64710  0.56590  0.44730  Biso   1.000  H
  C118     1.0000 0.68010  0.54780  0.51460  Biso   1.000  C
  H138     1.0000 0.64540  0.52220  0.51810  Biso   1.000  H
  C119     1.0000 0.83940  0.64710  0.49890  Biso   1.000  C
  C120     1.0000 0.97900  0.99140  0.23110  Biso   1.000  C
  H139     1.0000 0.94290  0.00840  0.23710  Biso   1.000  H
  H140     1.0000 0.98650  0.04810  0.21230  Biso   1.000  H
  C121     1.0000 0.00650  0.64210  0.33150  Biso   1.000  C
  H141     1.0000 0.97570  0.68620  0.33240  Biso   1.000  H
  C122     1.0000 0.02630  0.56620  0.36370  Biso   1.000  C
  C123     1.0000 0.07470  0.50420  0.36360  Biso   1.000  C
  H142     1.0000 0.09040  0.45470  0.38640  Biso   1.000  H
  C124     1.0000 0.09760  0.51700  0.33030  Biso   1.000  C
  H143     1.0000 0.12840  0.47410  0.32890  Biso   1.000  H
  C125     1.0000 0.07640  0.59500  0.29800  Biso   1.000  C
  H144     1.0000 0.09420  0.60500  0.27560  Biso   1.000  H
  C126     1.0000 0.99840  0.55290  0.40030  Biso   1.000  C
  Pt7      1.0000 0.28217  0.50752  0.89029  Biso   1.000  Pt
  Cu13     1.0000 0.53736  0.19719  0.95702  Biso   1.000  Cu
  Cu14     1.0000 0.59980  0.12952  0.07071  Biso   1.000  Cu
  N37      1.0000 0.29200  0.46560  0.83030  Biso   1.000  N
  H145     1.0000 0.27060  0.40720  0.81920  Biso   1.000  H
  H146     1.0000 0.32970  0.45120  0.83340  Biso   1.000  H
  N38      1.0000 0.27330  0.65840  0.86430  Biso   1.000  N
  H147     1.0000 0.29970  0.70200  0.88280  Biso   1.000  H
  H148     1.0000 0.23740  0.68350  0.86190  Biso   1.000  H
  N39      1.0000 0.29460  0.35540  0.91430  Biso   1.000  N
  N40      1.0000 0.77570  0.05710  0.95010  Biso   1.000  N
  N41      1.0000 0.52920  0.38760  0.29530  Biso   1.000  N
  H149     1.0000 0.56720  0.37780  0.31050  Biso   1.000  H
  H150     1.0000 0.50870  0.38900  0.31510  Biso   1.000  H
  N42      1.0000 0.46920  0.15430  0.20160  Biso   1.000  N
  O43      1.0000 0.42270  0.06480  0.96740  Biso   1.000  O
  O44      1.0000 0.45140  0.21180  0.93810  Biso   1.000  O
  O45      1.0000 0.62010  0.16450  0.96690  Biso   1.000  O
  O46      1.0000 0.66000  0.15070  0.04210  Biso   1.000  O
  O47      1.0000 0.47760  0.99760  0.06720  Biso   1.000  O
  O48      1.0000 0.54800  0.10560  0.10630  Biso   1.000  O
  O49      1.0000 0.53450  0.14200  0.01520  Biso   1.000  O
  C127     1.0000 0.27130  0.56000  0.79920  Biso   1.000  C
  H151     1.0000 0.22960  0.55320  0.78480  Biso   1.000  H
  H152     1.0000 0.29000  0.55710  0.77560  Biso   1.000  H
  C128     1.0000 0.28210  0.65700  0.81930  Biso   1.000  C
  H153     1.0000 0.32210  0.67790  0.82240  Biso   1.000  H
  H154     1.0000 0.25650  0.70990  0.80020  Biso   1.000  H
  C129     1.0000 0.34410  0.30430  0.92080  Biso   1.000  C
  H155     1.0000 0.37420  0.33840  0.91310  Biso   1.000  H
  C130     1.0000 0.35380  0.20210  0.93850  Biso   1.000  C
  C131     1.0000 0.31010  0.14850  0.94780  Biso   1.000  C
  H156     1.0000 0.31580  0.08010  0.96030  Biso   1.000  H
  C132     1.0000 0.25690  0.19890  0.93820  Biso   1.000  C
  H157     1.0000 0.22520  0.16200  0.94210  Biso   1.000  H
  C133     1.0000 0.24970  0.30120  0.92300  Biso   1.000  C
  H158     1.0000 0.21380  0.33500  0.91850  Biso   1.000  H
  C134     1.0000 0.41420  0.15490  0.94840  Biso   1.000  C
  C135     1.0000 0.72530  0.09410  0.95540  Biso   1.000  C
  H159     1.0000 0.69310  0.10350  0.93000  Biso   1.000  H
  C136     1.0000 0.71980  0.11870  0.99790  Biso   1.000  C
  C137     1.0000 0.76860  0.11030  0.03500  Biso   1.000  C
  H160     1.0000 0.76740  0.12890  0.06360  Biso   1.000  H
  C138     1.0000 0.81920  0.07350  0.02840  Biso   1.000  C
  H161     1.0000 0.85290  0.06590  0.05270  Biso   1.000  H
  C139     1.0000 0.81990  0.04780  0.98540  Biso   1.000  C
  H162     1.0000 0.85460  0.02220  0.98190  Biso   1.000  H
  C140     1.0000 0.66060  0.14710  0.00110  Biso   1.000  C
  C141     1.0000 0.52100  0.49140  0.26890  Biso   1.000  C
  H163     1.0000 0.55710  0.50840  0.26290  Biso   1.000  H
  H164     1.0000 0.51350  0.54810  0.28770  Biso   1.000  H
  C142     1.0000 0.49350  0.14210  0.16850  Biso   1.000  C
  H165     1.0000 0.52430  0.18620  0.16760  Biso   1.000  H
  C143     1.0000 0.47370  0.06620  0.13630  Biso   1.000  C
  C144     1.0000 0.42530  0.00420  0.13640  Biso   1.000  C
  H166     1.0000 0.40960  0.95470  0.11360  Biso   1.000  H
  C145     1.0000 0.40240  0.01700  0.16970  Biso   1.000  C
  H167     1.0000 0.37160  0.97410  0.17110  Biso   1.000  H
  C146     1.0000 0.42360  0.09500  0.20200  Biso   1.000  C
  H168     1.0000 0.40580  0.10500  0.22440  Biso   1.000  H
  C147     1.0000 0.50160  0.05290  0.09970  Biso   1.000  C
  Pt8      1.0000 0.78217  0.00752  0.89029  Biso   1.000  Pt
  Cu15     1.0000 0.03736  0.69719  0.95702  Biso   1.000  Cu
  Cu16     1.0000 0.09980  0.62952  0.07071  Biso   1.000  Cu
  N43      1.0000 0.79200  0.96560  0.83030  Biso   1.000  N
  H169     1.0000 0.77060  0.90720  0.81920  Biso   1.000  H
  H170     1.0000 0.82970  0.95120  0.83340  Biso   1.000  H
  N44      1.0000 0.77330  0.15840  0.86430  Biso   1.000  N
  H171     1.0000 0.79970  0.20200  0.88280  Biso   1.000  H
  H172     1.0000 0.73740  0.18350  0.86190  Biso   1.000  H
  N45      1.0000 0.79460  0.85540  0.91430  Biso   1.000  N
  N46      1.0000 0.27570  0.55710  0.95010  Biso   1.000  N
  N47      1.0000 0.02920  0.88760  0.29530  Biso   1.000  N
  H173     1.0000 0.06720  0.87780  0.31050  Biso   1.000  H
  H174     1.0000 0.00870  0.88900  0.31510  Biso   1.000  H
  N48      1.0000 0.96920  0.65430  0.20160  Biso   1.000  N
  O50      1.0000 0.92270  0.56480  0.96740  Biso   1.000  O
  O51      1.0000 0.95140  0.71180  0.93810  Biso   1.000  O
  O52      1.0000 0.12010  0.66450  0.96690  Biso   1.000  O
  O53      1.0000 0.16000  0.65070  0.04210  Biso   1.000  O
  O54      1.0000 0.97760  0.49760  0.06720  Biso   1.000  O
  O55      1.0000 0.04800  0.60560  0.10630  Biso   1.000  O
  O56      1.0000 0.03450  0.64200  0.01520  Biso   1.000  O
  C148     1.0000 0.77130  0.06000  0.79920  Biso   1.000  C
  H175     1.0000 0.72960  0.05320  0.78480  Biso   1.000  H
  H176     1.0000 0.79000  0.05710  0.77560  Biso   1.000  H
  C149     1.0000 0.78210  0.15700  0.81930  Biso   1.000  C
  H177     1.0000 0.82210  0.17790  0.82240  Biso   1.000  H
  H178     1.0000 0.75650  0.20990  0.80020  Biso   1.000  H
  C150     1.0000 0.84410  0.80430  0.92080  Biso   1.000  C
  H179     1.0000 0.87420  0.83840  0.91310  Biso   1.000  H
  C151     1.0000 0.85380  0.70210  0.93850  Biso   1.000  C
  C152     1.0000 0.81010  0.64850  0.94780  Biso   1.000  C
  H180     1.0000 0.81580  0.58010  0.96030  Biso   1.000  H
  C153     1.0000 0.75690  0.69890  0.93820  Biso   1.000  C
  H181     1.0000 0.72520  0.66200  0.94210  Biso   1.000  H
  C154     1.0000 0.74970  0.80120  0.92300  Biso   1.000  C
  H182     1.0000 0.71380  0.83500  0.91850  Biso   1.000  H
  C155     1.0000 0.91420  0.65490  0.94840  Biso   1.000  C
  C156     1.0000 0.22530  0.59410  0.95540  Biso   1.000  C
  H183     1.0000 0.19310  0.60350  0.93000  Biso   1.000  H
  C157     1.0000 0.21980  0.61870  0.99790  Biso   1.000  C
  C158     1.0000 0.26860  0.61030  0.03500  Biso   1.000  C
  H184     1.0000 0.26740  0.62890  0.06360  Biso   1.000  H
  C159     1.0000 0.31920  0.57350  0.02840  Biso   1.000  C
  H185     1.0000 0.35290  0.56590  0.05270  Biso   1.000  H
  C160     1.0000 0.31990  0.54780  0.98540  Biso   1.000  C
  H186     1.0000 0.35460  0.52220  0.98190  Biso   1.000  H
  C161     1.0000 0.16060  0.64710  0.00110  Biso   1.000  C
  C162     1.0000 0.02100  0.99140  0.26890  Biso   1.000  C
  H187     1.0000 0.05710  0.00840  0.26290  Biso   1.000  H
  H188     1.0000 0.01350  0.04810  0.28770  Biso   1.000  H
  C163     1.0000 0.99350  0.64210  0.16850  Biso   1.000  C
  H189     1.0000 0.02430  0.68620  0.16760  Biso   1.000  H
  C164     1.0000 0.97370  0.56620  0.13630  Biso   1.000  C
  C165     1.0000 0.92530  0.50420  0.13640  Biso   1.000  C
  H190     1.0000 0.90960  0.45470  0.11360  Biso   1.000  H
  C166     1.0000 0.90240  0.51700  0.16970  Biso   1.000  C
  H191     1.0000 0.87160  0.47410  0.17110  Biso   1.000  H
  C167     1.0000 0.92360  0.59500  0.20200  Biso   1.000  C
  H192     1.0000 0.90580  0.60500  0.22440  Biso   1.000  H
  C168     1.0000 0.00160  0.55290  0.09970  Biso   1.000  C
  Pt9      1.0000 0.50000  0.73117  0.75000  Biso   1.000  Pt
  Pt10     1.0000 0.00000  0.23117  0.75000  Biso   1.000  Pt
  Pt11     1.0000 0.50000  0.26883  0.25000  Biso   1.000  Pt
  Pt12     1.0000 0.00000  0.76883  0.25000  Biso   1.000  Pt
  Cu17     1.0000 0.50000  0.00000  0.50000  Biso   1.000  Cu
  Cu18     1.0000 0.00000  0.50000  0.50000  Biso   1.000  Cu
  Cu19     1.0000 0.50000  0.00000  0.00000  Biso   1.000  Cu
  Cu20     1.0000 0.00000  0.50000  0.00000  Biso   1.000  Cu
