data_image0
_cell_length_a       26.0087
_cell_length_b       26.0087
_cell_length_c       6.8131
_cell_angle_alpha    90
_cell_angle_beta     90
_cell_angle_gamma    120

_symmetry_space_group_name_H-M    "P 1"
_symmetry_int_tables_number       1

loop_
  _symmetry_equiv_pos_as_xyz
  'x, y, z'

loop_
  _atom_site_label
  _atom_site_occupancy
  _atom_site_fract_x
  _atom_site_fract_y
  _atom_site_fract_z
  _atom_site_thermal_displace_type
  _atom_site_B_iso_or_equiv
  _atom_site_type_symbol
  Fe1      1.0000 0.38040  0.34790  0.14100  Biso   1.000  Fe
  O1       1.0000 0.32660  0.29680  0.34910  Biso   1.000  O
  O2       1.0000 0.29970  0.22060  0.60800  Biso   1.000  O
  O3       1.0000 0.35680  0.27300  0.00730  Biso   1.000  O
  C1       1.0000 0.31750  0.24650  0.41450  Biso   1.000  C
  C2       1.0000 0.33360  0.20910  0.30050  Biso   1.000  C
  C3       1.0000 0.34600  0.22590  0.09710  Biso   1.000  C
  C4       1.0000 0.35370  0.18230  0.98390  Biso   1.000  C
  H1       1.0000 0.37010  0.19220  0.82000  Biso   1.000  H
  Fe2      1.0000 0.04707  0.68123  0.47433  Biso   1.000  Fe
  O4       1.0000 0.99327  0.63013  0.68243  Biso   1.000  O
  O5       1.0000 0.96637  0.55393  0.94133  Biso   1.000  O
  O6       1.0000 0.02347  0.60633  0.34063  Biso   1.000  O
  C5       1.0000 0.98417  0.57983  0.74783  Biso   1.000  C
  C6       1.0000 0.00027  0.54243  0.63383  Biso   1.000  C
  C7       1.0000 0.01267  0.55923  0.43043  Biso   1.000  C
  C8       1.0000 0.02037  0.51563  0.31723  Biso   1.000  C
  H2       1.0000 0.03677  0.52553  0.15333  Biso   1.000  H
  Fe3      1.0000 0.71373  0.01457  0.80767  Biso   1.000  Fe
  O7       1.0000 0.65993  0.96347  0.01577  Biso   1.000  O
  O8       1.0000 0.63303  0.88727  0.27467  Biso   1.000  O
  O9       1.0000 0.69013  0.93967  0.67397  Biso   1.000  O
  C9       1.0000 0.65083  0.91317  0.08117  Biso   1.000  C
  C10      1.0000 0.66693  0.87577  0.96717  Biso   1.000  C
  C11      1.0000 0.67933  0.89257  0.76377  Biso   1.000  C
  C12      1.0000 0.68703  0.84897  0.65057  Biso   1.000  C
  H3       1.0000 0.70343  0.85887  0.48667  Biso   1.000  H
  Fe4      1.0000 0.65210  0.03250  0.14100  Biso   1.000  Fe
  O10      1.0000 0.70320  0.02980  0.34910  Biso   1.000  O
  O11      1.0000 0.77940  0.07910  0.60800  Biso   1.000  O
  O12      1.0000 0.72700  0.08380  0.00730  Biso   1.000  O
  C13      1.0000 0.75350  0.07100  0.41450  Biso   1.000  C
  C14      1.0000 0.79090  0.12450  0.30050  Biso   1.000  C
  C15      1.0000 0.77410  0.12010  0.09710  Biso   1.000  C
  C16      1.0000 0.81770  0.17140  0.98390  Biso   1.000  C
  H4       1.0000 0.80780  0.17790  0.82000  Biso   1.000  H
  Fe5      1.0000 0.31877  0.36583  0.47433  Biso   1.000  Fe
  O13      1.0000 0.36987  0.36313  0.68243  Biso   1.000  O
  O14      1.0000 0.44607  0.41243  0.94133  Biso   1.000  O
  O15      1.0000 0.39367  0.41713  0.34063  Biso   1.000  O
  C17      1.0000 0.42017  0.40433  0.74783  Biso   1.000  C
  C18      1.0000 0.45757  0.45783  0.63383  Biso   1.000  C
  C19      1.0000 0.44077  0.45343  0.43043  Biso   1.000  C
  C20      1.0000 0.48437  0.50473  0.31723  Biso   1.000  C
  H5       1.0000 0.47447  0.51123  0.15333  Biso   1.000  H
  Fe6      1.0000 0.98543  0.69917  0.80767  Biso   1.000  Fe
  O16      1.0000 0.03653  0.69647  0.01577  Biso   1.000  O
  O17      1.0000 0.11273  0.74577  0.27467  Biso   1.000  O
  O18      1.0000 0.06033  0.75047  0.67397  Biso   1.000  O
  C21      1.0000 0.08683  0.73767  0.08117  Biso   1.000  C
  C22      1.0000 0.12423  0.79117  0.96717  Biso   1.000  C
  C23      1.0000 0.10743  0.78677  0.76377  Biso   1.000  C
  C24      1.0000 0.15103  0.83807  0.65057  Biso   1.000  C
  H6       1.0000 0.14113  0.84457  0.48667  Biso   1.000  H
  Fe7      1.0000 0.96750  0.61960  0.14100  Biso   1.000  Fe
  O19      1.0000 0.97020  0.67340  0.34910  Biso   1.000  O
  O20      1.0000 0.92090  0.70030  0.60800  Biso   1.000  O
  O21      1.0000 0.91620  0.64320  0.00730  Biso   1.000  O
  C25      1.0000 0.92900  0.68250  0.41450  Biso   1.000  C
  C26      1.0000 0.87550  0.66640  0.30050  Biso   1.000  C
  C27      1.0000 0.87990  0.65400  0.09710  Biso   1.000  C
  C28      1.0000 0.82860  0.64630  0.98390  Biso   1.000  C
  H7       1.0000 0.82210  0.62990  0.82000  Biso   1.000  H
  Fe8      1.0000 0.63417  0.95293  0.47433  Biso   1.000  Fe
  O22      1.0000 0.63687  0.00673  0.68243  Biso   1.000  O
  O23      1.0000 0.58757  0.03363  0.94133  Biso   1.000  O
  O24      1.0000 0.58287  0.97653  0.34063  Biso   1.000  O
  C29      1.0000 0.59567  0.01583  0.74783  Biso   1.000  C
  C30      1.0000 0.54217  0.99973  0.63383  Biso   1.000  C
  C31      1.0000 0.54657  0.98733  0.43043  Biso   1.000  C
  C32      1.0000 0.49527  0.97963  0.31723  Biso   1.000  C
  H8       1.0000 0.48877  0.96323  0.15333  Biso   1.000  H
  Fe9      1.0000 0.30083  0.28627  0.80767  Biso   1.000  Fe
  O25      1.0000 0.30353  0.34007  0.01577  Biso   1.000  O
  O26      1.0000 0.25423  0.36697  0.27467  Biso   1.000  O
  O27      1.0000 0.24953  0.30987  0.67397  Biso   1.000  O
  C33      1.0000 0.26233  0.34917  0.08117  Biso   1.000  C
  C34      1.0000 0.20883  0.33307  0.96717  Biso   1.000  C
  C35      1.0000 0.21323  0.32067  0.76377  Biso   1.000  C
  C36      1.0000 0.16193  0.31297  0.65057  Biso   1.000  C
  H9       1.0000 0.15543  0.29657  0.48667  Biso   1.000  H
  Fe10     1.0000 0.61960  0.65210  0.85900  Biso   1.000  Fe
  O28      1.0000 0.67340  0.70320  0.65090  Biso   1.000  O
  O29      1.0000 0.70030  0.77940  0.39200  Biso   1.000  O
  O30      1.0000 0.64320  0.72700  0.99270  Biso   1.000  O
  C37      1.0000 0.68250  0.75350  0.58550  Biso   1.000  C
  C38      1.0000 0.66640  0.79090  0.69950  Biso   1.000  C
  C39      1.0000 0.65400  0.77410  0.90290  Biso   1.000  C
  C40      1.0000 0.64630  0.81770  0.01610  Biso   1.000  C
  H10      1.0000 0.62990  0.80780  0.18000  Biso   1.000  H
  Fe11     1.0000 0.28627  0.98543  0.19233  Biso   1.000  Fe
  O31      1.0000 0.34007  0.03653  0.98423  Biso   1.000  O
  O32      1.0000 0.36697  0.11273  0.72533  Biso   1.000  O
  O33      1.0000 0.30987  0.06033  0.32603  Biso   1.000  O
  C41      1.0000 0.34917  0.08683  0.91883  Biso   1.000  C
  C42      1.0000 0.33307  0.12423  0.03283  Biso   1.000  C
  C43      1.0000 0.32067  0.10743  0.23623  Biso   1.000  C
  C44      1.0000 0.31297  0.15103  0.34943  Biso   1.000  C
  H11      1.0000 0.29657  0.14113  0.51333  Biso   1.000  H
  Fe12     1.0000 0.95293  0.31877  0.52567  Biso   1.000  Fe
  O34      1.0000 0.00673  0.36987  0.31757  Biso   1.000  O
  O35      1.0000 0.03363  0.44607  0.05867  Biso   1.000  O
  O36      1.0000 0.97653  0.39367  0.65937  Biso   1.000  O
  C45      1.0000 0.01583  0.42017  0.25217  Biso   1.000  C
  C46      1.0000 0.99973  0.45757  0.36617  Biso   1.000  C
  C47      1.0000 0.98733  0.44077  0.56957  Biso   1.000  C
  C48      1.0000 0.97963  0.48437  0.68277  Biso   1.000  C
  H12      1.0000 0.96323  0.47447  0.84667  Biso   1.000  H
  Fe13     1.0000 0.34790  0.96750  0.85900  Biso   1.000  Fe
  O37      1.0000 0.29680  0.97020  0.65090  Biso   1.000  O
  O38      1.0000 0.22060  0.92090  0.39200  Biso   1.000  O
  O39      1.0000 0.27300  0.91620  0.99270  Biso   1.000  O
  C49      1.0000 0.24650  0.92900  0.58550  Biso   1.000  C
  C50      1.0000 0.20910  0.87550  0.69950  Biso   1.000  C
  C51      1.0000 0.22590  0.87990  0.90290  Biso   1.000  C
  C52      1.0000 0.18230  0.82860  0.01610  Biso   1.000  C
  H13      1.0000 0.19220  0.82210  0.18000  Biso   1.000  H
  Fe14     1.0000 0.01457  0.30083  0.19233  Biso   1.000  Fe
  O40      1.0000 0.96347  0.30353  0.98423  Biso   1.000  O
  O41      1.0000 0.88727  0.25423  0.72533  Biso   1.000  O
  O42      1.0000 0.93967  0.24953  0.32603  Biso   1.000  O
  C53      1.0000 0.91317  0.26233  0.91883  Biso   1.000  C
  C54      1.0000 0.87577  0.20883  0.03283  Biso   1.000  C
  C55      1.0000 0.89257  0.21323  0.23623  Biso   1.000  C
  C56      1.0000 0.84897  0.16193  0.34943  Biso   1.000  C
  H14      1.0000 0.85887  0.15543  0.51333  Biso   1.000  H
  Fe15     1.0000 0.68123  0.63417  0.52567  Biso   1.000  Fe
  O43      1.0000 0.63013  0.63687  0.31757  Biso   1.000  O
  O44      1.0000 0.55393  0.58757  0.05867  Biso   1.000  O
  O45      1.0000 0.60633  0.58287  0.65937  Biso   1.000  O
  C57      1.0000 0.57983  0.59567  0.25217  Biso   1.000  C
  C58      1.0000 0.54243  0.54217  0.36617  Biso   1.000  C
  C59      1.0000 0.55923  0.54657  0.56957  Biso   1.000  C
  C60      1.0000 0.51563  0.49527  0.68277  Biso   1.000  C
  H15      1.0000 0.52553  0.48877  0.84667  Biso   1.000  H
  Fe16     1.0000 0.03250  0.38040  0.85900  Biso   1.000  Fe
  O46      1.0000 0.02980  0.32660  0.65090  Biso   1.000  O
  O47      1.0000 0.07910  0.29970  0.39200  Biso   1.000  O
  O48      1.0000 0.08380  0.35680  0.99270  Biso   1.000  O
  C61      1.0000 0.07100  0.31750  0.58550  Biso   1.000  C
  C62      1.0000 0.12450  0.33360  0.69950  Biso   1.000  C
  C63      1.0000 0.12010  0.34600  0.90290  Biso   1.000  C
  C64      1.0000 0.17140  0.35370  0.01610  Biso   1.000  C
  H16      1.0000 0.17790  0.37010  0.18000  Biso   1.000  H
  Fe17     1.0000 0.69917  0.71373  0.19233  Biso   1.000  Fe
  O49      1.0000 0.69647  0.65993  0.98423  Biso   1.000  O
  O50      1.0000 0.74577  0.63303  0.72533  Biso   1.000  O
  O51      1.0000 0.75047  0.69013  0.32603  Biso   1.000  O
  C65      1.0000 0.73767  0.65083  0.91883  Biso   1.000  C
  C66      1.0000 0.79117  0.66693  0.03283  Biso   1.000  C
  C67      1.0000 0.78677  0.67933  0.23623  Biso   1.000  C
  C68      1.0000 0.83807  0.68703  0.34943  Biso   1.000  C
  H17      1.0000 0.84457  0.70343  0.51333  Biso   1.000  H
  Fe18     1.0000 0.36583  0.04707  0.52567  Biso   1.000  Fe
  O52      1.0000 0.36313  0.99327  0.31757  Biso   1.000  O
  O53      1.0000 0.41243  0.96637  0.05867  Biso   1.000  O
  O54      1.0000 0.41713  0.02347  0.65937  Biso   1.000  O
  C69      1.0000 0.40433  0.98417  0.25217  Biso   1.000  C
  C70      1.0000 0.45783  0.00027  0.36617  Biso   1.000  C
  C71      1.0000 0.45343  0.01267  0.56957  Biso   1.000  C
  C72      1.0000 0.50473  0.02037  0.68277  Biso   1.000  C
  H18      1.0000 0.51123  0.03677  0.84667  Biso   1.000  H
