data_GUWDUY_clean
_audit_creation_date              2014-07-02
_audit_creation_method            'Materials Studio'
_symmetry_space_group_name_H-M    'P1'
_symmetry_Int_Tables_number       1
_symmetry_cell_setting            triclinic
loop_
_symmetry_equiv_pos_as_xyz
  x,y,z
_cell_length_a                    13.4470
_cell_length_b                    13.7150
_cell_length_c                    14.3010
_cell_angle_alpha                 79.4800
_cell_angle_beta                  63.9000
_cell_angle_gamma                 65.6800
loop_
_atom_site_label
_atom_site_type_symbol
_atom_site_fract_x
_atom_site_fract_y
_atom_site_fract_z
_atom_site_U_iso_or_equiv
_atom_site_adp_type
_atom_site_occupancy
La1    La    0.47581   0.08046   0.34187   0.01267  Uiso   1.00
La2    La    0.52419   0.91954   0.65813   0.01267  Uiso   1.00
H1     H     0.12510   0.45240   0.58050   0.01267  Uiso   1.00
H2     H     0.29350   0.30140   0.51810   0.01267  Uiso   1.00
H3     H     0.65860   0.15100   0.08870   0.01267  Uiso   1.00
H4     H     0.84780   0.13440   0.96940   0.01267  Uiso   1.00
H5     H     0.59290   0.65870   0.97900   0.01267  Uiso   1.00
H6     H     0.55280   0.94640   0.10840   0.01267  Uiso   1.00
H7     H     0.97930   0.87610   0.12850   0.01267  Uiso   1.00
H8     H     0.25980   0.97880   0.56180   0.01267  Uiso   1.00
H9     H     0.53390   0.65140   0.31800   0.01267  Uiso   1.00
H10    H     0.78600   0.89570   0.23840   0.01267  Uiso   1.00
H11    H     0.49870   0.80840   0.38420   0.01267  Uiso   1.00
H12    H     0.59380   0.50460   0.24940   0.01267  Uiso   1.00
H13    H     0.57890   0.79550   0.03830   0.01267  Uiso   1.00
H14    H     0.07670   0.96470   0.61910   0.01267  Uiso   1.00
H15    H     0.62540   0.35160   0.17760   0.01267  Uiso   1.00
H16    H     0.02900   0.41380   0.36490   0.01267  Uiso   1.00
H17    H     0.63820   0.49760   0.91350   0.01267  Uiso   1.00
H18    H     0.20200   0.26500   0.30670   0.01267  Uiso   1.00
H19    H     0.27050   0.05210   0.28280   0.01267  Uiso   1.00
H20    H     0.09030   0.03850   0.33080   0.01267  Uiso   1.00
H21    H     0.87490   0.54760   0.41950   0.01267  Uiso   1.00
H22    H     0.70650   0.69860   0.48190   0.01267  Uiso   1.00
H23    H     0.34140   0.84900   0.91130   0.01267  Uiso   1.00
H24    H     0.15220   0.86560   0.03060   0.01267  Uiso   1.00
H25    H     0.40710   0.34130   0.02100   0.01267  Uiso   1.00
H26    H     0.44720   0.05360   0.89160   0.01267  Uiso   1.00
H27    H     0.02070   0.12390   0.87150   0.01267  Uiso   1.00
H28    H     0.74020   0.02120   0.43820   0.01267  Uiso   1.00
H29    H     0.46610   0.34860   0.68200   0.01267  Uiso   1.00
H30    H     0.21400   0.10430   0.76160   0.01267  Uiso   1.00
H31    H     0.50130   0.19160   0.61580   0.01267  Uiso   1.00
H32    H     0.40620   0.49540   0.75060   0.01267  Uiso   1.00
H33    H     0.42110   0.20450   0.96170   0.01267  Uiso   1.00
H34    H     0.92330   0.03530   0.38090   0.01267  Uiso   1.00
H35    H     0.37460   0.64840   0.82240   0.01267  Uiso   1.00
H36    H     0.97100   0.58620   0.63510   0.01267  Uiso   1.00
H37    H     0.36180   0.50240   0.08650   0.01267  Uiso   1.00
H38    H     0.79800   0.73500   0.69330   0.01267  Uiso   1.00
H39    H     0.72950   0.94790   0.71720   0.01267  Uiso   1.00
H40    H     0.90970   0.96150   0.66920   0.01267  Uiso   1.00
C1     C     0.13820   0.41470   0.52400   0.01267  Uiso   1.00
C2     C     0.56240   0.70320   0.16880   0.01267  Uiso   1.00
C3     C     0.93740   0.00490   0.03630   0.01267  Uiso   1.00
C4     C     0.05560   0.45070   0.48020   0.01267  Uiso   1.00
C5     C     0.23910   0.32420   0.48570   0.01267  Uiso   1.00
C6     C     0.72470   0.09400   0.09710   0.01267  Uiso   1.00
C7     C     0.58790   0.60220   0.12300   0.01267  Uiso   1.00
C8     C     0.83790   0.08530   0.02580   0.01267  Uiso   1.00
C9     C     0.60120   0.59650   0.02160   0.01267  Uiso   1.00
C10    C     0.54720   0.88620   0.15240   0.01267  Uiso   1.00
C11    C     0.91490   0.93370   0.11810   0.01267  Uiso   1.00
C12    C     0.22380   0.99350   0.51400   0.01267  Uiso   1.00
C13    C     0.53730   0.71140   0.27320   0.01267  Uiso   1.00
C14    C     0.79850   0.94690   0.18440   0.01267  Uiso   1.00
C15    C     0.05930   0.00320   0.48260   0.01267  Uiso   1.00
C16    C     0.51720   0.80560   0.31230   0.01267  Uiso   1.00
C17    C     0.60010   0.50630   0.18040   0.01267  Uiso   1.00
C18    C     0.56490   0.79530   0.10950   0.01267  Uiso   1.00
C19    C     0.11410   0.98430   0.54880   0.01267  Uiso   1.00
C20    C     0.62130   0.41430   0.13580   0.01267  Uiso   1.00
C21    C     0.08220   0.39250   0.39820   0.01267  Uiso   1.00
C22    C     0.62660   0.49960   0.98370   0.01267  Uiso   1.00
C23    C     0.18610   0.30310   0.36400   0.01267  Uiso   1.00
C24    C     0.23000   0.03550   0.35340   0.01267  Uiso   1.00
C25    C     0.12190   0.02740   0.38140   0.01267  Uiso   1.00
C26    C     0.86180   0.58530   0.47600   0.01267  Uiso   1.00
C27    C     0.43760   0.29680   0.83120   0.01267  Uiso   1.00
C28    C     0.06260   0.99510   0.96370   0.01267  Uiso   1.00
C29    C     0.94440   0.54930   0.51980   0.01267  Uiso   1.00
C30    C     0.76090   0.67580   0.51430   0.01267  Uiso   1.00
C31    C     0.27530   0.90600   0.90290   0.01267  Uiso   1.00
C32    C     0.41210   0.39780   0.87700   0.01267  Uiso   1.00
C33    C     0.16210   0.91470   0.97420   0.01267  Uiso   1.00
C34    C     0.39880   0.40350   0.97840   0.01267  Uiso   1.00
C35    C     0.45280   0.11380   0.84760   0.01267  Uiso   1.00
C36    C     0.08510   0.06630   0.88190   0.01267  Uiso   1.00
C37    C     0.77620   0.00650   0.48600   0.01267  Uiso   1.00
C38    C     0.46270   0.28860   0.72680   0.01267  Uiso   1.00
C39    C     0.20150   0.05310   0.81560   0.01267  Uiso   1.00
C40    C     0.94070   0.99680   0.51740   0.01267  Uiso   1.00
C41    C     0.48280   0.19440   0.68770   0.01267  Uiso   1.00
C42    C     0.39990   0.49370   0.81960   0.01267  Uiso   1.00
C43    C     0.43510   0.20470   0.89050   0.01267  Uiso   1.00
C44    C     0.88590   0.01570   0.45120   0.01267  Uiso   1.00
C45    C     0.37870   0.58570   0.86420   0.01267  Uiso   1.00
C46    C     0.91780   0.60750   0.60180   0.01267  Uiso   1.00
C47    C     0.37340   0.50040   0.01630   0.01267  Uiso   1.00
C48    C     0.81390   0.69690   0.63600   0.01267  Uiso   1.00
C49    C     0.77000   0.96450   0.64660   0.01267  Uiso   1.00
C50    C     0.87810   0.97260   0.61860   0.01267  Uiso   1.00
N1     N     0.70200   0.02700   0.17780   0.01267  Uiso   1.00
N2     N     0.52250   0.89460   0.25370   0.01267  Uiso   1.00
N3     N     0.26630   0.26630   0.40650   0.01267  Uiso   1.00
N4     N     0.28160   0.02190   0.41710   0.01267  Uiso   1.00
N5     N     0.63640   0.40750   0.03840   0.01267  Uiso   1.00
N6     N     0.29800   0.97300   0.82220   0.01267  Uiso   1.00
N7     N     0.47750   0.10540   0.74630   0.01267  Uiso   1.00
N8     N     0.73370   0.73370   0.59350   0.01267  Uiso   1.00
N9     N     0.71840   0.97810   0.58290   0.01267  Uiso   1.00
N10    N     0.36360   0.59250   0.96160   0.01267  Uiso   1.00
Cl1    Cl    0.62238   0.90561   0.42834   0.01267  Uiso   1.00
Cl2    Cl    0.42544   0.15895   0.16576   0.01267  Uiso   1.00
Cl3    Cl    0.57230   0.21677   0.35697   0.01267  Uiso   1.00
Cl4    Cl    0.37762   0.09439   0.57166   0.01267  Uiso   1.00
Cl5    Cl    0.57456   0.84105   0.83424   0.01267  Uiso   1.00
Cl6    Cl    0.42770   0.78323   0.64303   0.01267  Uiso   1.00
