data_GUXLIU_clean
_audit_creation_date              2014-07-02
_audit_creation_method            'Materials Studio'
_symmetry_space_group_name_H-M    'P1'
_symmetry_Int_Tables_number       1
_symmetry_cell_setting            triclinic
loop_
_symmetry_equiv_pos_as_xyz
  x,y,z
_cell_length_a                    4.9387
_cell_length_b                    8.1856
_cell_length_c                    12.0600
_cell_angle_alpha                 90.0000
_cell_angle_beta                  90.0000
_cell_angle_gamma                 92.0450
loop_
_atom_site_label
_atom_site_type_symbol
_atom_site_fract_x
_atom_site_fract_y
_atom_site_fract_z
_atom_site_U_iso_or_equiv
_atom_site_adp_type
_atom_site_occupancy
Al1    Al    0.75440   0.86180   0.25000   0.01267  Uiso   1.00
Al2    Al    0.24560   0.13820   0.75000   0.01267  Uiso   1.00
Al3    Al    0.50000   0.00000   0.50000   0.01267  Uiso   1.00
Al4    Al    0.50000   0.00000   0.00000   0.01267  Uiso   1.00
P1     P     0.99100   0.76590   0.48247   0.01267  Uiso   1.00
P2     P     0.00900   0.23410   0.98247   0.01267  Uiso   1.00
P3     P     0.00900   0.23410   0.51753   0.01267  Uiso   1.00
P4     P     0.99100   0.76590   0.01753   0.01267  Uiso   1.00
H1     H     0.69600   0.55100   0.52800   0.01267  Uiso   1.00
H2     H     0.93700   0.56500   0.61800   0.01267  Uiso   1.00
H3     H     0.30400   0.44900   0.02800   0.01267  Uiso   1.00
H4     H     0.06300   0.43500   0.11800   0.01267  Uiso   1.00
H5     H     0.30400   0.44900   0.47200   0.01267  Uiso   1.00
H6     H     0.06300   0.43500   0.38200   0.01267  Uiso   1.00
H7     H     0.69600   0.55100   0.97200   0.01267  Uiso   1.00
H8     H     0.93700   0.56500   0.88200   0.01267  Uiso   1.00
C1     C     0.91800   0.56440   0.53140   0.01267  Uiso   1.00
C2     C     0.08200   0.43560   0.03140   0.01267  Uiso   1.00
C3     C     0.08200   0.43560   0.46860   0.01267  Uiso   1.00
C4     C     0.91800   0.56440   0.96860   0.01267  Uiso   1.00
O1     O     0.79720   0.87820   0.54180   0.01267  Uiso   1.00
O2     O     0.28200   0.80770   0.50830   0.01267  Uiso   1.00
O3     O     0.94640   0.76290   0.35710   0.01267  Uiso   1.00
O4     O     0.20280   0.12180   0.04180   0.01267  Uiso   1.00
O5     O     0.71800   0.19230   0.00830   0.01267  Uiso   1.00
O6     O     0.05360   0.23710   0.85710   0.01267  Uiso   1.00
O7     O     0.20280   0.12180   0.45820   0.01267  Uiso   1.00
O8     O     0.71800   0.19230   0.49170   0.01267  Uiso   1.00
O9     O     0.05360   0.23710   0.64290   0.01267  Uiso   1.00
O10    O     0.79720   0.87820   0.95820   0.01267  Uiso   1.00
O11    O     0.28200   0.80770   0.99170   0.01267  Uiso   1.00
O12    O     0.94640   0.76290   0.14290   0.01267  Uiso   1.00
F1     F     0.55720   0.96420   0.35280   0.01267  Uiso   1.00
F2     F     0.44280   0.03580   0.85280   0.01267  Uiso   1.00
F3     F     0.44280   0.03580   0.64720   0.01267  Uiso   1.00
F4     F     0.55720   0.96420   0.14720   0.01267  Uiso   1.00
