data_GUXQAR_clean
_audit_creation_date              2014-07-02
_audit_creation_method            'Materials Studio'
_symmetry_space_group_name_H-M    'P1'
_symmetry_Int_Tables_number       1
_symmetry_cell_setting            triclinic
loop_
_symmetry_equiv_pos_as_xyz
  x,y,z
_cell_length_a                    6.3758
_cell_length_b                    6.8840
_cell_length_c                    9.0254
_cell_angle_alpha                 69.0100
_cell_angle_beta                  85.1970
_cell_angle_gamma                 79.4520
loop_
_atom_site_label
_atom_site_type_symbol
_atom_site_fract_x
_atom_site_fract_y
_atom_site_fract_z
_atom_site_U_iso_or_equiv
_atom_site_adp_type
_atom_site_occupancy
V1     V     0.00000   0.50000   0.50000   0.01267  Uiso   1.00
V2     V     0.00000   0.00000   0.50000   0.01267  Uiso   1.00
H1     H     0.82440   0.60860   0.99430   0.01267  Uiso   1.00
H2     H     0.06570   0.83740   0.31660   0.01267  Uiso   1.00
H3     H     0.17560   0.39140   0.00570   0.01267  Uiso   1.00
H4     H     0.93430   0.16260   0.68340   0.01267  Uiso   1.00
C1     C     0.39610   0.54390   0.85860   0.01267  Uiso   1.00
C2     C     0.26770   0.61880   0.71130   0.01267  Uiso   1.00
C3     C     0.59400   0.60640   0.85570   0.01267  Uiso   1.00
C4     C     0.71740   0.68590   0.70310   0.01267  Uiso   1.00
C5     C     0.69450   0.56410   0.99660   0.01267  Uiso   1.00
C6     C     0.60390   0.45610   0.14140   0.01267  Uiso   1.00
C7     C     0.73230   0.38120   0.28870   0.01267  Uiso   1.00
C8     C     0.40600   0.39360   0.14430   0.01267  Uiso   1.00
C9     C     0.28260   0.31410   0.29690   0.01267  Uiso   1.00
C10    C     0.30550   0.43590   0.00340   0.01267  Uiso   1.00
O1     O     0.01070   0.79890   0.39240   0.01267  Uiso   1.00
O2     O     0.80670   0.84270   0.67910   0.01267  Uiso   1.00
O3     O     0.17460   0.48870   0.68480   0.01267  Uiso   1.00
O4     O     0.25200   0.81300   0.63100   0.01267  Uiso   1.00
O5     O     0.73170   0.57790   0.61440   0.01267  Uiso   1.00
O6     O     0.98930   0.20110   0.60760   0.01267  Uiso   1.00
O7     O     0.19330   0.15730   0.32090   0.01267  Uiso   1.00
O8     O     0.82540   0.51130   0.31520   0.01267  Uiso   1.00
O9     O     0.74800   0.18700   0.36900   0.01267  Uiso   1.00
O10    O     0.26830   0.42210   0.38560   0.01267  Uiso   1.00
