data_image0
_cell_length_a       26.7127
_cell_length_b       17.9748
_cell_length_c       17.8024
_cell_angle_alpha    90
_cell_angle_beta     90
_cell_angle_gamma    90

_symmetry_space_group_name_H-M    "P 1"
_symmetry_int_tables_number       1

loop_
  _symmetry_equiv_pos_as_xyz
  'x, y, z'

loop_
  _atom_site_label
  _atom_site_occupancy
  _atom_site_fract_x
  _atom_site_fract_y
  _atom_site_fract_z
  _atom_site_thermal_displace_type
  _atom_site_B_iso_or_equiv
  _atom_site_type_symbol
  O1       1.0000 0.92637  0.29610  0.43320  Biso   1.000  O
  N1       1.0000 0.04515  0.13350  0.33310  Biso   1.000  N
  C1       1.0000 0.94057  0.26660  0.37430  Biso   1.000  C
  O2       1.0000 0.93019  0.28790  0.30980  Biso   1.000  O
  C2       1.0000 0.97421  0.19980  0.38050  Biso   1.000  C
  O3       1.0000 0.11357  0.02812  0.34120  Biso   1.000  O
  C3       1.0000 0.01284  0.18960  0.33140  Biso   1.000  C
  H1       1.0000 0.01690  0.22480  0.29360  Biso   1.000  H
  O4       1.0000 0.06840  0.96350  0.42120  Biso   1.000  O
  C4       1.0000 0.96830  0.14780  0.43350  Biso   1.000  C
  H2       1.0000 0.94300  0.15230  0.46920  Biso   1.000  H
  C5       1.0000 0.00010  0.08740  0.43450  Biso   1.000  C
  H3       1.0000 0.99540  0.05000  0.46990  Biso   1.000  H
  C6       1.0000 0.03850  0.08180  0.38420  Biso   1.000  C
  C7       1.0000 0.07640  0.01900  0.38300  Biso   1.000  C
  O5       1.0000 0.92637  0.79610  0.93320  Biso   1.000  O
  N2       1.0000 0.04515  0.63350  0.83310  Biso   1.000  N
  C8       1.0000 0.94057  0.76660  0.87430  Biso   1.000  C
  O6       1.0000 0.93019  0.78790  0.80980  Biso   1.000  O
  C9       1.0000 0.97421  0.69980  0.88050  Biso   1.000  C
  O7       1.0000 0.11357  0.52812  0.84120  Biso   1.000  O
  C10      1.0000 0.01284  0.68960  0.83140  Biso   1.000  C
  H4       1.0000 0.01690  0.72480  0.79360  Biso   1.000  H
  O8       1.0000 0.06840  0.46350  0.92120  Biso   1.000  O
  C11      1.0000 0.96830  0.64780  0.93350  Biso   1.000  C
  H5       1.0000 0.94300  0.65230  0.96920  Biso   1.000  H
  C12      1.0000 0.00010  0.58740  0.93450  Biso   1.000  C
  H6       1.0000 0.99540  0.55000  0.96990  Biso   1.000  H
  C13      1.0000 0.03850  0.58180  0.88420  Biso   1.000  C
  C14      1.0000 0.07640  0.51900  0.88300  Biso   1.000  C
  O9       1.0000 0.42637  0.29610  0.93320  Biso   1.000  O
  N3       1.0000 0.54515  0.13350  0.83310  Biso   1.000  N
  C15      1.0000 0.44057  0.26660  0.87430  Biso   1.000  C
  O10      1.0000 0.43019  0.28790  0.80980  Biso   1.000  O
  C16      1.0000 0.47421  0.19980  0.88050  Biso   1.000  C
  O11      1.0000 0.61357  0.02812  0.84120  Biso   1.000  O
  C17      1.0000 0.51284  0.18960  0.83140  Biso   1.000  C
  H7       1.0000 0.51690  0.22480  0.79360  Biso   1.000  H
  O12      1.0000 0.56840  0.96350  0.92120  Biso   1.000  O
  C18      1.0000 0.46830  0.14780  0.93350  Biso   1.000  C
  H8       1.0000 0.44300  0.15230  0.96920  Biso   1.000  H
  C19      1.0000 0.50010  0.08740  0.93450  Biso   1.000  C
  H9       1.0000 0.49540  0.05000  0.96990  Biso   1.000  H
  C20      1.0000 0.53850  0.08180  0.88420  Biso   1.000  C
  C21      1.0000 0.57640  0.01900  0.88300  Biso   1.000  C
  O13      1.0000 0.42637  0.79610  0.43320  Biso   1.000  O
  N4       1.0000 0.54515  0.63350  0.33310  Biso   1.000  N
  C22      1.0000 0.44057  0.76660  0.37430  Biso   1.000  C
  O14      1.0000 0.43019  0.78790  0.30980  Biso   1.000  O
  C23      1.0000 0.47421  0.69980  0.38050  Biso   1.000  C
  O15      1.0000 0.61357  0.52812  0.34120  Biso   1.000  O
  C24      1.0000 0.51284  0.68960  0.33140  Biso   1.000  C
  H10      1.0000 0.51690  0.72480  0.29360  Biso   1.000  H
  O16      1.0000 0.56840  0.46350  0.42120  Biso   1.000  O
  C25      1.0000 0.46830  0.64780  0.43350  Biso   1.000  C
  H11      1.0000 0.44300  0.65230  0.46920  Biso   1.000  H
  C26      1.0000 0.50010  0.58740  0.43450  Biso   1.000  C
  H12      1.0000 0.49540  0.55000  0.46990  Biso   1.000  H
  C27      1.0000 0.53850  0.58180  0.38420  Biso   1.000  C
  C28      1.0000 0.57640  0.51900  0.38300  Biso   1.000  C
  O17      1.0000 0.82363  0.45390  0.43320  Biso   1.000  O
  N5       1.0000 0.70485  0.61650  0.33310  Biso   1.000  N
  C29      1.0000 0.80943  0.48340  0.37430  Biso   1.000  C
  O18      1.0000 0.81981  0.46210  0.30980  Biso   1.000  O
  C30      1.0000 0.77579  0.55020  0.38050  Biso   1.000  C
  O19      1.0000 0.63643  0.72188  0.34120  Biso   1.000  O
  C31      1.0000 0.73716  0.56040  0.33140  Biso   1.000  C
  H13      1.0000 0.73310  0.52520  0.29360  Biso   1.000  H
  O20      1.0000 0.68160  0.78650  0.42120  Biso   1.000  O
  C32      1.0000 0.78170  0.60220  0.43350  Biso   1.000  C
  H14      1.0000 0.80700  0.59770  0.46920  Biso   1.000  H
  C33      1.0000 0.74990  0.66260  0.43450  Biso   1.000  C
  H15      1.0000 0.75460  0.70000  0.46990  Biso   1.000  H
  C34      1.0000 0.71150  0.66820  0.38420  Biso   1.000  C
  C35      1.0000 0.67360  0.73100  0.38300  Biso   1.000  C
  O21      1.0000 0.82363  0.95390  0.93320  Biso   1.000  O
  N6       1.0000 0.70485  0.11650  0.83310  Biso   1.000  N
  C36      1.0000 0.80943  0.98340  0.87430  Biso   1.000  C
  O22      1.0000 0.81981  0.96210  0.80980  Biso   1.000  O
  C37      1.0000 0.77579  0.05020  0.88050  Biso   1.000  C
  O23      1.0000 0.63643  0.22188  0.84120  Biso   1.000  O
  C38      1.0000 0.73716  0.06040  0.83140  Biso   1.000  C
  H16      1.0000 0.73310  0.02520  0.79360  Biso   1.000  H
  O24      1.0000 0.68160  0.28650  0.92120  Biso   1.000  O
  C39      1.0000 0.78170  0.10220  0.93350  Biso   1.000  C
  H17      1.0000 0.80700  0.09770  0.96920  Biso   1.000  H
  C40      1.0000 0.74990  0.16260  0.93450  Biso   1.000  C
  H18      1.0000 0.75460  0.20000  0.96990  Biso   1.000  H
  C41      1.0000 0.71150  0.16820  0.88420  Biso   1.000  C
  C42      1.0000 0.67360  0.23100  0.88300  Biso   1.000  C
  O25      1.0000 0.32363  0.45390  0.93320  Biso   1.000  O
  N7       1.0000 0.20485  0.61650  0.83310  Biso   1.000  N
  C43      1.0000 0.30943  0.48340  0.87430  Biso   1.000  C
  O26      1.0000 0.31981  0.46210  0.80980  Biso   1.000  O
  C44      1.0000 0.27579  0.55020  0.88050  Biso   1.000  C
  O27      1.0000 0.13643  0.72188  0.84120  Biso   1.000  O
  C45      1.0000 0.23716  0.56040  0.83140  Biso   1.000  C
  H19      1.0000 0.23310  0.52520  0.79360  Biso   1.000  H
  O28      1.0000 0.18160  0.78650  0.92120  Biso   1.000  O
  C46      1.0000 0.28170  0.60220  0.93350  Biso   1.000  C
  H20      1.0000 0.30700  0.59770  0.96920  Biso   1.000  H
  C47      1.0000 0.24990  0.66260  0.93450  Biso   1.000  C
  H21      1.0000 0.25460  0.70000  0.96990  Biso   1.000  H
  C48      1.0000 0.21150  0.66820  0.88420  Biso   1.000  C
  C49      1.0000 0.17360  0.73100  0.88300  Biso   1.000  C
  O29      1.0000 0.32363  0.95390  0.43320  Biso   1.000  O
  N8       1.0000 0.20485  0.11650  0.33310  Biso   1.000  N
  C50      1.0000 0.30943  0.98340  0.37430  Biso   1.000  C
  O30      1.0000 0.31981  0.96210  0.30980  Biso   1.000  O
  C51      1.0000 0.27579  0.05020  0.38050  Biso   1.000  C
  O31      1.0000 0.13643  0.22188  0.34120  Biso   1.000  O
  C52      1.0000 0.23716  0.06040  0.33140  Biso   1.000  C
  H22      1.0000 0.23310  0.02520  0.29360  Biso   1.000  H
  O32      1.0000 0.18160  0.28650  0.42120  Biso   1.000  O
  C53      1.0000 0.28170  0.10220  0.43350  Biso   1.000  C
  H23      1.0000 0.30700  0.09770  0.46920  Biso   1.000  H
  C54      1.0000 0.24990  0.16260  0.43450  Biso   1.000  C
  H24      1.0000 0.25460  0.20000  0.46990  Biso   1.000  H
  C55      1.0000 0.21150  0.16820  0.38420  Biso   1.000  C
  C56      1.0000 0.17360  0.23100  0.38300  Biso   1.000  C
  O33      1.0000 0.82363  0.29610  0.31680  Biso   1.000  O
  N9       1.0000 0.70485  0.13350  0.41690  Biso   1.000  N
  C57      1.0000 0.80943  0.26660  0.37570  Biso   1.000  C
  O34      1.0000 0.81981  0.28790  0.44020  Biso   1.000  O
  C58      1.0000 0.77579  0.19980  0.36950  Biso   1.000  C
  O35      1.0000 0.63643  0.02812  0.40880  Biso   1.000  O
  C59      1.0000 0.73716  0.18960  0.41860  Biso   1.000  C
  H25      1.0000 0.73310  0.22480  0.45640  Biso   1.000  H
  O36      1.0000 0.68160  0.96350  0.32880  Biso   1.000  O
  C60      1.0000 0.78170  0.14780  0.31650  Biso   1.000  C
  H26      1.0000 0.80700  0.15230  0.28080  Biso   1.000  H
  C61      1.0000 0.74990  0.08740  0.31550  Biso   1.000  C
  H27      1.0000 0.75460  0.05000  0.28010  Biso   1.000  H
  C62      1.0000 0.71150  0.08180  0.36580  Biso   1.000  C
  C63      1.0000 0.67360  0.01900  0.36700  Biso   1.000  C
  O37      1.0000 0.82363  0.79610  0.81680  Biso   1.000  O
  N10      1.0000 0.70485  0.63350  0.91690  Biso   1.000  N
  C64      1.0000 0.80943  0.76660  0.87570  Biso   1.000  C
  O38      1.0000 0.81981  0.78790  0.94020  Biso   1.000  O
  C65      1.0000 0.77579  0.69980  0.86950  Biso   1.000  C
  O39      1.0000 0.63643  0.52812  0.90880  Biso   1.000  O
  C66      1.0000 0.73716  0.68960  0.91860  Biso   1.000  C
  H28      1.0000 0.73310  0.72480  0.95640  Biso   1.000  H
  O40      1.0000 0.68160  0.46350  0.82880  Biso   1.000  O
  C67      1.0000 0.78170  0.64780  0.81650  Biso   1.000  C
  H29      1.0000 0.80700  0.65230  0.78080  Biso   1.000  H
  C68      1.0000 0.74990  0.58740  0.81550  Biso   1.000  C
  H30      1.0000 0.75460  0.55000  0.78010  Biso   1.000  H
  C69      1.0000 0.71150  0.58180  0.86580  Biso   1.000  C
  C70      1.0000 0.67360  0.51900  0.86700  Biso   1.000  C
  O41      1.0000 0.32363  0.29610  0.81680  Biso   1.000  O
  N11      1.0000 0.20485  0.13350  0.91690  Biso   1.000  N
  C71      1.0000 0.30943  0.26660  0.87570  Biso   1.000  C
  O42      1.0000 0.31981  0.28790  0.94020  Biso   1.000  O
  C72      1.0000 0.27579  0.19980  0.86950  Biso   1.000  C
  O43      1.0000 0.13643  0.02812  0.90880  Biso   1.000  O
  C73      1.0000 0.23716  0.18960  0.91860  Biso   1.000  C
  H31      1.0000 0.23310  0.22480  0.95640  Biso   1.000  H
  O44      1.0000 0.18160  0.96350  0.82880  Biso   1.000  O
  C74      1.0000 0.28170  0.14780  0.81650  Biso   1.000  C
  H32      1.0000 0.30700  0.15230  0.78080  Biso   1.000  H
  C75      1.0000 0.24990  0.08740  0.81550  Biso   1.000  C
  H33      1.0000 0.25460  0.05000  0.78010  Biso   1.000  H
  C76      1.0000 0.21150  0.08180  0.86580  Biso   1.000  C
  C77      1.0000 0.17360  0.01900  0.86700  Biso   1.000  C
  O45      1.0000 0.32363  0.79610  0.31680  Biso   1.000  O
  N12      1.0000 0.20485  0.63350  0.41690  Biso   1.000  N
  C78      1.0000 0.30943  0.76660  0.37570  Biso   1.000  C
  O46      1.0000 0.31981  0.78790  0.44020  Biso   1.000  O
  C79      1.0000 0.27579  0.69980  0.36950  Biso   1.000  C
  O47      1.0000 0.13643  0.52812  0.40880  Biso   1.000  O
  C80      1.0000 0.23716  0.68960  0.41860  Biso   1.000  C
  H34      1.0000 0.23310  0.72480  0.45640  Biso   1.000  H
  O48      1.0000 0.18160  0.46350  0.32880  Biso   1.000  O
  C81      1.0000 0.28170  0.64780  0.31650  Biso   1.000  C
  H35      1.0000 0.30700  0.65230  0.28080  Biso   1.000  H
  C82      1.0000 0.24990  0.58740  0.31550  Biso   1.000  C
  H36      1.0000 0.25460  0.55000  0.28010  Biso   1.000  H
  C83      1.0000 0.21150  0.58180  0.36580  Biso   1.000  C
  C84      1.0000 0.17360  0.51900  0.36700  Biso   1.000  C
  O49      1.0000 0.92637  0.45390  0.31680  Biso   1.000  O
  N13      1.0000 0.04515  0.61650  0.41690  Biso   1.000  N
  C85      1.0000 0.94057  0.48340  0.37570  Biso   1.000  C
  O50      1.0000 0.93019  0.46210  0.44020  Biso   1.000  O
  C86      1.0000 0.97421  0.55020  0.36950  Biso   1.000  C
  O51      1.0000 0.11357  0.72188  0.40880  Biso   1.000  O
  C87      1.0000 0.01284  0.56040  0.41860  Biso   1.000  C
  H37      1.0000 0.01690  0.52520  0.45640  Biso   1.000  H
  O52      1.0000 0.06840  0.78650  0.32880  Biso   1.000  O
  C88      1.0000 0.96830  0.60220  0.31650  Biso   1.000  C
  H38      1.0000 0.94300  0.59770  0.28080  Biso   1.000  H
  C89      1.0000 0.00010  0.66260  0.31550  Biso   1.000  C
  H39      1.0000 0.99540  0.70000  0.28010  Biso   1.000  H
  C90      1.0000 0.03850  0.66820  0.36580  Biso   1.000  C
  C91      1.0000 0.07640  0.73100  0.36700  Biso   1.000  C
  O53      1.0000 0.92637  0.95390  0.81680  Biso   1.000  O
  N14      1.0000 0.04515  0.11650  0.91690  Biso   1.000  N
  C92      1.0000 0.94057  0.98340  0.87570  Biso   1.000  C
  O54      1.0000 0.93019  0.96210  0.94020  Biso   1.000  O
  C93      1.0000 0.97421  0.05020  0.86950  Biso   1.000  C
  O55      1.0000 0.11357  0.22188  0.90880  Biso   1.000  O
  C94      1.0000 0.01284  0.06040  0.91860  Biso   1.000  C
  H40      1.0000 0.01690  0.02520  0.95640  Biso   1.000  H
  O56      1.0000 0.06840  0.28650  0.82880  Biso   1.000  O
  C95      1.0000 0.96830  0.10220  0.81650  Biso   1.000  C
  H41      1.0000 0.94300  0.09770  0.78080  Biso   1.000  H
  C96      1.0000 0.00010  0.16260  0.81550  Biso   1.000  C
  H42      1.0000 0.99540  0.20000  0.78010  Biso   1.000  H
  C97      1.0000 0.03850  0.16820  0.86580  Biso   1.000  C
  C98      1.0000 0.07640  0.23100  0.86700  Biso   1.000  C
  O57      1.0000 0.42637  0.45390  0.81680  Biso   1.000  O
  N15      1.0000 0.54515  0.61650  0.91690  Biso   1.000  N
  C99      1.0000 0.44057  0.48340  0.87570  Biso   1.000  C
  O58      1.0000 0.43019  0.46210  0.94020  Biso   1.000  O
  C100     1.0000 0.47421  0.55020  0.86950  Biso   1.000  C
  O59      1.0000 0.61357  0.72188  0.90880  Biso   1.000  O
  C101     1.0000 0.51284  0.56040  0.91860  Biso   1.000  C
  H43      1.0000 0.51690  0.52520  0.95640  Biso   1.000  H
  O60      1.0000 0.56840  0.78650  0.82880  Biso   1.000  O
  C102     1.0000 0.46830  0.60220  0.81650  Biso   1.000  C
  H44      1.0000 0.44300  0.59770  0.78080  Biso   1.000  H
  C103     1.0000 0.50010  0.66260  0.81550  Biso   1.000  C
  H45      1.0000 0.49540  0.70000  0.78010  Biso   1.000  H
  C104     1.0000 0.53850  0.66820  0.86580  Biso   1.000  C
  C105     1.0000 0.57640  0.73100  0.86700  Biso   1.000  C
  O61      1.0000 0.42637  0.95390  0.31680  Biso   1.000  O
  N16      1.0000 0.54515  0.11650  0.41690  Biso   1.000  N
  C106     1.0000 0.44057  0.98340  0.37570  Biso   1.000  C
  O62      1.0000 0.43019  0.96210  0.44020  Biso   1.000  O
  C107     1.0000 0.47421  0.05020  0.36950  Biso   1.000  C
  O63      1.0000 0.61357  0.22188  0.40880  Biso   1.000  O
  C108     1.0000 0.51284  0.06040  0.41860  Biso   1.000  C
  H46      1.0000 0.51690  0.02520  0.45640  Biso   1.000  H
  O64      1.0000 0.56840  0.28650  0.32880  Biso   1.000  O
  C109     1.0000 0.46830  0.10220  0.31650  Biso   1.000  C
  H47      1.0000 0.44300  0.09770  0.28080  Biso   1.000  H
  C110     1.0000 0.50010  0.16260  0.31550  Biso   1.000  C
  H48      1.0000 0.49540  0.20000  0.28010  Biso   1.000  H
  C111     1.0000 0.53850  0.16820  0.36580  Biso   1.000  C
  C112     1.0000 0.57640  0.23100  0.36700  Biso   1.000  C
  O65      1.0000 0.07363  0.70390  0.56680  Biso   1.000  O
  N17      1.0000 0.95485  0.86650  0.66690  Biso   1.000  N
  C113     1.0000 0.05943  0.73340  0.62570  Biso   1.000  C
  O66      1.0000 0.06981  0.71210  0.69020  Biso   1.000  O
  C114     1.0000 0.02579  0.80020  0.61950  Biso   1.000  C
  O67      1.0000 0.88643  0.97188  0.65880  Biso   1.000  O
  C115     1.0000 0.98716  0.81040  0.66860  Biso   1.000  C
  H49      1.0000 0.98310  0.77520  0.70640  Biso   1.000  H
  O68      1.0000 0.93160  0.03650  0.57880  Biso   1.000  O
  C116     1.0000 0.03170  0.85220  0.56650  Biso   1.000  C
  H50      1.0000 0.05700  0.84770  0.53080  Biso   1.000  H
  C117     1.0000 0.99990  0.91260  0.56550  Biso   1.000  C
  H51      1.0000 0.00460  0.95000  0.53010  Biso   1.000  H
  C118     1.0000 0.96150  0.91820  0.61580  Biso   1.000  C
  C119     1.0000 0.92360  0.98100  0.61700  Biso   1.000  C
  O69      1.0000 0.07363  0.20390  0.06680  Biso   1.000  O
  N18      1.0000 0.95485  0.36650  0.16690  Biso   1.000  N
  C120     1.0000 0.05943  0.23340  0.12570  Biso   1.000  C
  O70      1.0000 0.06981  0.21210  0.19020  Biso   1.000  O
  C121     1.0000 0.02579  0.30020  0.11950  Biso   1.000  C
  O71      1.0000 0.88643  0.47188  0.15880  Biso   1.000  O
  C122     1.0000 0.98716  0.31040  0.16860  Biso   1.000  C
  H52      1.0000 0.98310  0.27520  0.20640  Biso   1.000  H
  O72      1.0000 0.93160  0.53650  0.07880  Biso   1.000  O
  C123     1.0000 0.03170  0.35220  0.06650  Biso   1.000  C
  H53      1.0000 0.05700  0.34770  0.03080  Biso   1.000  H
  C124     1.0000 0.99990  0.41260  0.06550  Biso   1.000  C
  H54      1.0000 0.00460  0.45000  0.03010  Biso   1.000  H
  C125     1.0000 0.96150  0.41820  0.11580  Biso   1.000  C
  C126     1.0000 0.92360  0.48100  0.11700  Biso   1.000  C
  O73      1.0000 0.57363  0.70390  0.06680  Biso   1.000  O
  N19      1.0000 0.45485  0.86650  0.16690  Biso   1.000  N
  C127     1.0000 0.55943  0.73340  0.12570  Biso   1.000  C
  O74      1.0000 0.56981  0.71210  0.19020  Biso   1.000  O
  C128     1.0000 0.52579  0.80020  0.11950  Biso   1.000  C
  O75      1.0000 0.38643  0.97188  0.15880  Biso   1.000  O
  C129     1.0000 0.48716  0.81040  0.16860  Biso   1.000  C
  H55      1.0000 0.48310  0.77520  0.20640  Biso   1.000  H
  O76      1.0000 0.43160  0.03650  0.07880  Biso   1.000  O
  C130     1.0000 0.53170  0.85220  0.06650  Biso   1.000  C
  H56      1.0000 0.55700  0.84770  0.03080  Biso   1.000  H
  C131     1.0000 0.49990  0.91260  0.06550  Biso   1.000  C
  H57      1.0000 0.50460  0.95000  0.03010  Biso   1.000  H
  C132     1.0000 0.46150  0.91820  0.11580  Biso   1.000  C
  C133     1.0000 0.42360  0.98100  0.11700  Biso   1.000  C
  O77      1.0000 0.57363  0.20390  0.56680  Biso   1.000  O
  N20      1.0000 0.45485  0.36650  0.66690  Biso   1.000  N
  C134     1.0000 0.55943  0.23340  0.62570  Biso   1.000  C
  O78      1.0000 0.56981  0.21210  0.69020  Biso   1.000  O
  C135     1.0000 0.52579  0.30020  0.61950  Biso   1.000  C
  O79      1.0000 0.38643  0.47188  0.65880  Biso   1.000  O
  C136     1.0000 0.48716  0.31040  0.66860  Biso   1.000  C
  H58      1.0000 0.48310  0.27520  0.70640  Biso   1.000  H
  O80      1.0000 0.43160  0.53650  0.57880  Biso   1.000  O
  C137     1.0000 0.53170  0.35220  0.56650  Biso   1.000  C
  H59      1.0000 0.55700  0.34770  0.53080  Biso   1.000  H
  C138     1.0000 0.49990  0.41260  0.56550  Biso   1.000  C
  H60      1.0000 0.50460  0.45000  0.53010  Biso   1.000  H
  C139     1.0000 0.46150  0.41820  0.61580  Biso   1.000  C
  C140     1.0000 0.42360  0.48100  0.61700  Biso   1.000  C
  O81      1.0000 0.17637  0.54610  0.56680  Biso   1.000  O
  N21      1.0000 0.29515  0.38350  0.66690  Biso   1.000  N
  C141     1.0000 0.19057  0.51660  0.62570  Biso   1.000  C
  O82      1.0000 0.18019  0.53790  0.69020  Biso   1.000  O
  C142     1.0000 0.22421  0.44980  0.61950  Biso   1.000  C
  O83      1.0000 0.36357  0.27812  0.65880  Biso   1.000  O
  C143     1.0000 0.26284  0.43960  0.66860  Biso   1.000  C
  H61      1.0000 0.26690  0.47480  0.70640  Biso   1.000  H
  O84      1.0000 0.31840  0.21350  0.57880  Biso   1.000  O
  C144     1.0000 0.21830  0.39780  0.56650  Biso   1.000  C
  H62      1.0000 0.19300  0.40230  0.53080  Biso   1.000  H
  C145     1.0000 0.25010  0.33740  0.56550  Biso   1.000  C
  H63      1.0000 0.24540  0.30000  0.53010  Biso   1.000  H
  C146     1.0000 0.28850  0.33180  0.61580  Biso   1.000  C
  C147     1.0000 0.32640  0.26900  0.61700  Biso   1.000  C
  O85      1.0000 0.17637  0.04610  0.06680  Biso   1.000  O
  N22      1.0000 0.29515  0.88350  0.16690  Biso   1.000  N
  C148     1.0000 0.19057  0.01660  0.12570  Biso   1.000  C
  O86      1.0000 0.18019  0.03790  0.19020  Biso   1.000  O
  C149     1.0000 0.22421  0.94980  0.11950  Biso   1.000  C
  O87      1.0000 0.36357  0.77812  0.15880  Biso   1.000  O
  C150     1.0000 0.26284  0.93960  0.16860  Biso   1.000  C
  H64      1.0000 0.26690  0.97480  0.20640  Biso   1.000  H
  O88      1.0000 0.31840  0.71350  0.07880  Biso   1.000  O
  C151     1.0000 0.21830  0.89780  0.06650  Biso   1.000  C
  H65      1.0000 0.19300  0.90230  0.03080  Biso   1.000  H
  C152     1.0000 0.25010  0.83740  0.06550  Biso   1.000  C
  H66      1.0000 0.24540  0.80000  0.03010  Biso   1.000  H
  C153     1.0000 0.28850  0.83180  0.11580  Biso   1.000  C
  C154     1.0000 0.32640  0.76900  0.11700  Biso   1.000  C
  O89      1.0000 0.67637  0.54610  0.06680  Biso   1.000  O
  N23      1.0000 0.79515  0.38350  0.16690  Biso   1.000  N
  C155     1.0000 0.69057  0.51660  0.12570  Biso   1.000  C
  O90      1.0000 0.68019  0.53790  0.19020  Biso   1.000  O
  C156     1.0000 0.72421  0.44980  0.11950  Biso   1.000  C
  O91      1.0000 0.86357  0.27812  0.15880  Biso   1.000  O
  C157     1.0000 0.76284  0.43960  0.16860  Biso   1.000  C
  H67      1.0000 0.76690  0.47480  0.20640  Biso   1.000  H
  O92      1.0000 0.81840  0.21350  0.07880  Biso   1.000  O
  C158     1.0000 0.71830  0.39780  0.06650  Biso   1.000  C
  H68      1.0000 0.69300  0.40230  0.03080  Biso   1.000  H
  C159     1.0000 0.75010  0.33740  0.06550  Biso   1.000  C
  H69      1.0000 0.74540  0.30000  0.03010  Biso   1.000  H
  C160     1.0000 0.78850  0.33180  0.11580  Biso   1.000  C
  C161     1.0000 0.82640  0.26900  0.11700  Biso   1.000  C
  O93      1.0000 0.67637  0.04610  0.56680  Biso   1.000  O
  N24      1.0000 0.79515  0.88350  0.66690  Biso   1.000  N
  C162     1.0000 0.69057  0.01660  0.62570  Biso   1.000  C
  O94      1.0000 0.68019  0.03790  0.69020  Biso   1.000  O
  C163     1.0000 0.72421  0.94980  0.61950  Biso   1.000  C
  O95      1.0000 0.86357  0.77812  0.65880  Biso   1.000  O
  C164     1.0000 0.76284  0.93960  0.66860  Biso   1.000  C
  H70      1.0000 0.76690  0.97480  0.70640  Biso   1.000  H
  O96      1.0000 0.81840  0.71350  0.57880  Biso   1.000  O
  C165     1.0000 0.71830  0.89780  0.56650  Biso   1.000  C
  H71      1.0000 0.69300  0.90230  0.53080  Biso   1.000  H
  C166     1.0000 0.75010  0.83740  0.56550  Biso   1.000  C
  H72      1.0000 0.74540  0.80000  0.53010  Biso   1.000  H
  C167     1.0000 0.78850  0.83180  0.61580  Biso   1.000  C
  C168     1.0000 0.82640  0.76900  0.61700  Biso   1.000  C
  O97      1.0000 0.17637  0.70390  0.68320  Biso   1.000  O
  N25      1.0000 0.29515  0.86650  0.58310  Biso   1.000  N
  C169     1.0000 0.19057  0.73340  0.62430  Biso   1.000  C
  O98      1.0000 0.18019  0.71210  0.55980  Biso   1.000  O
  C170     1.0000 0.22421  0.80020  0.63050  Biso   1.000  C
  O99      1.0000 0.36357  0.97188  0.59120  Biso   1.000  O
  C171     1.0000 0.26284  0.81040  0.58140  Biso   1.000  C
  H73      1.0000 0.26690  0.77520  0.54360  Biso   1.000  H
  O100     1.0000 0.31840  0.03650  0.67120  Biso   1.000  O
  C172     1.0000 0.21830  0.85220  0.68350  Biso   1.000  C
  H74      1.0000 0.19300  0.84770  0.71920  Biso   1.000  H
  C173     1.0000 0.25010  0.91260  0.68450  Biso   1.000  C
  H75      1.0000 0.24540  0.95000  0.71990  Biso   1.000  H
  C174     1.0000 0.28850  0.91820  0.63420  Biso   1.000  C
  C175     1.0000 0.32640  0.98100  0.63300  Biso   1.000  C
  O101     1.0000 0.17637  0.20390  0.18320  Biso   1.000  O
  N26      1.0000 0.29515  0.36650  0.08310  Biso   1.000  N
  C176     1.0000 0.19057  0.23340  0.12430  Biso   1.000  C
  O102     1.0000 0.18019  0.21210  0.05980  Biso   1.000  O
  C177     1.0000 0.22421  0.30020  0.13050  Biso   1.000  C
  O103     1.0000 0.36357  0.47188  0.09120  Biso   1.000  O
  C178     1.0000 0.26284  0.31040  0.08140  Biso   1.000  C
  H76      1.0000 0.26690  0.27520  0.04360  Biso   1.000  H
  O104     1.0000 0.31840  0.53650  0.17120  Biso   1.000  O
  C179     1.0000 0.21830  0.35220  0.18350  Biso   1.000  C
  H77      1.0000 0.19300  0.34770  0.21920  Biso   1.000  H
  C180     1.0000 0.25010  0.41260  0.18450  Biso   1.000  C
  H78      1.0000 0.24540  0.45000  0.21990  Biso   1.000  H
  C181     1.0000 0.28850  0.41820  0.13420  Biso   1.000  C
  C182     1.0000 0.32640  0.48100  0.13300  Biso   1.000  C
  O105     1.0000 0.67637  0.70390  0.18320  Biso   1.000  O
  N27      1.0000 0.79515  0.86650  0.08310  Biso   1.000  N
  C183     1.0000 0.69057  0.73340  0.12430  Biso   1.000  C
  O106     1.0000 0.68019  0.71210  0.05980  Biso   1.000  O
  C184     1.0000 0.72421  0.80020  0.13050  Biso   1.000  C
  O107     1.0000 0.86357  0.97188  0.09120  Biso   1.000  O
  C185     1.0000 0.76284  0.81040  0.08140  Biso   1.000  C
  H79      1.0000 0.76690  0.77520  0.04360  Biso   1.000  H
  O108     1.0000 0.81840  0.03650  0.17120  Biso   1.000  O
  C186     1.0000 0.71830  0.85220  0.18350  Biso   1.000  C
  H80      1.0000 0.69300  0.84770  0.21920  Biso   1.000  H
  C187     1.0000 0.75010  0.91260  0.18450  Biso   1.000  C
  H81      1.0000 0.74540  0.95000  0.21990  Biso   1.000  H
  C188     1.0000 0.78850  0.91820  0.13420  Biso   1.000  C
  C189     1.0000 0.82640  0.98100  0.13300  Biso   1.000  C
  O109     1.0000 0.67637  0.20390  0.68320  Biso   1.000  O
  N28      1.0000 0.79515  0.36650  0.58310  Biso   1.000  N
  C190     1.0000 0.69057  0.23340  0.62430  Biso   1.000  C
  O110     1.0000 0.68019  0.21210  0.55980  Biso   1.000  O
  C191     1.0000 0.72421  0.30020  0.63050  Biso   1.000  C
  O111     1.0000 0.86357  0.47188  0.59120  Biso   1.000  O
  C192     1.0000 0.76284  0.31040  0.58140  Biso   1.000  C
  H82      1.0000 0.76690  0.27520  0.54360  Biso   1.000  H
  O112     1.0000 0.81840  0.53650  0.67120  Biso   1.000  O
  C193     1.0000 0.71830  0.35220  0.68350  Biso   1.000  C
  H83      1.0000 0.69300  0.34770  0.71920  Biso   1.000  H
  C194     1.0000 0.75010  0.41260  0.68450  Biso   1.000  C
  H84      1.0000 0.74540  0.45000  0.71990  Biso   1.000  H
  C195     1.0000 0.78850  0.41820  0.63420  Biso   1.000  C
  C196     1.0000 0.82640  0.48100  0.63300  Biso   1.000  C
  O113     1.0000 0.07363  0.54610  0.68320  Biso   1.000  O
  N29      1.0000 0.95485  0.38350  0.58310  Biso   1.000  N
  C197     1.0000 0.05943  0.51660  0.62430  Biso   1.000  C
  O114     1.0000 0.06981  0.53790  0.55980  Biso   1.000  O
  C198     1.0000 0.02579  0.44980  0.63050  Biso   1.000  C
  O115     1.0000 0.88643  0.27812  0.59120  Biso   1.000  O
  C199     1.0000 0.98716  0.43960  0.58140  Biso   1.000  C
  H85      1.0000 0.98310  0.47480  0.54360  Biso   1.000  H
  O116     1.0000 0.93160  0.21350  0.67120  Biso   1.000  O
  C200     1.0000 0.03170  0.39780  0.68350  Biso   1.000  C
  H86      1.0000 0.05700  0.40230  0.71920  Biso   1.000  H
  C201     1.0000 0.99990  0.33740  0.68450  Biso   1.000  C
  H87      1.0000 0.00460  0.30000  0.71990  Biso   1.000  H
  C202     1.0000 0.96150  0.33180  0.63420  Biso   1.000  C
  C203     1.0000 0.92360  0.26900  0.63300  Biso   1.000  C
  O117     1.0000 0.07363  0.04610  0.18320  Biso   1.000  O
  N30      1.0000 0.95485  0.88350  0.08310  Biso   1.000  N
  C204     1.0000 0.05943  0.01660  0.12430  Biso   1.000  C
  O118     1.0000 0.06981  0.03790  0.05980  Biso   1.000  O
  C205     1.0000 0.02579  0.94980  0.13050  Biso   1.000  C
  O119     1.0000 0.88643  0.77812  0.09120  Biso   1.000  O
  C206     1.0000 0.98716  0.93960  0.08140  Biso   1.000  C
  H88      1.0000 0.98310  0.97480  0.04360  Biso   1.000  H
  O120     1.0000 0.93160  0.71350  0.17120  Biso   1.000  O
  C207     1.0000 0.03170  0.89780  0.18350  Biso   1.000  C
  H89      1.0000 0.05700  0.90230  0.21920  Biso   1.000  H
  C208     1.0000 0.99990  0.83740  0.18450  Biso   1.000  C
  H90      1.0000 0.00460  0.80000  0.21990  Biso   1.000  H
  C209     1.0000 0.96150  0.83180  0.13420  Biso   1.000  C
  C210     1.0000 0.92360  0.76900  0.13300  Biso   1.000  C
  O121     1.0000 0.57363  0.54610  0.18320  Biso   1.000  O
  N31      1.0000 0.45485  0.38350  0.08310  Biso   1.000  N
  C211     1.0000 0.55943  0.51660  0.12430  Biso   1.000  C
  O122     1.0000 0.56981  0.53790  0.05980  Biso   1.000  O
  C212     1.0000 0.52579  0.44980  0.13050  Biso   1.000  C
  O123     1.0000 0.38643  0.27812  0.09120  Biso   1.000  O
  C213     1.0000 0.48716  0.43960  0.08140  Biso   1.000  C
  H91      1.0000 0.48310  0.47480  0.04360  Biso   1.000  H
  O124     1.0000 0.43160  0.21350  0.17120  Biso   1.000  O
  C214     1.0000 0.53170  0.39780  0.18350  Biso   1.000  C
  H92      1.0000 0.55700  0.40230  0.21920  Biso   1.000  H
  C215     1.0000 0.49990  0.33740  0.18450  Biso   1.000  C
  H93      1.0000 0.50460  0.30000  0.21990  Biso   1.000  H
  C216     1.0000 0.46150  0.33180  0.13420  Biso   1.000  C
  C217     1.0000 0.42360  0.26900  0.13300  Biso   1.000  C
  O125     1.0000 0.57363  0.04610  0.68320  Biso   1.000  O
  N32      1.0000 0.45485  0.88350  0.58310  Biso   1.000  N
  C218     1.0000 0.55943  0.01660  0.62430  Biso   1.000  C
  O126     1.0000 0.56981  0.03790  0.55980  Biso   1.000  O
  C219     1.0000 0.52579  0.94980  0.63050  Biso   1.000  C
  O127     1.0000 0.38643  0.77812  0.59120  Biso   1.000  O
  C220     1.0000 0.48716  0.93960  0.58140  Biso   1.000  C
  H94      1.0000 0.48310  0.97480  0.54360  Biso   1.000  H
  O128     1.0000 0.43160  0.71350  0.67120  Biso   1.000  O
  C221     1.0000 0.53170  0.89780  0.68350  Biso   1.000  C
  H95      1.0000 0.55700  0.90230  0.71920  Biso   1.000  H
  C222     1.0000 0.49990  0.83740  0.68450  Biso   1.000  C
  H96      1.0000 0.50460  0.80000  0.71990  Biso   1.000  H
  C223     1.0000 0.46150  0.83180  0.63420  Biso   1.000  C
  C224     1.0000 0.42360  0.76900  0.63300  Biso   1.000  C
  Eu1      1.0000 0.87500  0.37500  0.50205  Biso   1.000  Eu
  Eu2      1.0000 0.87500  0.87500  0.00205  Biso   1.000  Eu
  Eu3      1.0000 0.37500  0.37500  0.00205  Biso   1.000  Eu
  Eu4      1.0000 0.37500  0.87500  0.50205  Biso   1.000  Eu
  Eu5      1.0000 0.87500  0.37500  0.24795  Biso   1.000  Eu
  Eu6      1.0000 0.87500  0.87500  0.74796  Biso   1.000  Eu
  Eu7      1.0000 0.37500  0.37500  0.74796  Biso   1.000  Eu
  Eu8      1.0000 0.37500  0.87500  0.24795  Biso   1.000  Eu
  Eu9      1.0000 0.12500  0.62500  0.49795  Biso   1.000  Eu
  Eu10     1.0000 0.12500  0.12500  0.99796  Biso   1.000  Eu
  Eu11     1.0000 0.62500  0.62500  0.99796  Biso   1.000  Eu
  Eu12     1.0000 0.62500  0.12500  0.49795  Biso   1.000  Eu
  Eu13     1.0000 0.12500  0.62500  0.75205  Biso   1.000  Eu
  Eu14     1.0000 0.12500  0.12500  0.25205  Biso   1.000  Eu
  Eu15     1.0000 0.62500  0.62500  0.25205  Biso   1.000  Eu
  Eu16     1.0000 0.62500  0.12500  0.75205  Biso   1.000  Eu
