data_image0
_cell_length_a       26.4473
_cell_length_b       17.9442
_cell_length_c       17.3804
_cell_angle_alpha    90
_cell_angle_beta     90
_cell_angle_gamma    90

_symmetry_space_group_name_H-M    "P 1"
_symmetry_int_tables_number       1

loop_
  _symmetry_equiv_pos_as_xyz
  'x, y, z'

loop_
  _atom_site_label
  _atom_site_occupancy
  _atom_site_fract_x
  _atom_site_fract_y
  _atom_site_fract_z
  _atom_site_thermal_displace_type
  _atom_site_B_iso_or_equiv
  _atom_site_type_symbol
  O1       1.0000 0.92977  0.30226  0.43530  Biso   1.000  O
  O2       1.0000 0.92575  0.28598  0.30908  Biso   1.000  O
  O3       1.0000 0.11390  0.02876  0.33944  Biso   1.000  O
  O4       1.0000 0.06750  0.96310  0.41950  Biso   1.000  O
  N1       1.0000 0.04608  0.13568  0.33308  Biso   1.000  N
  C1       1.0000 0.94037  0.26900  0.37500  Biso   1.000  C
  C2       1.0000 0.97399  0.20180  0.38120  Biso   1.000  C
  C3       1.0000 0.01407  0.19290  0.33210  Biso   1.000  C
  H1       1.0000 0.01930  0.22970  0.29530  Biso   1.000  H
  C4       1.0000 0.96660  0.14780  0.43430  Biso   1.000  C
  H2       1.0000 0.94050  0.15140  0.46990  Biso   1.000  H
  C5       1.0000 0.99860  0.08760  0.43450  Biso   1.000  C
  H3       1.0000 0.99330  0.04920  0.46950  Biso   1.000  H
  C6       1.0000 0.03830  0.08340  0.38420  Biso   1.000  C
  C7       1.0000 0.07580  0.01910  0.38150  Biso   1.000  C
  O5       1.0000 0.92977  0.80226  0.93530  Biso   1.000  O
  O6       1.0000 0.92575  0.78598  0.80908  Biso   1.000  O
  O7       1.0000 0.11390  0.52876  0.83944  Biso   1.000  O
  O8       1.0000 0.06750  0.46310  0.91950  Biso   1.000  O
  N2       1.0000 0.04608  0.63568  0.83308  Biso   1.000  N
  C8       1.0000 0.94037  0.76900  0.87500  Biso   1.000  C
  C9       1.0000 0.97399  0.70180  0.88120  Biso   1.000  C
  C10      1.0000 0.01407  0.69290  0.83210  Biso   1.000  C
  H4       1.0000 0.01930  0.72970  0.79530  Biso   1.000  H
  C11      1.0000 0.96660  0.64780  0.93430  Biso   1.000  C
  H5       1.0000 0.94050  0.65140  0.96990  Biso   1.000  H
  C12      1.0000 0.99860  0.58760  0.93450  Biso   1.000  C
  H6       1.0000 0.99330  0.54920  0.96950  Biso   1.000  H
  C13      1.0000 0.03830  0.58340  0.88420  Biso   1.000  C
  C14      1.0000 0.07580  0.51910  0.88150  Biso   1.000  C
  O9       1.0000 0.42977  0.30226  0.93530  Biso   1.000  O
  O10      1.0000 0.42575  0.28598  0.80908  Biso   1.000  O
  O11      1.0000 0.61390  0.02876  0.83944  Biso   1.000  O
  O12      1.0000 0.56750  0.96310  0.91950  Biso   1.000  O
  N3       1.0000 0.54608  0.13568  0.83308  Biso   1.000  N
  C15      1.0000 0.44037  0.26900  0.87500  Biso   1.000  C
  C16      1.0000 0.47399  0.20180  0.88120  Biso   1.000  C
  C17      1.0000 0.51407  0.19290  0.83210  Biso   1.000  C
  H7       1.0000 0.51930  0.22970  0.79530  Biso   1.000  H
  C18      1.0000 0.46660  0.14780  0.93430  Biso   1.000  C
  H8       1.0000 0.44050  0.15140  0.96990  Biso   1.000  H
  C19      1.0000 0.49860  0.08760  0.93450  Biso   1.000  C
  H9       1.0000 0.49330  0.04920  0.96950  Biso   1.000  H
  C20      1.0000 0.53830  0.08340  0.88420  Biso   1.000  C
  C21      1.0000 0.57580  0.01910  0.88150  Biso   1.000  C
  O13      1.0000 0.42977  0.80226  0.43530  Biso   1.000  O
  O14      1.0000 0.42575  0.78598  0.30908  Biso   1.000  O
  O15      1.0000 0.61390  0.52876  0.33944  Biso   1.000  O
  O16      1.0000 0.56750  0.46310  0.41950  Biso   1.000  O
  N4       1.0000 0.54608  0.63568  0.33308  Biso   1.000  N
  C22      1.0000 0.44037  0.76900  0.37500  Biso   1.000  C
  C23      1.0000 0.47399  0.70180  0.38120  Biso   1.000  C
  C24      1.0000 0.51407  0.69290  0.33210  Biso   1.000  C
  H10      1.0000 0.51930  0.72970  0.29530  Biso   1.000  H
  C25      1.0000 0.46660  0.64780  0.43430  Biso   1.000  C
  H11      1.0000 0.44050  0.65140  0.46990  Biso   1.000  H
  C26      1.0000 0.49860  0.58760  0.43450  Biso   1.000  C
  H12      1.0000 0.49330  0.54920  0.46950  Biso   1.000  H
  C27      1.0000 0.53830  0.58340  0.38420  Biso   1.000  C
  C28      1.0000 0.57580  0.51910  0.38150  Biso   1.000  C
  O17      1.0000 0.82023  0.44774  0.43530  Biso   1.000  O
  O18      1.0000 0.82425  0.46402  0.30908  Biso   1.000  O
  O19      1.0000 0.63610  0.72124  0.33944  Biso   1.000  O
  O20      1.0000 0.68250  0.78690  0.41950  Biso   1.000  O
  N5       1.0000 0.70392  0.61432  0.33308  Biso   1.000  N
  C29      1.0000 0.80963  0.48100  0.37500  Biso   1.000  C
  C30      1.0000 0.77601  0.54820  0.38120  Biso   1.000  C
  C31      1.0000 0.73593  0.55710  0.33210  Biso   1.000  C
  H13      1.0000 0.73070  0.52030  0.29530  Biso   1.000  H
  C32      1.0000 0.78340  0.60220  0.43430  Biso   1.000  C
  H14      1.0000 0.80950  0.59860  0.46990  Biso   1.000  H
  C33      1.0000 0.75140  0.66240  0.43450  Biso   1.000  C
  H15      1.0000 0.75670  0.70080  0.46950  Biso   1.000  H
  C34      1.0000 0.71170  0.66660  0.38420  Biso   1.000  C
  C35      1.0000 0.67420  0.73090  0.38150  Biso   1.000  C
  O21      1.0000 0.82023  0.94774  0.93530  Biso   1.000  O
  O22      1.0000 0.82425  0.96402  0.80908  Biso   1.000  O
  O23      1.0000 0.63610  0.22124  0.83944  Biso   1.000  O
  O24      1.0000 0.68250  0.28690  0.91950  Biso   1.000  O
  N6       1.0000 0.70392  0.11432  0.83308  Biso   1.000  N
  C36      1.0000 0.80963  0.98100  0.87500  Biso   1.000  C
  C37      1.0000 0.77601  0.04820  0.88120  Biso   1.000  C
  C38      1.0000 0.73593  0.05710  0.83210  Biso   1.000  C
  H16      1.0000 0.73070  0.02030  0.79530  Biso   1.000  H
  C39      1.0000 0.78340  0.10220  0.93430  Biso   1.000  C
  H17      1.0000 0.80950  0.09860  0.96990  Biso   1.000  H
  C40      1.0000 0.75140  0.16240  0.93450  Biso   1.000  C
  H18      1.0000 0.75670  0.20080  0.96950  Biso   1.000  H
  C41      1.0000 0.71170  0.16660  0.88420  Biso   1.000  C
  C42      1.0000 0.67420  0.23090  0.88150  Biso   1.000  C
  O25      1.0000 0.32023  0.44774  0.93530  Biso   1.000  O
  O26      1.0000 0.32425  0.46402  0.80908  Biso   1.000  O
  O27      1.0000 0.13610  0.72124  0.83944  Biso   1.000  O
  O28      1.0000 0.18250  0.78690  0.91950  Biso   1.000  O
  N7       1.0000 0.20392  0.61432  0.83308  Biso   1.000  N
  C43      1.0000 0.30963  0.48100  0.87500  Biso   1.000  C
  C44      1.0000 0.27601  0.54820  0.88120  Biso   1.000  C
  C45      1.0000 0.23593  0.55710  0.83210  Biso   1.000  C
  H19      1.0000 0.23070  0.52030  0.79530  Biso   1.000  H
  C46      1.0000 0.28340  0.60220  0.93430  Biso   1.000  C
  H20      1.0000 0.30950  0.59860  0.96990  Biso   1.000  H
  C47      1.0000 0.25140  0.66240  0.93450  Biso   1.000  C
  H21      1.0000 0.25670  0.70080  0.96950  Biso   1.000  H
  C48      1.0000 0.21170  0.66660  0.88420  Biso   1.000  C
  C49      1.0000 0.17420  0.73090  0.88150  Biso   1.000  C
  O29      1.0000 0.32023  0.94774  0.43530  Biso   1.000  O
  O30      1.0000 0.32425  0.96402  0.30908  Biso   1.000  O
  O31      1.0000 0.13610  0.22124  0.33944  Biso   1.000  O
  O32      1.0000 0.18250  0.28690  0.41950  Biso   1.000  O
  N8       1.0000 0.20392  0.11432  0.33308  Biso   1.000  N
  C50      1.0000 0.30963  0.98100  0.37500  Biso   1.000  C
  C51      1.0000 0.27601  0.04820  0.38120  Biso   1.000  C
  C52      1.0000 0.23593  0.05710  0.33210  Biso   1.000  C
  H22      1.0000 0.23070  0.02030  0.29530  Biso   1.000  H
  C53      1.0000 0.28340  0.10220  0.43430  Biso   1.000  C
  H23      1.0000 0.30950  0.09860  0.46990  Biso   1.000  H
  C54      1.0000 0.25140  0.16240  0.43450  Biso   1.000  C
  H24      1.0000 0.25670  0.20080  0.46950  Biso   1.000  H
  C55      1.0000 0.21170  0.16660  0.38420  Biso   1.000  C
  C56      1.0000 0.17420  0.23090  0.38150  Biso   1.000  C
  O33      1.0000 0.82023  0.30226  0.31470  Biso   1.000  O
  O34      1.0000 0.82425  0.28598  0.44092  Biso   1.000  O
  O35      1.0000 0.63610  0.02876  0.41056  Biso   1.000  O
  O36      1.0000 0.68250  0.96310  0.33050  Biso   1.000  O
  N9       1.0000 0.70392  0.13568  0.41692  Biso   1.000  N
  C57      1.0000 0.80963  0.26900  0.37500  Biso   1.000  C
  C58      1.0000 0.77601  0.20180  0.36880  Biso   1.000  C
  C59      1.0000 0.73593  0.19290  0.41790  Biso   1.000  C
  H25      1.0000 0.73070  0.22970  0.45470  Biso   1.000  H
  C60      1.0000 0.78340  0.14780  0.31570  Biso   1.000  C
  H26      1.0000 0.80950  0.15140  0.28010  Biso   1.000  H
  C61      1.0000 0.75140  0.08760  0.31550  Biso   1.000  C
  H27      1.0000 0.75670  0.04920  0.28050  Biso   1.000  H
  C62      1.0000 0.71170  0.08340  0.36580  Biso   1.000  C
  C63      1.0000 0.67420  0.01910  0.36850  Biso   1.000  C
  O37      1.0000 0.82023  0.80226  0.81470  Biso   1.000  O
  O38      1.0000 0.82425  0.78598  0.94092  Biso   1.000  O
  O39      1.0000 0.63610  0.52876  0.91056  Biso   1.000  O
  O40      1.0000 0.68250  0.46310  0.83050  Biso   1.000  O
  N10      1.0000 0.70392  0.63568  0.91692  Biso   1.000  N
  C64      1.0000 0.80963  0.76900  0.87500  Biso   1.000  C
  C65      1.0000 0.77601  0.70180  0.86880  Biso   1.000  C
  C66      1.0000 0.73593  0.69290  0.91790  Biso   1.000  C
  H28      1.0000 0.73070  0.72970  0.95470  Biso   1.000  H
  C67      1.0000 0.78340  0.64780  0.81570  Biso   1.000  C
  H29      1.0000 0.80950  0.65140  0.78010  Biso   1.000  H
  C68      1.0000 0.75140  0.58760  0.81550  Biso   1.000  C
  H30      1.0000 0.75670  0.54920  0.78050  Biso   1.000  H
  C69      1.0000 0.71170  0.58340  0.86580  Biso   1.000  C
  C70      1.0000 0.67420  0.51910  0.86850  Biso   1.000  C
  O41      1.0000 0.32023  0.30226  0.81470  Biso   1.000  O
  O42      1.0000 0.32425  0.28598  0.94092  Biso   1.000  O
  O43      1.0000 0.13610  0.02876  0.91056  Biso   1.000  O
  O44      1.0000 0.18250  0.96310  0.83050  Biso   1.000  O
  N11      1.0000 0.20392  0.13568  0.91692  Biso   1.000  N
  C71      1.0000 0.30963  0.26900  0.87500  Biso   1.000  C
  C72      1.0000 0.27601  0.20180  0.86880  Biso   1.000  C
  C73      1.0000 0.23593  0.19290  0.91790  Biso   1.000  C
  H31      1.0000 0.23070  0.22970  0.95470  Biso   1.000  H
  C74      1.0000 0.28340  0.14780  0.81570  Biso   1.000  C
  H32      1.0000 0.30950  0.15140  0.78010  Biso   1.000  H
  C75      1.0000 0.25140  0.08760  0.81550  Biso   1.000  C
  H33      1.0000 0.25670  0.04920  0.78050  Biso   1.000  H
  C76      1.0000 0.21170  0.08340  0.86580  Biso   1.000  C
  C77      1.0000 0.17420  0.01910  0.86850  Biso   1.000  C
  O45      1.0000 0.32023  0.80226  0.31470  Biso   1.000  O
  O46      1.0000 0.32425  0.78598  0.44092  Biso   1.000  O
  O47      1.0000 0.13610  0.52876  0.41056  Biso   1.000  O
  O48      1.0000 0.18250  0.46310  0.33050  Biso   1.000  O
  N12      1.0000 0.20392  0.63568  0.41692  Biso   1.000  N
  C78      1.0000 0.30963  0.76900  0.37500  Biso   1.000  C
  C79      1.0000 0.27601  0.70180  0.36880  Biso   1.000  C
  C80      1.0000 0.23593  0.69290  0.41790  Biso   1.000  C
  H34      1.0000 0.23070  0.72970  0.45470  Biso   1.000  H
  C81      1.0000 0.28340  0.64780  0.31570  Biso   1.000  C
  H35      1.0000 0.30950  0.65140  0.28010  Biso   1.000  H
  C82      1.0000 0.25140  0.58760  0.31550  Biso   1.000  C
  H36      1.0000 0.25670  0.54920  0.28050  Biso   1.000  H
  C83      1.0000 0.21170  0.58340  0.36580  Biso   1.000  C
  C84      1.0000 0.17420  0.51910  0.36850  Biso   1.000  C
  O49      1.0000 0.92977  0.44774  0.31470  Biso   1.000  O
  O50      1.0000 0.92575  0.46402  0.44092  Biso   1.000  O
  O51      1.0000 0.11390  0.72124  0.41056  Biso   1.000  O
  O52      1.0000 0.06750  0.78690  0.33050  Biso   1.000  O
  N13      1.0000 0.04608  0.61432  0.41692  Biso   1.000  N
  C85      1.0000 0.94037  0.48100  0.37500  Biso   1.000  C
  C86      1.0000 0.97399  0.54820  0.36880  Biso   1.000  C
  C87      1.0000 0.01407  0.55710  0.41790  Biso   1.000  C
  H37      1.0000 0.01930  0.52030  0.45470  Biso   1.000  H
  C88      1.0000 0.96660  0.60220  0.31570  Biso   1.000  C
  H38      1.0000 0.94050  0.59860  0.28010  Biso   1.000  H
  C89      1.0000 0.99860  0.66240  0.31550  Biso   1.000  C
  H39      1.0000 0.99330  0.70080  0.28050  Biso   1.000  H
  C90      1.0000 0.03830  0.66660  0.36580  Biso   1.000  C
  C91      1.0000 0.07580  0.73090  0.36850  Biso   1.000  C
  O53      1.0000 0.92977  0.94774  0.81470  Biso   1.000  O
  O54      1.0000 0.92575  0.96402  0.94092  Biso   1.000  O
  O55      1.0000 0.11390  0.22124  0.91056  Biso   1.000  O
  O56      1.0000 0.06750  0.28690  0.83050  Biso   1.000  O
  N14      1.0000 0.04608  0.11432  0.91692  Biso   1.000  N
  C92      1.0000 0.94037  0.98100  0.87500  Biso   1.000  C
  C93      1.0000 0.97399  0.04820  0.86880  Biso   1.000  C
  C94      1.0000 0.01407  0.05710  0.91790  Biso   1.000  C
  H40      1.0000 0.01930  0.02030  0.95470  Biso   1.000  H
  C95      1.0000 0.96660  0.10220  0.81570  Biso   1.000  C
  H41      1.0000 0.94050  0.09860  0.78010  Biso   1.000  H
  C96      1.0000 0.99860  0.16240  0.81550  Biso   1.000  C
  H42      1.0000 0.99330  0.20080  0.78050  Biso   1.000  H
  C97      1.0000 0.03830  0.16660  0.86580  Biso   1.000  C
  C98      1.0000 0.07580  0.23090  0.86850  Biso   1.000  C
  O57      1.0000 0.42977  0.44774  0.81470  Biso   1.000  O
  O58      1.0000 0.42575  0.46402  0.94092  Biso   1.000  O
  O59      1.0000 0.61390  0.72124  0.91056  Biso   1.000  O
  O60      1.0000 0.56750  0.78690  0.83050  Biso   1.000  O
  N15      1.0000 0.54608  0.61432  0.91692  Biso   1.000  N
  C99      1.0000 0.44037  0.48100  0.87500  Biso   1.000  C
  C100     1.0000 0.47399  0.54820  0.86880  Biso   1.000  C
  C101     1.0000 0.51407  0.55710  0.91790  Biso   1.000  C
  H43      1.0000 0.51930  0.52030  0.95470  Biso   1.000  H
  C102     1.0000 0.46660  0.60220  0.81570  Biso   1.000  C
  H44      1.0000 0.44050  0.59860  0.78010  Biso   1.000  H
  C103     1.0000 0.49860  0.66240  0.81550  Biso   1.000  C
  H45      1.0000 0.49330  0.70080  0.78050  Biso   1.000  H
  C104     1.0000 0.53830  0.66660  0.86580  Biso   1.000  C
  C105     1.0000 0.57580  0.73090  0.86850  Biso   1.000  C
  O61      1.0000 0.42977  0.94774  0.31470  Biso   1.000  O
  O62      1.0000 0.42575  0.96402  0.44092  Biso   1.000  O
  O63      1.0000 0.61390  0.22124  0.41056  Biso   1.000  O
  O64      1.0000 0.56750  0.28690  0.33050  Biso   1.000  O
  N16      1.0000 0.54608  0.11432  0.41692  Biso   1.000  N
  C106     1.0000 0.44037  0.98100  0.37500  Biso   1.000  C
  C107     1.0000 0.47399  0.04820  0.36880  Biso   1.000  C
  C108     1.0000 0.51407  0.05710  0.41790  Biso   1.000  C
  H46      1.0000 0.51930  0.02030  0.45470  Biso   1.000  H
  C109     1.0000 0.46660  0.10220  0.31570  Biso   1.000  C
  H47      1.0000 0.44050  0.09860  0.28010  Biso   1.000  H
  C110     1.0000 0.49860  0.16240  0.31550  Biso   1.000  C
  H48      1.0000 0.49330  0.20080  0.28050  Biso   1.000  H
  C111     1.0000 0.53830  0.16660  0.36580  Biso   1.000  C
  C112     1.0000 0.57580  0.23090  0.36850  Biso   1.000  C
  O65      1.0000 0.07023  0.69774  0.56470  Biso   1.000  O
  O66      1.0000 0.07425  0.71402  0.69092  Biso   1.000  O
  O67      1.0000 0.88610  0.97124  0.66056  Biso   1.000  O
  O68      1.0000 0.93250  0.03690  0.58050  Biso   1.000  O
  N17      1.0000 0.95392  0.86432  0.66692  Biso   1.000  N
  C113     1.0000 0.05963  0.73100  0.62500  Biso   1.000  C
  C114     1.0000 0.02601  0.79820  0.61880  Biso   1.000  C
  C115     1.0000 0.98593  0.80710  0.66790  Biso   1.000  C
  H49      1.0000 0.98070  0.77030  0.70470  Biso   1.000  H
  C116     1.0000 0.03340  0.85220  0.56570  Biso   1.000  C
  H50      1.0000 0.05950  0.84860  0.53010  Biso   1.000  H
  C117     1.0000 0.00140  0.91240  0.56550  Biso   1.000  C
  H51      1.0000 0.00670  0.95080  0.53050  Biso   1.000  H
  C118     1.0000 0.96170  0.91660  0.61580  Biso   1.000  C
  C119     1.0000 0.92420  0.98090  0.61850  Biso   1.000  C
  O69      1.0000 0.07023  0.19774  0.06470  Biso   1.000  O
  O70      1.0000 0.07425  0.21402  0.19092  Biso   1.000  O
  O71      1.0000 0.88610  0.47124  0.16056  Biso   1.000  O
  O72      1.0000 0.93250  0.53690  0.08050  Biso   1.000  O
  N18      1.0000 0.95392  0.36432  0.16692  Biso   1.000  N
  C120     1.0000 0.05963  0.23100  0.12500  Biso   1.000  C
  C121     1.0000 0.02601  0.29820  0.11880  Biso   1.000  C
  C122     1.0000 0.98593  0.30710  0.16790  Biso   1.000  C
  H52      1.0000 0.98070  0.27030  0.20470  Biso   1.000  H
  C123     1.0000 0.03340  0.35220  0.06570  Biso   1.000  C
  H53      1.0000 0.05950  0.34860  0.03010  Biso   1.000  H
  C124     1.0000 0.00140  0.41240  0.06550  Biso   1.000  C
  H54      1.0000 0.00670  0.45080  0.03050  Biso   1.000  H
  C125     1.0000 0.96170  0.41660  0.11580  Biso   1.000  C
  C126     1.0000 0.92420  0.48090  0.11850  Biso   1.000  C
  O73      1.0000 0.57023  0.69774  0.06470  Biso   1.000  O
  O74      1.0000 0.57425  0.71402  0.19092  Biso   1.000  O
  O75      1.0000 0.38610  0.97124  0.16056  Biso   1.000  O
  O76      1.0000 0.43250  0.03690  0.08050  Biso   1.000  O
  N19      1.0000 0.45392  0.86432  0.16692  Biso   1.000  N
  C127     1.0000 0.55963  0.73100  0.12500  Biso   1.000  C
  C128     1.0000 0.52601  0.79820  0.11880  Biso   1.000  C
  C129     1.0000 0.48593  0.80710  0.16790  Biso   1.000  C
  H55      1.0000 0.48070  0.77030  0.20470  Biso   1.000  H
  C130     1.0000 0.53340  0.85220  0.06570  Biso   1.000  C
  H56      1.0000 0.55950  0.84860  0.03010  Biso   1.000  H
  C131     1.0000 0.50140  0.91240  0.06550  Biso   1.000  C
  H57      1.0000 0.50670  0.95080  0.03050  Biso   1.000  H
  C132     1.0000 0.46170  0.91660  0.11580  Biso   1.000  C
  C133     1.0000 0.42420  0.98090  0.11850  Biso   1.000  C
  O77      1.0000 0.57023  0.19774  0.56470  Biso   1.000  O
  O78      1.0000 0.57425  0.21402  0.69092  Biso   1.000  O
  O79      1.0000 0.38610  0.47124  0.66056  Biso   1.000  O
  O80      1.0000 0.43250  0.53690  0.58050  Biso   1.000  O
  N20      1.0000 0.45392  0.36432  0.66692  Biso   1.000  N
  C134     1.0000 0.55963  0.23100  0.62500  Biso   1.000  C
  C135     1.0000 0.52601  0.29820  0.61880  Biso   1.000  C
  C136     1.0000 0.48593  0.30710  0.66790  Biso   1.000  C
  H58      1.0000 0.48070  0.27030  0.70470  Biso   1.000  H
  C137     1.0000 0.53340  0.35220  0.56570  Biso   1.000  C
  H59      1.0000 0.55950  0.34860  0.53010  Biso   1.000  H
  C138     1.0000 0.50140  0.41240  0.56550  Biso   1.000  C
  H60      1.0000 0.50670  0.45080  0.53050  Biso   1.000  H
  C139     1.0000 0.46170  0.41660  0.61580  Biso   1.000  C
  C140     1.0000 0.42420  0.48090  0.61850  Biso   1.000  C
  O81      1.0000 0.17977  0.55226  0.56470  Biso   1.000  O
  O82      1.0000 0.17575  0.53598  0.69092  Biso   1.000  O
  O83      1.0000 0.36390  0.27876  0.66056  Biso   1.000  O
  O84      1.0000 0.31750  0.21310  0.58050  Biso   1.000  O
  N21      1.0000 0.29608  0.38568  0.66692  Biso   1.000  N
  C141     1.0000 0.19037  0.51900  0.62500  Biso   1.000  C
  C142     1.0000 0.22399  0.45180  0.61880  Biso   1.000  C
  C143     1.0000 0.26407  0.44290  0.66790  Biso   1.000  C
  H61      1.0000 0.26930  0.47970  0.70470  Biso   1.000  H
  C144     1.0000 0.21660  0.39780  0.56570  Biso   1.000  C
  H62      1.0000 0.19050  0.40140  0.53010  Biso   1.000  H
  C145     1.0000 0.24860  0.33760  0.56550  Biso   1.000  C
  H63      1.0000 0.24330  0.29920  0.53050  Biso   1.000  H
  C146     1.0000 0.28830  0.33340  0.61580  Biso   1.000  C
  C147     1.0000 0.32580  0.26910  0.61850  Biso   1.000  C
  O85      1.0000 0.17977  0.05226  0.06470  Biso   1.000  O
  O86      1.0000 0.17575  0.03598  0.19092  Biso   1.000  O
  O87      1.0000 0.36390  0.77876  0.16056  Biso   1.000  O
  O88      1.0000 0.31750  0.71310  0.08050  Biso   1.000  O
  N22      1.0000 0.29608  0.88568  0.16692  Biso   1.000  N
  C148     1.0000 0.19037  0.01900  0.12500  Biso   1.000  C
  C149     1.0000 0.22399  0.95180  0.11880  Biso   1.000  C
  C150     1.0000 0.26407  0.94290  0.16790  Biso   1.000  C
  H64      1.0000 0.26930  0.97970  0.20470  Biso   1.000  H
  C151     1.0000 0.21660  0.89780  0.06570  Biso   1.000  C
  H65      1.0000 0.19050  0.90140  0.03010  Biso   1.000  H
  C152     1.0000 0.24860  0.83760  0.06550  Biso   1.000  C
  H66      1.0000 0.24330  0.79920  0.03050  Biso   1.000  H
  C153     1.0000 0.28830  0.83340  0.11580  Biso   1.000  C
  C154     1.0000 0.32580  0.76910  0.11850  Biso   1.000  C
  O89      1.0000 0.67977  0.55226  0.06470  Biso   1.000  O
  O90      1.0000 0.67575  0.53598  0.19092  Biso   1.000  O
  O91      1.0000 0.86390  0.27876  0.16056  Biso   1.000  O
  O92      1.0000 0.81750  0.21310  0.08050  Biso   1.000  O
  N23      1.0000 0.79608  0.38568  0.16692  Biso   1.000  N
  C155     1.0000 0.69037  0.51900  0.12500  Biso   1.000  C
  C156     1.0000 0.72399  0.45180  0.11880  Biso   1.000  C
  C157     1.0000 0.76407  0.44290  0.16790  Biso   1.000  C
  H67      1.0000 0.76930  0.47970  0.20470  Biso   1.000  H
  C158     1.0000 0.71660  0.39780  0.06570  Biso   1.000  C
  H68      1.0000 0.69050  0.40140  0.03010  Biso   1.000  H
  C159     1.0000 0.74860  0.33760  0.06550  Biso   1.000  C
  H69      1.0000 0.74330  0.29920  0.03050  Biso   1.000  H
  C160     1.0000 0.78830  0.33340  0.11580  Biso   1.000  C
  C161     1.0000 0.82580  0.26910  0.11850  Biso   1.000  C
  O93      1.0000 0.67977  0.05226  0.56470  Biso   1.000  O
  O94      1.0000 0.67575  0.03598  0.69092  Biso   1.000  O
  O95      1.0000 0.86390  0.77876  0.66056  Biso   1.000  O
  O96      1.0000 0.81750  0.71310  0.58050  Biso   1.000  O
  N24      1.0000 0.79608  0.88568  0.66692  Biso   1.000  N
  C162     1.0000 0.69037  0.01900  0.62500  Biso   1.000  C
  C163     1.0000 0.72399  0.95180  0.61880  Biso   1.000  C
  C164     1.0000 0.76407  0.94290  0.66790  Biso   1.000  C
  H70      1.0000 0.76930  0.97970  0.70470  Biso   1.000  H
  C165     1.0000 0.71660  0.89780  0.56570  Biso   1.000  C
  H71      1.0000 0.69050  0.90140  0.53010  Biso   1.000  H
  C166     1.0000 0.74860  0.83760  0.56550  Biso   1.000  C
  H72      1.0000 0.74330  0.79920  0.53050  Biso   1.000  H
  C167     1.0000 0.78830  0.83340  0.61580  Biso   1.000  C
  C168     1.0000 0.82580  0.76910  0.61850  Biso   1.000  C
  O97      1.0000 0.17977  0.69774  0.68530  Biso   1.000  O
  O98      1.0000 0.17575  0.71402  0.55908  Biso   1.000  O
  O99      1.0000 0.36390  0.97124  0.58944  Biso   1.000  O
  O100     1.0000 0.31750  0.03690  0.66950  Biso   1.000  O
  N25      1.0000 0.29608  0.86432  0.58308  Biso   1.000  N
  C169     1.0000 0.19037  0.73100  0.62500  Biso   1.000  C
  C170     1.0000 0.22399  0.79820  0.63120  Biso   1.000  C
  C171     1.0000 0.26407  0.80710  0.58210  Biso   1.000  C
  H73      1.0000 0.26930  0.77030  0.54530  Biso   1.000  H
  C172     1.0000 0.21660  0.85220  0.68430  Biso   1.000  C
  H74      1.0000 0.19050  0.84860  0.71990  Biso   1.000  H
  C173     1.0000 0.24860  0.91240  0.68450  Biso   1.000  C
  H75      1.0000 0.24330  0.95080  0.71950  Biso   1.000  H
  C174     1.0000 0.28830  0.91660  0.63420  Biso   1.000  C
  C175     1.0000 0.32580  0.98090  0.63150  Biso   1.000  C
  O101     1.0000 0.17977  0.19774  0.18530  Biso   1.000  O
  O102     1.0000 0.17575  0.21402  0.05908  Biso   1.000  O
  O103     1.0000 0.36390  0.47124  0.08944  Biso   1.000  O
  O104     1.0000 0.31750  0.53690  0.16950  Biso   1.000  O
  N26      1.0000 0.29608  0.36432  0.08308  Biso   1.000  N
  C176     1.0000 0.19037  0.23100  0.12500  Biso   1.000  C
  C177     1.0000 0.22399  0.29820  0.13120  Biso   1.000  C
  C178     1.0000 0.26407  0.30710  0.08210  Biso   1.000  C
  H76      1.0000 0.26930  0.27030  0.04530  Biso   1.000  H
  C179     1.0000 0.21660  0.35220  0.18430  Biso   1.000  C
  H77      1.0000 0.19050  0.34860  0.21990  Biso   1.000  H
  C180     1.0000 0.24860  0.41240  0.18450  Biso   1.000  C
  H78      1.0000 0.24330  0.45080  0.21950  Biso   1.000  H
  C181     1.0000 0.28830  0.41660  0.13420  Biso   1.000  C
  C182     1.0000 0.32580  0.48090  0.13150  Biso   1.000  C
  O105     1.0000 0.67977  0.69774  0.18530  Biso   1.000  O
  O106     1.0000 0.67575  0.71402  0.05908  Biso   1.000  O
  O107     1.0000 0.86390  0.97124  0.08944  Biso   1.000  O
  O108     1.0000 0.81750  0.03690  0.16950  Biso   1.000  O
  N27      1.0000 0.79608  0.86432  0.08308  Biso   1.000  N
  C183     1.0000 0.69037  0.73100  0.12500  Biso   1.000  C
  C184     1.0000 0.72399  0.79820  0.13120  Biso   1.000  C
  C185     1.0000 0.76407  0.80710  0.08210  Biso   1.000  C
  H79      1.0000 0.76930  0.77030  0.04530  Biso   1.000  H
  C186     1.0000 0.71660  0.85220  0.18430  Biso   1.000  C
  H80      1.0000 0.69050  0.84860  0.21990  Biso   1.000  H
  C187     1.0000 0.74860  0.91240  0.18450  Biso   1.000  C
  H81      1.0000 0.74330  0.95080  0.21950  Biso   1.000  H
  C188     1.0000 0.78830  0.91660  0.13420  Biso   1.000  C
  C189     1.0000 0.82580  0.98090  0.13150  Biso   1.000  C
  O109     1.0000 0.67977  0.19774  0.68530  Biso   1.000  O
  O110     1.0000 0.67575  0.21402  0.55908  Biso   1.000  O
  O111     1.0000 0.86390  0.47124  0.58944  Biso   1.000  O
  O112     1.0000 0.81750  0.53690  0.66950  Biso   1.000  O
  N28      1.0000 0.79608  0.36432  0.58308  Biso   1.000  N
  C190     1.0000 0.69037  0.23100  0.62500  Biso   1.000  C
  C191     1.0000 0.72399  0.29820  0.63120  Biso   1.000  C
  C192     1.0000 0.76407  0.30710  0.58210  Biso   1.000  C
  H82      1.0000 0.76930  0.27030  0.54530  Biso   1.000  H
  C193     1.0000 0.71660  0.35220  0.68430  Biso   1.000  C
  H83      1.0000 0.69050  0.34860  0.71990  Biso   1.000  H
  C194     1.0000 0.74860  0.41240  0.68450  Biso   1.000  C
  H84      1.0000 0.74330  0.45080  0.71950  Biso   1.000  H
  C195     1.0000 0.78830  0.41660  0.63420  Biso   1.000  C
  C196     1.0000 0.82580  0.48090  0.63150  Biso   1.000  C
  O113     1.0000 0.07023  0.55226  0.68530  Biso   1.000  O
  O114     1.0000 0.07425  0.53598  0.55908  Biso   1.000  O
  O115     1.0000 0.88610  0.27876  0.58944  Biso   1.000  O
  O116     1.0000 0.93250  0.21310  0.66950  Biso   1.000  O
  N29      1.0000 0.95392  0.38568  0.58308  Biso   1.000  N
  C197     1.0000 0.05963  0.51900  0.62500  Biso   1.000  C
  C198     1.0000 0.02601  0.45180  0.63120  Biso   1.000  C
  C199     1.0000 0.98593  0.44290  0.58210  Biso   1.000  C
  H85      1.0000 0.98070  0.47970  0.54530  Biso   1.000  H
  C200     1.0000 0.03340  0.39780  0.68430  Biso   1.000  C
  H86      1.0000 0.05950  0.40140  0.71990  Biso   1.000  H
  C201     1.0000 0.00140  0.33760  0.68450  Biso   1.000  C
  H87      1.0000 0.00670  0.29920  0.71950  Biso   1.000  H
  C202     1.0000 0.96170  0.33340  0.63420  Biso   1.000  C
  C203     1.0000 0.92420  0.26910  0.63150  Biso   1.000  C
  O117     1.0000 0.07023  0.05226  0.18530  Biso   1.000  O
  O118     1.0000 0.07425  0.03598  0.05908  Biso   1.000  O
  O119     1.0000 0.88610  0.77876  0.08944  Biso   1.000  O
  O120     1.0000 0.93250  0.71310  0.16950  Biso   1.000  O
  N30      1.0000 0.95392  0.88568  0.08308  Biso   1.000  N
  C204     1.0000 0.05963  0.01900  0.12500  Biso   1.000  C
  C205     1.0000 0.02601  0.95180  0.13120  Biso   1.000  C
  C206     1.0000 0.98593  0.94290  0.08210  Biso   1.000  C
  H88      1.0000 0.98070  0.97970  0.04530  Biso   1.000  H
  C207     1.0000 0.03340  0.89780  0.18430  Biso   1.000  C
  H89      1.0000 0.05950  0.90140  0.21990  Biso   1.000  H
  C208     1.0000 0.00140  0.83760  0.18450  Biso   1.000  C
  H90      1.0000 0.00670  0.79920  0.21950  Biso   1.000  H
  C209     1.0000 0.96170  0.83340  0.13420  Biso   1.000  C
  C210     1.0000 0.92420  0.76910  0.13150  Biso   1.000  C
  O121     1.0000 0.57023  0.55226  0.18530  Biso   1.000  O
  O122     1.0000 0.57425  0.53598  0.05908  Biso   1.000  O
  O123     1.0000 0.38610  0.27876  0.08944  Biso   1.000  O
  O124     1.0000 0.43250  0.21310  0.16950  Biso   1.000  O
  N31      1.0000 0.45392  0.38568  0.08308  Biso   1.000  N
  C211     1.0000 0.55963  0.51900  0.12500  Biso   1.000  C
  C212     1.0000 0.52601  0.45180  0.13120  Biso   1.000  C
  C213     1.0000 0.48593  0.44290  0.08210  Biso   1.000  C
  H91      1.0000 0.48070  0.47970  0.04530  Biso   1.000  H
  C214     1.0000 0.53340  0.39780  0.18430  Biso   1.000  C
  H92      1.0000 0.55950  0.40140  0.21990  Biso   1.000  H
  C215     1.0000 0.50140  0.33760  0.18450  Biso   1.000  C
  H93      1.0000 0.50670  0.29920  0.21950  Biso   1.000  H
  C216     1.0000 0.46170  0.33340  0.13420  Biso   1.000  C
  C217     1.0000 0.42420  0.26910  0.13150  Biso   1.000  C
  O125     1.0000 0.57023  0.05226  0.68530  Biso   1.000  O
  O126     1.0000 0.57425  0.03598  0.55908  Biso   1.000  O
  O127     1.0000 0.38610  0.77876  0.58944  Biso   1.000  O
  O128     1.0000 0.43250  0.71310  0.66950  Biso   1.000  O
  N32      1.0000 0.45392  0.88568  0.58308  Biso   1.000  N
  C218     1.0000 0.55963  0.01900  0.62500  Biso   1.000  C
  C219     1.0000 0.52601  0.95180  0.63120  Biso   1.000  C
  C220     1.0000 0.48593  0.94290  0.58210  Biso   1.000  C
  H94      1.0000 0.48070  0.97970  0.54530  Biso   1.000  H
  C221     1.0000 0.53340  0.89780  0.68430  Biso   1.000  C
  H95      1.0000 0.55950  0.90140  0.71990  Biso   1.000  H
  C222     1.0000 0.50140  0.83760  0.68450  Biso   1.000  C
  H96      1.0000 0.50670  0.79920  0.71950  Biso   1.000  H
  C223     1.0000 0.46170  0.83340  0.63420  Biso   1.000  C
  C224     1.0000 0.42420  0.76910  0.63150  Biso   1.000  C
  Er1      1.0000 0.87500  0.37500  0.50283  Biso   1.000  Er
  Er2      1.0000 0.87500  0.87500  0.00283  Biso   1.000  Er
  Er3      1.0000 0.37500  0.37500  0.00283  Biso   1.000  Er
  Er4      1.0000 0.37500  0.87500  0.50283  Biso   1.000  Er
  Er5      1.0000 0.87500  0.37500  0.24717  Biso   1.000  Er
  Er6      1.0000 0.87500  0.87500  0.74717  Biso   1.000  Er
  Er7      1.0000 0.37500  0.37500  0.74717  Biso   1.000  Er
  Er8      1.0000 0.37500  0.87500  0.24717  Biso   1.000  Er
  Er9      1.0000 0.12500  0.62500  0.49717  Biso   1.000  Er
  Er10     1.0000 0.12500  0.12500  0.99717  Biso   1.000  Er
  Er11     1.0000 0.62500  0.62500  0.99717  Biso   1.000  Er
  Er12     1.0000 0.62500  0.12500  0.49717  Biso   1.000  Er
  Er13     1.0000 0.12500  0.62500  0.75283  Biso   1.000  Er
  Er14     1.0000 0.12500  0.12500  0.25283  Biso   1.000  Er
  Er15     1.0000 0.62500  0.62500  0.25283  Biso   1.000  Er
  Er16     1.0000 0.62500  0.12500  0.75283  Biso   1.000  Er
