data_image0
_cell_length_a       8.8105
_cell_length_b       12.0084
_cell_length_c       12.3493
_cell_angle_alpha    63.518
_cell_angle_beta     89.233
_cell_angle_gamma    89.59

_symmetry_space_group_name_H-M    "P 1"
_symmetry_int_tables_number       1

loop_
  _symmetry_equiv_pos_as_xyz
  'x, y, z'

loop_
  _atom_site_label
  _atom_site_occupancy
  _atom_site_fract_x
  _atom_site_fract_y
  _atom_site_fract_z
  _atom_site_thermal_displace_type
  _atom_site_B_iso_or_equiv
  _atom_site_type_symbol
  U1       1.0000 0.97951  0.55022  0.72784  Biso   1.000  U
  P1       1.0000 0.82400  0.86529  0.57694  Biso   1.000  P
  O1       1.0000 0.80450  0.72840  0.65450  Biso   1.000  O
  O2       1.0000 0.90960  0.89970  0.45970  Biso   1.000  O
  O3       1.0000 0.90310  0.92260  0.65310  Biso   1.000  O
  H1       1.0000 0.96040  0.97850  0.60930  Biso   1.000  H
  C1       1.0000 0.64060  0.93940  0.53660  Biso   1.000  C
  C2       1.0000 0.63240  0.06920  0.47580  Biso   1.000  C
  H2       1.0000 0.72070  0.11630  0.45940  Biso   1.000  H
  C3       1.0000 0.50510  0.87270  0.55960  Biso   1.000  C
  H3       1.0000 0.50840  0.78630  0.60020  Biso   1.000  H
  P2       1.0000 0.82640  0.62712  0.41964  Biso   1.000  P
  O4       1.0000 0.92310  0.59840  0.52790  Biso   1.000  O
  O5       1.0000 0.79620  0.77230  0.35510  Biso   1.000  O
  H4       1.0000 0.83560  0.80450  0.39400  Biso   1.000  H
  O6       1.0000 0.88840  0.59220  0.32530  Biso   1.000  O
  C4       1.0000 0.64240  0.55820  0.46370  Biso   1.000  C
  C5       1.0000 0.57130  0.50760  0.39560  Biso   1.000  C
  H5       1.0000 0.61880  0.51100  0.32650  Biso   1.000  H
  C6       1.0000 0.57090  0.54810  0.56910  Biso   1.000  C
  H6       1.0000 0.61880  0.57910  0.61660  Biso   1.000  H
  P3       1.0000 0.82630  0.62700  0.97023  Biso   1.000  P
  O7       1.0000 0.92820  0.59430  0.89100  Biso   1.000  O
  O8       1.0000 0.88490  0.59830  0.09450  Biso   1.000  O
  O9       1.0000 0.79670  0.77120  0.90040  Biso   1.000  O
  H7       1.0000 0.83440  0.79840  0.83240  Biso   1.000  H
  C7       1.0000 0.64260  0.55610  0.98840  Biso   1.000  C
  C8       1.0000 0.54790  0.58760  0.88710  Biso   1.000  C
  H8       1.0000 0.58030  0.64630  0.81110  Biso   1.000  H
  C9       1.0000 0.59080  0.46760  0.09980  Biso   1.000  C
  H9       1.0000 0.65180  0.44520  0.16720  Biso   1.000  H
  U2       1.0000 0.02049  0.44978  0.27216  Biso   1.000  U
  P4       1.0000 0.17600  0.13471  0.42306  Biso   1.000  P
  O10      1.0000 0.19550  0.27160  0.34550  Biso   1.000  O
  O11      1.0000 0.09040  0.10030  0.54030  Biso   1.000  O
  O12      1.0000 0.09690  0.07740  0.34690  Biso   1.000  O
  H10      1.0000 0.03960  0.02150  0.39070  Biso   1.000  H
  C10      1.0000 0.35940  0.06060  0.46340  Biso   1.000  C
  C11      1.0000 0.36760  0.93080  0.52420  Biso   1.000  C
  H11      1.0000 0.27930  0.88370  0.54060  Biso   1.000  H
  C12      1.0000 0.49490  0.12730  0.44040  Biso   1.000  C
  H12      1.0000 0.49160  0.21370  0.39980  Biso   1.000  H
  P5       1.0000 0.17360  0.37288  0.58036  Biso   1.000  P
  O13      1.0000 0.07690  0.40160  0.47210  Biso   1.000  O
  O14      1.0000 0.20380  0.22770  0.64490  Biso   1.000  O
  H13      1.0000 0.16440  0.19550  0.60600  Biso   1.000  H
  O15      1.0000 0.11160  0.40780  0.67470  Biso   1.000  O
  C13      1.0000 0.35760  0.44180  0.53630  Biso   1.000  C
  C14      1.0000 0.42870  0.49240  0.60440  Biso   1.000  C
  H14      1.0000 0.38120  0.48900  0.67350  Biso   1.000  H
  C15      1.0000 0.42910  0.45190  0.43090  Biso   1.000  C
  H15      1.0000 0.38120  0.42090  0.38340  Biso   1.000  H
  P6       1.0000 0.17370  0.37300  0.02977  Biso   1.000  P
  O16      1.0000 0.07180  0.40570  0.10900  Biso   1.000  O
  O17      1.0000 0.11510  0.40170  0.90550  Biso   1.000  O
  O18      1.0000 0.20330  0.22880  0.09960  Biso   1.000  O
  H16      1.0000 0.16560  0.20160  0.16760  Biso   1.000  H
  C16      1.0000 0.35740  0.44390  0.01160  Biso   1.000  C
  C17      1.0000 0.45210  0.41240  0.11290  Biso   1.000  C
  H17      1.0000 0.41970  0.35370  0.18890  Biso   1.000  H
  C18      1.0000 0.40920  0.53240  0.90020  Biso   1.000  C
  H18      1.0000 0.34820  0.55480  0.83280  Biso   1.000  H
