data_image0
_cell_length_a       9.7932
_cell_length_b       10.6592
_cell_length_c       17.5643
_cell_angle_alpha    83.846
_cell_angle_beta     86.318
_cell_angle_gamma    65.184

_symmetry_space_group_name_H-M    "P 1"
_symmetry_int_tables_number       1

loop_
  _symmetry_equiv_pos_as_xyz
  'x, y, z'

loop_
  _atom_site_label
  _atom_site_occupancy
  _atom_site_fract_x
  _atom_site_fract_y
  _atom_site_fract_z
  _atom_site_thermal_displace_type
  _atom_site_B_iso_or_equiv
  _atom_site_type_symbol
  U1       1.0000 0.94280  0.18545  0.75110  Biso   1.000  U
  U2       1.0000 0.31303  0.28899  0.74961  Biso   1.000  U
  U3       1.0000 0.62490  0.73917  0.75104  Biso   1.000  U
  P1       1.0000 0.68630  0.02060  0.81288  Biso   1.000  P
  P2       1.0000 0.00650  0.50380  0.68074  Biso   1.000  P
  P3       1.0000 0.75470  0.02660  0.17183  Biso   1.000  P
  P4       1.0000 0.57550  0.45170  0.67835  Biso   1.000  P
  O1       1.0000 0.79390  0.06760  0.76570  Biso   1.000  O
  O2       1.0000 0.72210  0.86910  0.80430  Biso   1.000  O
  O3       1.0000 0.52350  0.11230  0.79330  Biso   1.000  O
  O4       1.0000 0.03530  0.35890  0.72030  Biso   1.000  O
  O5       1.0000 0.14540  0.52390  0.69940  Biso   1.000  O
  O6       1.0000 0.86210  0.61730  0.70500  Biso   1.000  O
  O7       1.0000 0.78740  0.87790  0.20920  Biso   1.000  O
  O8       1.0000 0.89830  0.04270  0.18640  Biso   1.000  O
  O9       1.0000 0.61270  0.13830  0.20240  Biso   1.000  O
  O10      1.0000 0.74050  0.35190  0.68840  Biso   1.000  O
  O11      1.0000 0.47180  0.39900  0.72490  Biso   1.000  O
  O12      1.0000 0.54670  0.59810  0.69880  Biso   1.000  O
  C1       1.0000 0.58790  0.10920  0.95750  Biso   1.000  C
  H1       1.0000 0.49300  0.16380  0.93490  Biso   1.000  H
  C2       1.0000 0.70540  0.03190  0.91240  Biso   1.000  C
  C3       1.0000 0.83970  0.95500  0.94850  Biso   1.000  C
  H2       1.0000 0.92650  0.90450  0.91900  Biso   1.000  H
  C4       1.0000 0.92890  0.62240  0.53320  Biso   1.000  C
  H3       1.0000 0.88000  0.70750  0.55600  Biso   1.000  H
  C5       1.0000 0.99930  0.49970  0.58110  Biso   1.000  C
  C6       1.0000 0.07270  0.37520  0.54540  Biso   1.000  C
  H4       1.0000 0.12300  0.28990  0.57540  Biso   1.000  H
  C7       1.0000 0.85060  0.95100  0.02600  Biso   1.000  C
  H5       1.0000 0.94340  0.89130  0.04910  Biso   1.000  H
  C8       1.0000 0.73600  0.02820  0.07140  Biso   1.000  C
  C9       1.0000 0.60280  0.11030  0.03430  Biso   1.000  C
  H6       1.0000 0.51930  0.16920  0.06310  Biso   1.000  H
  C10      1.0000 0.38800  0.51010  0.55410  Biso   1.000  C
  H7       1.0000 0.31040  0.51780  0.59110  Biso   1.000  H
  C11      1.0000 0.53490  0.47120  0.57910  Biso   1.000  C
  C12      1.0000 0.64720  0.46260  0.52280  Biso   1.000  C
  H8       1.0000 0.74740  0.43790  0.53770  Biso   1.000  H
  U4       1.0000 0.05720  0.81455  0.24890  Biso   1.000  U
  U5       1.0000 0.68697  0.71101  0.25039  Biso   1.000  U
  U6       1.0000 0.37510  0.26083  0.24896  Biso   1.000  U
  P5       1.0000 0.31370  0.97940  0.18712  Biso   1.000  P
  P6       1.0000 0.99350  0.49620  0.31926  Biso   1.000  P
  P7       1.0000 0.24530  0.97340  0.82817  Biso   1.000  P
  P8       1.0000 0.42450  0.54830  0.32165  Biso   1.000  P
  O13      1.0000 0.20610  0.93240  0.23430  Biso   1.000  O
  O14      1.0000 0.27790  0.13090  0.19570  Biso   1.000  O
  O15      1.0000 0.47650  0.88770  0.20670  Biso   1.000  O
  O16      1.0000 0.96470  0.64110  0.27970  Biso   1.000  O
  O17      1.0000 0.85460  0.47610  0.30060  Biso   1.000  O
  O18      1.0000 0.13790  0.38270  0.29500  Biso   1.000  O
  O19      1.0000 0.21260  0.12210  0.79080  Biso   1.000  O
  O20      1.0000 0.10170  0.95730  0.81360  Biso   1.000  O
  O21      1.0000 0.38730  0.86170  0.79760  Biso   1.000  O
  O22      1.0000 0.25950  0.64810  0.31160  Biso   1.000  O
  O23      1.0000 0.52820  0.60100  0.27510  Biso   1.000  O
  O24      1.0000 0.45330  0.40190  0.30120  Biso   1.000  O
  C13      1.0000 0.41210  0.89080  0.04250  Biso   1.000  C
  H9       1.0000 0.50700  0.83620  0.06510  Biso   1.000  H
  C14      1.0000 0.29460  0.96810  0.08760  Biso   1.000  C
  C15      1.0000 0.16030  0.04500  0.05150  Biso   1.000  C
  H10      1.0000 0.07350  0.09550  0.08100  Biso   1.000  H
  C16      1.0000 0.07110  0.37760  0.46680  Biso   1.000  C
  H11      1.0000 0.12000  0.29250  0.44400  Biso   1.000  H
  C17      1.0000 0.00070  0.50030  0.41890  Biso   1.000  C
  C18      1.0000 0.92730  0.62480  0.45460  Biso   1.000  C
  H12      1.0000 0.87700  0.71010  0.42460  Biso   1.000  H
  C19      1.0000 0.14940  0.04900  0.97400  Biso   1.000  C
  H13      1.0000 0.05660  0.10870  0.95090  Biso   1.000  H
  C20      1.0000 0.26400  0.97180  0.92860  Biso   1.000  C
  C21      1.0000 0.39720  0.88970  0.96570  Biso   1.000  C
  H14      1.0000 0.48070  0.83080  0.93690  Biso   1.000  H
  C22      1.0000 0.61200  0.48990  0.44590  Biso   1.000  C
  H15      1.0000 0.68960  0.48220  0.40890  Biso   1.000  H
  C23      1.0000 0.46510  0.52880  0.42090  Biso   1.000  C
  C24      1.0000 0.35280  0.53740  0.47720  Biso   1.000  C
  H16      1.0000 0.25260  0.56210  0.46230  Biso   1.000  H
