data_image0
_cell_length_a       9.097
_cell_length_b       16.994
_cell_length_c       9.6441
_cell_angle_alpha    90
_cell_angle_beta     103.456
_cell_angle_gamma    90

_symmetry_space_group_name_H-M    "P 1"
_symmetry_int_tables_number       1

loop_
  _symmetry_equiv_pos_as_xyz
  'x, y, z'

loop_
  _atom_site_label
  _atom_site_occupancy
  _atom_site_fract_x
  _atom_site_fract_y
  _atom_site_fract_z
  _atom_site_thermal_displace_type
  _atom_site_B_iso_or_equiv
  _atom_site_type_symbol
  Ga1      1.0000 0.79741  0.77657  0.07593  Biso   1.000  Ga
  Ga2      1.0000 0.21594  0.76570  0.96333  Biso   1.000  Ga
  V1       1.0000 0.31440  0.00317  0.16534  Biso   1.000  V
  P1       1.0000 0.49937  0.87034  0.00813  Biso   1.000  P
  P2       1.0000 0.89271  0.83772  0.81460  Biso   1.000  P
  P3       1.0000 0.10917  0.84511  0.21401  Biso   1.000  P
  O1       1.0000 0.43910  0.91720  0.11530  Biso   1.000  O
  O2       1.0000 0.37310  0.81840  0.91740  Biso   1.000  O
  O3       1.0000 0.56540  0.91670  0.90560  Biso   1.000  O
  O4       1.0000 0.61850  0.81380  0.09780  Biso   1.000  O
  O5       1.0000 0.82450  0.77400  0.89550  Biso   1.000  O
  O6       1.0000 0.85140  0.91960  0.84930  Biso   1.000  O
  O7       1.0000 0.83260  0.82110  0.65550  Biso   1.000  O
  O8       1.0000 0.06490  0.83200  0.85250  Biso   1.000  O
  O9       1.0000 0.93490  0.84560  0.18020  Biso   1.000  O
  O10      1.0000 0.16430  0.77760  0.13330  Biso   1.000  O
  O11      1.0000 0.16820  0.82910  0.37350  Biso   1.000  O
  O12      1.0000 0.15650  0.92500  0.17600  Biso   1.000  O
  Ga3      1.0000 0.20259  0.27657  0.42407  Biso   1.000  Ga
  Ga4      1.0000 0.78406  0.26570  0.53667  Biso   1.000  Ga
  V2       1.0000 0.68560  0.50317  0.33466  Biso   1.000  V
  P4       1.0000 0.50063  0.37034  0.49187  Biso   1.000  P
  P5       1.0000 0.10729  0.33772  0.68540  Biso   1.000  P
  P6       1.0000 0.89083  0.34511  0.28599  Biso   1.000  P
  O13      1.0000 0.56090  0.41720  0.38470  Biso   1.000  O
  O14      1.0000 0.62690  0.31840  0.58260  Biso   1.000  O
  O15      1.0000 0.43460  0.41670  0.59440  Biso   1.000  O
  O16      1.0000 0.38150  0.31380  0.40220  Biso   1.000  O
  O17      1.0000 0.17550  0.27400  0.60450  Biso   1.000  O
  O18      1.0000 0.14860  0.41960  0.65070  Biso   1.000  O
  O19      1.0000 0.16740  0.32110  0.84450  Biso   1.000  O
  O20      1.0000 0.93510  0.33200  0.64750  Biso   1.000  O
  O21      1.0000 0.06510  0.34560  0.31980  Biso   1.000  O
  O22      1.0000 0.83570  0.27760  0.36670  Biso   1.000  O
  O23      1.0000 0.83180  0.32910  0.12650  Biso   1.000  O
  O24      1.0000 0.84350  0.42500  0.32400  Biso   1.000  O
  Ga5      1.0000 0.20259  0.22343  0.92407  Biso   1.000  Ga
  Ga6      1.0000 0.78406  0.23430  0.03667  Biso   1.000  Ga
  V3       1.0000 0.68560  0.99683  0.83466  Biso   1.000  V
  P7       1.0000 0.50063  0.12966  0.99187  Biso   1.000  P
  P8       1.0000 0.10729  0.16228  0.18540  Biso   1.000  P
  P9       1.0000 0.89083  0.15489  0.78599  Biso   1.000  P
  O25      1.0000 0.56090  0.08280  0.88470  Biso   1.000  O
  O26      1.0000 0.62690  0.18160  0.08260  Biso   1.000  O
  O27      1.0000 0.43460  0.08330  0.09440  Biso   1.000  O
  O28      1.0000 0.38150  0.18620  0.90220  Biso   1.000  O
  O29      1.0000 0.17550  0.22600  0.10450  Biso   1.000  O
  O30      1.0000 0.14860  0.08040  0.15070  Biso   1.000  O
  O31      1.0000 0.16740  0.17890  0.34450  Biso   1.000  O
  O32      1.0000 0.93510  0.16800  0.14750  Biso   1.000  O
  O33      1.0000 0.06510  0.15440  0.81980  Biso   1.000  O
  O34      1.0000 0.83570  0.22240  0.86670  Biso   1.000  O
  O35      1.0000 0.83180  0.17090  0.62650  Biso   1.000  O
  O36      1.0000 0.84350  0.07500  0.82400  Biso   1.000  O
  Ga7      1.0000 0.79741  0.72343  0.57593  Biso   1.000  Ga
  Ga8      1.0000 0.21594  0.73430  0.46333  Biso   1.000  Ga
  V4       1.0000 0.31440  0.49683  0.66534  Biso   1.000  V
  P10      1.0000 0.49937  0.62966  0.50813  Biso   1.000  P
  P11      1.0000 0.89271  0.66228  0.31460  Biso   1.000  P
  P12      1.0000 0.10917  0.65489  0.71401  Biso   1.000  P
  O37      1.0000 0.43910  0.58280  0.61530  Biso   1.000  O
  O38      1.0000 0.37310  0.68160  0.41740  Biso   1.000  O
  O39      1.0000 0.56540  0.58330  0.40560  Biso   1.000  O
  O40      1.0000 0.61850  0.68620  0.59780  Biso   1.000  O
  O41      1.0000 0.82450  0.72600  0.39550  Biso   1.000  O
  O42      1.0000 0.85140  0.58040  0.34930  Biso   1.000  O
  O43      1.0000 0.83260  0.67890  0.15550  Biso   1.000  O
  O44      1.0000 0.06490  0.66800  0.35250  Biso   1.000  O
  O45      1.0000 0.93490  0.65440  0.68020  Biso   1.000  O
  O46      1.0000 0.16430  0.72240  0.63330  Biso   1.000  O
  O47      1.0000 0.16820  0.67090  0.87350  Biso   1.000  O
  O48      1.0000 0.15650  0.57500  0.67600  Biso   1.000  O
