data_image0
_cell_length_a       20.896
_cell_length_b       7.3872
_cell_length_c       31.834
_cell_angle_alpha    90
_cell_angle_beta     124.636
_cell_angle_gamma    90

_symmetry_space_group_name_H-M    "P 1"
_symmetry_int_tables_number       1

loop_
  _symmetry_equiv_pos_as_xyz
  'x, y, z'

loop_
  _atom_site_label
  _atom_site_occupancy
  _atom_site_fract_x
  _atom_site_fract_y
  _atom_site_fract_z
  _atom_site_thermal_displace_type
  _atom_site_B_iso_or_equiv
  _atom_site_type_symbol
  Zn1      1.0000 0.67447  0.44651  0.65602  Biso   1.000  Zn
  Zn2      1.0000 0.67786  0.81121  0.59050  Biso   1.000  Zn
  F1       1.0000 0.00710  0.30790  0.54130  Biso   1.000  F
  F2       1.0000 0.07340  0.38580  0.62010  Biso   1.000  F
  F3       1.0000 0.11170  0.16660  0.59530  Biso   1.000  F
  F4       1.0000 0.90460  0.04200  0.51253  Biso   1.000  F
  F5       1.0000 0.93370  0.83150  0.56682  Biso   1.000  F
  F6       1.0000 0.01190  0.89580  0.54556  Biso   1.000  F
  F7       1.0000 0.63000  0.39750  0.81150  Biso   1.000  F
  F8       1.0000 0.55180  0.58790  0.80941  Biso   1.000  F
  F9       1.0000 0.63140  0.44500  0.87820  Biso   1.000  F
  F10      1.0000 0.77030  0.51730  0.84230  Biso   1.000  F
  F11      1.0000 0.82230  0.71390  0.90236  Biso   1.000  F
  F12      1.0000 0.78150  0.46230  0.91260  Biso   1.000  F
  O1       1.0000 0.73690  0.59030  0.59340  Biso   1.000  O
  O2       1.0000 0.72610  0.33360  0.62600  Biso   1.000  O
  O3       1.0000 0.25910  0.64400  0.80100  Biso   1.000  O
  O4       1.0000 0.25410  0.89230  0.83900  Biso   1.000  O
  O5       1.0000 0.57250  0.10890  0.98094  Biso   1.000  O
  O6       1.0000 0.69760  0.06790  0.04441  Biso   1.000  O
  O7       1.0000 0.58560  0.11350  0.64680  Biso   1.000  O
  O8       1.0000 0.67900  0.28930  0.70610  Biso   1.000  O
  N1       1.0000 0.57380  0.54830  0.59640  Biso   1.000  N
  N2       1.0000 0.57790  0.69570  0.57400  Biso   1.000  N
  N3       1.0000 0.50710  0.75180  0.53680  Biso   1.000  N
  C1       1.0000 0.75600  0.43060  0.60870  Biso   1.000  C
  C2       1.0000 0.81860  0.34640  0.60500  Biso   1.000  C
  C3       1.0000 0.84770  0.17760  0.62520  Biso   1.000  C
  H1       1.0000 0.82750  0.11190  0.64000  Biso   1.000  H
  C4       1.0000 0.90730  0.10610  0.62320  Biso   1.000  C
  H2       1.0000 0.92690  0.99220  0.63710  Biso   1.000  H
  C5       1.0000 0.93830  0.20020  0.60110  Biso   1.000  C
  C6       1.0000 0.90760  0.36950  0.58020  Biso   1.000  C
  H3       1.0000 0.92700  0.43470  0.56480  Biso   1.000  H
  C7       1.0000 0.84800  0.44170  0.58230  Biso   1.000  C
  H4       1.0000 0.82790  0.55520  0.56830  Biso   1.000  H
  C8       1.0000 0.00400  0.10850  0.59980  Biso   1.000  C
  C9       1.0000 0.04930  0.24310  0.58850  Biso   1.000  C
  C10      1.0000 0.96410  0.96850  0.55590  Biso   1.000  C
  C11      1.0000 0.06480  0.02010  0.65220  Biso   1.000  C
  C12      1.0000 0.09460  0.84670  0.65770  Biso   1.000  C
  H5       1.0000 0.07710  0.77670  0.62880  Biso   1.000  H
  C13      1.0000 0.14930  0.77700  0.70500  Biso   1.000  C
  H6       1.0000 0.16860  0.66090  0.70780  Biso   1.000  H
  C14      1.0000 0.17580  0.87830  0.74840  Biso   1.000  C
  C15      1.0000 0.14760  0.05070  0.74350  Biso   1.000  C
  H7       1.0000 0.16590  0.12140  0.77240  Biso   1.000  H
  C16      1.0000 0.09230  0.11940  0.69590  Biso   1.000  C
  H8       1.0000 0.07310  0.23540  0.69330  Biso   1.000  H
  C17      1.0000 0.23410  0.79980  0.80010  Biso   1.000  C
  C18      1.0000 0.49820  0.50860  0.57220  Biso   1.000  C
  H9       1.0000 0.47760  0.41160  0.57950  Biso   1.000  H
  C19      1.0000 0.45650  0.63510  0.53490  Biso   1.000  C
  H10      1.0000 0.40260  0.63960  0.51240  Biso   1.000  H
  C20      1.0000 0.64120  0.05940  0.99790  Biso   1.000  C
  C21      1.0000 0.65700  0.97880  0.96160  Biso   1.000  C
  C22      1.0000 0.60190  0.98910  0.90900  Biso   1.000  C
  H11      1.0000 0.55670  0.05590  0.89610  Biso   1.000  H
  C23      1.0000 0.72430  0.88010  0.98000  Biso   1.000  C
  H12      1.0000 0.76280  0.87700  0.01490  Biso   1.000  H
  C24      1.0000 0.73480  0.78550  0.94650  Biso   1.000  C
  H13      1.0000 0.77940  0.71640  0.95940  Biso   1.000  H
  C25      1.0000 0.67980  0.79290  0.89450  Biso   1.000  C
  C26      1.0000 0.61380  0.90220  0.87610  Biso   1.000  C
  H14      1.0000 0.57780  0.91540  0.84110  Biso   1.000  H
  C27      1.0000 0.68400  0.68010  0.85540  Biso   1.000  C
  C28      1.0000 0.62420  0.52540  0.83820  Biso   1.000  C
  C29      1.0000 0.76550  0.59260  0.87870  Biso   1.000  C
  C30      1.0000 0.66920  0.80000  0.81090  Biso   1.000  C
  C31      1.0000 0.62310  0.74780  0.75990  Biso   1.000  C
  H15      1.0000 0.59960  0.63440  0.75130  Biso   1.000  H
  C32      1.0000 0.61180  0.86290  0.72170  Biso   1.000  C
  H16      1.0000 0.57950  0.82680  0.68770  Biso   1.000  H
  C33      1.0000 0.64770  0.03000  0.73330  Biso   1.000  C
  C34      1.0000 0.69540  0.08120  0.78410  Biso   1.000  C
  H17      1.0000 0.72090  0.19220  0.79270  Biso   1.000  H
  C35      1.0000 0.70550  0.96930  0.82200  Biso   1.000  C
  H18      1.0000 0.73710  0.00720  0.85580  Biso   1.000  H
  C36      1.0000 0.63580  0.15150  0.69200  Biso   1.000  C
  Zn3      1.0000 0.32553  0.44651  0.84398  Biso   1.000  Zn
  Zn4      1.0000 0.32214  0.81121  0.90950  Biso   1.000  Zn
  F13      1.0000 0.99290  0.30790  0.95870  Biso   1.000  F
  F14      1.0000 0.92660  0.38580  0.87990  Biso   1.000  F
  F15      1.0000 0.88830  0.16660  0.90470  Biso   1.000  F
  F16      1.0000 0.09540  0.04200  0.98747  Biso   1.000  F
  F17      1.0000 0.06630  0.83150  0.93318  Biso   1.000  F
  F18      1.0000 0.98810  0.89580  0.95444  Biso   1.000  F
  F19      1.0000 0.37000  0.39750  0.68850  Biso   1.000  F
  F20      1.0000 0.44820  0.58790  0.69059  Biso   1.000  F
  F21      1.0000 0.36860  0.44500  0.62180  Biso   1.000  F
  F22      1.0000 0.22970  0.51730  0.65770  Biso   1.000  F
  F23      1.0000 0.17770  0.71390  0.59764  Biso   1.000  F
  F24      1.0000 0.21850  0.46230  0.58740  Biso   1.000  F
  O9       1.0000 0.26310  0.59030  0.90660  Biso   1.000  O
  O10      1.0000 0.27390  0.33360  0.87400  Biso   1.000  O
  O11      1.0000 0.74090  0.64400  0.69900  Biso   1.000  O
  O12      1.0000 0.74590  0.89230  0.66100  Biso   1.000  O
  O13      1.0000 0.42750  0.10890  0.51906  Biso   1.000  O
  O14      1.0000 0.30240  0.06790  0.45559  Biso   1.000  O
  O15      1.0000 0.41440  0.11350  0.85320  Biso   1.000  O
  O16      1.0000 0.32100  0.28930  0.79390  Biso   1.000  O
  N4       1.0000 0.42620  0.54830  0.90360  Biso   1.000  N
  N5       1.0000 0.42210  0.69570  0.92600  Biso   1.000  N
  N6       1.0000 0.49290  0.75180  0.96320  Biso   1.000  N
  C37      1.0000 0.24400  0.43060  0.89130  Biso   1.000  C
  C38      1.0000 0.18140  0.34640  0.89500  Biso   1.000  C
  C39      1.0000 0.15230  0.17760  0.87480  Biso   1.000  C
  H19      1.0000 0.17250  0.11190  0.86000  Biso   1.000  H
  C40      1.0000 0.09270  0.10610  0.87680  Biso   1.000  C
  H20      1.0000 0.07310  0.99220  0.86290  Biso   1.000  H
  C41      1.0000 0.06170  0.20020  0.89890  Biso   1.000  C
  C42      1.0000 0.09240  0.36950  0.91980  Biso   1.000  C
  H21      1.0000 0.07300  0.43470  0.93520  Biso   1.000  H
  C43      1.0000 0.15200  0.44170  0.91770  Biso   1.000  C
  H22      1.0000 0.17210  0.55520  0.93170  Biso   1.000  H
  C44      1.0000 0.99600  0.10850  0.90020  Biso   1.000  C
  C45      1.0000 0.95070  0.24310  0.91150  Biso   1.000  C
  C46      1.0000 0.03590  0.96850  0.94410  Biso   1.000  C
  C47      1.0000 0.93520  0.02010  0.84780  Biso   1.000  C
  C48      1.0000 0.90540  0.84670  0.84230  Biso   1.000  C
  H23      1.0000 0.92290  0.77670  0.87120  Biso   1.000  H
  C49      1.0000 0.85070  0.77700  0.79500  Biso   1.000  C
  H24      1.0000 0.83140  0.66090  0.79220  Biso   1.000  H
  C50      1.0000 0.82420  0.87830  0.75160  Biso   1.000  C
  C51      1.0000 0.85240  0.05070  0.75650  Biso   1.000  C
  H25      1.0000 0.83410  0.12140  0.72760  Biso   1.000  H
  C52      1.0000 0.90770  0.11940  0.80410  Biso   1.000  C
  H26      1.0000 0.92690  0.23540  0.80670  Biso   1.000  H
  C53      1.0000 0.76590  0.79980  0.69990  Biso   1.000  C
  C54      1.0000 0.50180  0.50860  0.92780  Biso   1.000  C
  H27      1.0000 0.52240  0.41160  0.92050  Biso   1.000  H
  C55      1.0000 0.54350  0.63510  0.96510  Biso   1.000  C
  H28      1.0000 0.59740  0.63960  0.98760  Biso   1.000  H
  C56      1.0000 0.35880  0.05940  0.50210  Biso   1.000  C
  C57      1.0000 0.34300  0.97880  0.53840  Biso   1.000  C
  C58      1.0000 0.39810  0.98910  0.59100  Biso   1.000  C
  H29      1.0000 0.44330  0.05590  0.60390  Biso   1.000  H
  C59      1.0000 0.27570  0.88010  0.52000  Biso   1.000  C
  H30      1.0000 0.23720  0.87700  0.48510  Biso   1.000  H
  C60      1.0000 0.26520  0.78550  0.55350  Biso   1.000  C
  H31      1.0000 0.22060  0.71640  0.54060  Biso   1.000  H
  C61      1.0000 0.32020  0.79290  0.60550  Biso   1.000  C
  C62      1.0000 0.38620  0.90220  0.62390  Biso   1.000  C
  H32      1.0000 0.42220  0.91540  0.65890  Biso   1.000  H
  C63      1.0000 0.31600  0.68010  0.64460  Biso   1.000  C
  C64      1.0000 0.37580  0.52540  0.66180  Biso   1.000  C
  C65      1.0000 0.23450  0.59260  0.62130  Biso   1.000  C
  C66      1.0000 0.33080  0.80000  0.68910  Biso   1.000  C
  C67      1.0000 0.37690  0.74780  0.74010  Biso   1.000  C
  H33      1.0000 0.40040  0.63440  0.74870  Biso   1.000  H
  C68      1.0000 0.38820  0.86290  0.77830  Biso   1.000  C
  H34      1.0000 0.42050  0.82680  0.81230  Biso   1.000  H
  C69      1.0000 0.35230  0.03000  0.76670  Biso   1.000  C
  C70      1.0000 0.30460  0.08120  0.71590  Biso   1.000  C
  H35      1.0000 0.27910  0.19220  0.70730  Biso   1.000  H
  C71      1.0000 0.29450  0.96930  0.67800  Biso   1.000  C
  H36      1.0000 0.26290  0.00720  0.64420  Biso   1.000  H
  C72      1.0000 0.36420  0.15150  0.80800  Biso   1.000  C
  Zn5      1.0000 0.32553  0.55349  0.34398  Biso   1.000  Zn
  Zn6      1.0000 0.32214  0.18879  0.40950  Biso   1.000  Zn
  F25      1.0000 0.99290  0.69210  0.45870  Biso   1.000  F
  F26      1.0000 0.92660  0.61420  0.37990  Biso   1.000  F
  F27      1.0000 0.88830  0.83340  0.40470  Biso   1.000  F
  F28      1.0000 0.09540  0.95800  0.48747  Biso   1.000  F
  F29      1.0000 0.06630  0.16850  0.43318  Biso   1.000  F
  F30      1.0000 0.98810  0.10420  0.45444  Biso   1.000  F
  F31      1.0000 0.37000  0.60250  0.18850  Biso   1.000  F
  F32      1.0000 0.44820  0.41210  0.19059  Biso   1.000  F
  F33      1.0000 0.36860  0.55500  0.12180  Biso   1.000  F
  F34      1.0000 0.22970  0.48270  0.15770  Biso   1.000  F
  F35      1.0000 0.17770  0.28610  0.09764  Biso   1.000  F
  F36      1.0000 0.21850  0.53770  0.08740  Biso   1.000  F
  O17      1.0000 0.26310  0.40970  0.40660  Biso   1.000  O
  O18      1.0000 0.27390  0.66640  0.37400  Biso   1.000  O
  O19      1.0000 0.74090  0.35600  0.19900  Biso   1.000  O
  O20      1.0000 0.74590  0.10770  0.16100  Biso   1.000  O
  O21      1.0000 0.42750  0.89110  0.01906  Biso   1.000  O
  O22      1.0000 0.30240  0.93210  0.95559  Biso   1.000  O
  O23      1.0000 0.41440  0.88650  0.35320  Biso   1.000  O
  O24      1.0000 0.32100  0.71070  0.29390  Biso   1.000  O
  N7       1.0000 0.42620  0.45170  0.40360  Biso   1.000  N
  N8       1.0000 0.42210  0.30430  0.42600  Biso   1.000  N
  N9       1.0000 0.49290  0.24820  0.46320  Biso   1.000  N
  C73      1.0000 0.24400  0.56940  0.39130  Biso   1.000  C
  C74      1.0000 0.18140  0.65360  0.39500  Biso   1.000  C
  C75      1.0000 0.15230  0.82240  0.37480  Biso   1.000  C
  H37      1.0000 0.17250  0.88810  0.36000  Biso   1.000  H
  C76      1.0000 0.09270  0.89390  0.37680  Biso   1.000  C
  H38      1.0000 0.07310  0.00780  0.36290  Biso   1.000  H
  C77      1.0000 0.06170  0.79980  0.39890  Biso   1.000  C
  C78      1.0000 0.09240  0.63050  0.41980  Biso   1.000  C
  H39      1.0000 0.07300  0.56530  0.43520  Biso   1.000  H
  C79      1.0000 0.15200  0.55830  0.41770  Biso   1.000  C
  H40      1.0000 0.17210  0.44480  0.43170  Biso   1.000  H
  C80      1.0000 0.99600  0.89150  0.40020  Biso   1.000  C
  C81      1.0000 0.95070  0.75690  0.41150  Biso   1.000  C
  C82      1.0000 0.03590  0.03150  0.44410  Biso   1.000  C
  C83      1.0000 0.93520  0.97990  0.34780  Biso   1.000  C
  C84      1.0000 0.90540  0.15330  0.34230  Biso   1.000  C
  H41      1.0000 0.92290  0.22330  0.37120  Biso   1.000  H
  C85      1.0000 0.85070  0.22300  0.29500  Biso   1.000  C
  H42      1.0000 0.83140  0.33910  0.29220  Biso   1.000  H
  C86      1.0000 0.82420  0.12170  0.25160  Biso   1.000  C
  C87      1.0000 0.85240  0.94930  0.25650  Biso   1.000  C
  H43      1.0000 0.83410  0.87860  0.22760  Biso   1.000  H
  C88      1.0000 0.90770  0.88060  0.30410  Biso   1.000  C
  H44      1.0000 0.92690  0.76460  0.30670  Biso   1.000  H
  C89      1.0000 0.76590  0.20020  0.19990  Biso   1.000  C
  C90      1.0000 0.50180  0.49140  0.42780  Biso   1.000  C
  H45      1.0000 0.52240  0.58840  0.42050  Biso   1.000  H
  C91      1.0000 0.54350  0.36490  0.46510  Biso   1.000  C
  H46      1.0000 0.59740  0.36040  0.48760  Biso   1.000  H
  C92      1.0000 0.35880  0.94060  0.00210  Biso   1.000  C
  C93      1.0000 0.34300  0.02120  0.03840  Biso   1.000  C
  C94      1.0000 0.39810  0.01090  0.09100  Biso   1.000  C
  H47      1.0000 0.44330  0.94410  0.10390  Biso   1.000  H
  C95      1.0000 0.27570  0.11990  0.02000  Biso   1.000  C
  H48      1.0000 0.23720  0.12300  0.98510  Biso   1.000  H
  C96      1.0000 0.26520  0.21450  0.05350  Biso   1.000  C
  H49      1.0000 0.22060  0.28360  0.04060  Biso   1.000  H
  C97      1.0000 0.32020  0.20710  0.10550  Biso   1.000  C
  C98      1.0000 0.38620  0.09780  0.12390  Biso   1.000  C
  H50      1.0000 0.42220  0.08460  0.15890  Biso   1.000  H
  C99      1.0000 0.31600  0.31990  0.14460  Biso   1.000  C
  C100     1.0000 0.37580  0.47460  0.16180  Biso   1.000  C
  C101     1.0000 0.23450  0.40740  0.12130  Biso   1.000  C
  C102     1.0000 0.33080  0.20000  0.18910  Biso   1.000  C
  C103     1.0000 0.37690  0.25220  0.24010  Biso   1.000  C
  H51      1.0000 0.40040  0.36560  0.24870  Biso   1.000  H
  C104     1.0000 0.38820  0.13710  0.27830  Biso   1.000  C
  H52      1.0000 0.42050  0.17320  0.31230  Biso   1.000  H
  C105     1.0000 0.35230  0.97000  0.26670  Biso   1.000  C
  C106     1.0000 0.30460  0.91880  0.21590  Biso   1.000  C
  H53      1.0000 0.27910  0.80780  0.20730  Biso   1.000  H
  C107     1.0000 0.29450  0.03070  0.17800  Biso   1.000  C
  H54      1.0000 0.26290  0.99280  0.14420  Biso   1.000  H
  C108     1.0000 0.36420  0.84850  0.30800  Biso   1.000  C
  Zn7      1.0000 0.67447  0.55349  0.15602  Biso   1.000  Zn
  Zn8      1.0000 0.67786  0.18879  0.09050  Biso   1.000  Zn
  F37      1.0000 0.00710  0.69210  0.04130  Biso   1.000  F
  F38      1.0000 0.07340  0.61420  0.12010  Biso   1.000  F
  F39      1.0000 0.11170  0.83340  0.09530  Biso   1.000  F
  F40      1.0000 0.90460  0.95800  0.01253  Biso   1.000  F
  F41      1.0000 0.93370  0.16850  0.06682  Biso   1.000  F
  F42      1.0000 0.01190  0.10420  0.04556  Biso   1.000  F
  F43      1.0000 0.63000  0.60250  0.31150  Biso   1.000  F
  F44      1.0000 0.55180  0.41210  0.30941  Biso   1.000  F
  F45      1.0000 0.63140  0.55500  0.37820  Biso   1.000  F
  F46      1.0000 0.77030  0.48270  0.34230  Biso   1.000  F
  F47      1.0000 0.82230  0.28610  0.40236  Biso   1.000  F
  F48      1.0000 0.78150  0.53770  0.41260  Biso   1.000  F
  O25      1.0000 0.73690  0.40970  0.09340  Biso   1.000  O
  O26      1.0000 0.72610  0.66640  0.12600  Biso   1.000  O
  O27      1.0000 0.25910  0.35600  0.30100  Biso   1.000  O
  O28      1.0000 0.25410  0.10770  0.33900  Biso   1.000  O
  O29      1.0000 0.57250  0.89110  0.48094  Biso   1.000  O
  O30      1.0000 0.69760  0.93210  0.54441  Biso   1.000  O
  O31      1.0000 0.58560  0.88650  0.14680  Biso   1.000  O
  O32      1.0000 0.67900  0.71070  0.20610  Biso   1.000  O
  N10      1.0000 0.57380  0.45170  0.09640  Biso   1.000  N
  N11      1.0000 0.57790  0.30430  0.07400  Biso   1.000  N
  N12      1.0000 0.50710  0.24820  0.03680  Biso   1.000  N
  C109     1.0000 0.75600  0.56940  0.10870  Biso   1.000  C
  C110     1.0000 0.81860  0.65360  0.10500  Biso   1.000  C
  C111     1.0000 0.84770  0.82240  0.12520  Biso   1.000  C
  H55      1.0000 0.82750  0.88810  0.14000  Biso   1.000  H
  C112     1.0000 0.90730  0.89390  0.12320  Biso   1.000  C
  H56      1.0000 0.92690  0.00780  0.13710  Biso   1.000  H
  C113     1.0000 0.93830  0.79980  0.10110  Biso   1.000  C
  C114     1.0000 0.90760  0.63050  0.08020  Biso   1.000  C
  H57      1.0000 0.92700  0.56530  0.06480  Biso   1.000  H
  C115     1.0000 0.84800  0.55830  0.08230  Biso   1.000  C
  H58      1.0000 0.82790  0.44480  0.06830  Biso   1.000  H
  C116     1.0000 0.00400  0.89150  0.09980  Biso   1.000  C
  C117     1.0000 0.04930  0.75690  0.08850  Biso   1.000  C
  C118     1.0000 0.96410  0.03150  0.05590  Biso   1.000  C
  C119     1.0000 0.06480  0.97990  0.15220  Biso   1.000  C
  C120     1.0000 0.09460  0.15330  0.15770  Biso   1.000  C
  H59      1.0000 0.07710  0.22330  0.12880  Biso   1.000  H
  C121     1.0000 0.14930  0.22300  0.20500  Biso   1.000  C
  H60      1.0000 0.16860  0.33910  0.20780  Biso   1.000  H
  C122     1.0000 0.17580  0.12170  0.24840  Biso   1.000  C
  C123     1.0000 0.14760  0.94930  0.24350  Biso   1.000  C
  H61      1.0000 0.16590  0.87860  0.27240  Biso   1.000  H
  C124     1.0000 0.09230  0.88060  0.19590  Biso   1.000  C
  H62      1.0000 0.07310  0.76460  0.19330  Biso   1.000  H
  C125     1.0000 0.23410  0.20020  0.30010  Biso   1.000  C
  C126     1.0000 0.49820  0.49140  0.07220  Biso   1.000  C
  H63      1.0000 0.47760  0.58840  0.07950  Biso   1.000  H
  C127     1.0000 0.45650  0.36490  0.03490  Biso   1.000  C
  H64      1.0000 0.40260  0.36040  0.01240  Biso   1.000  H
  C128     1.0000 0.64120  0.94060  0.49790  Biso   1.000  C
  C129     1.0000 0.65700  0.02120  0.46160  Biso   1.000  C
  C130     1.0000 0.60190  0.01090  0.40900  Biso   1.000  C
  H65      1.0000 0.55670  0.94410  0.39610  Biso   1.000  H
  C131     1.0000 0.72430  0.11990  0.48000  Biso   1.000  C
  H66      1.0000 0.76280  0.12300  0.51490  Biso   1.000  H
  C132     1.0000 0.73480  0.21450  0.44650  Biso   1.000  C
  H67      1.0000 0.77940  0.28360  0.45940  Biso   1.000  H
  C133     1.0000 0.67980  0.20710  0.39450  Biso   1.000  C
  C134     1.0000 0.61380  0.09780  0.37610  Biso   1.000  C
  H68      1.0000 0.57780  0.08460  0.34110  Biso   1.000  H
  C135     1.0000 0.68400  0.31990  0.35540  Biso   1.000  C
  C136     1.0000 0.62420  0.47460  0.33820  Biso   1.000  C
  C137     1.0000 0.76550  0.40740  0.37870  Biso   1.000  C
  C138     1.0000 0.66920  0.20000  0.31090  Biso   1.000  C
  C139     1.0000 0.62310  0.25220  0.25990  Biso   1.000  C
  H69      1.0000 0.59960  0.36560  0.25130  Biso   1.000  H
  C140     1.0000 0.61180  0.13710  0.22170  Biso   1.000  C
  H70      1.0000 0.57950  0.17320  0.18770  Biso   1.000  H
  C141     1.0000 0.64770  0.97000  0.23330  Biso   1.000  C
  C142     1.0000 0.69540  0.91880  0.28410  Biso   1.000  C
  H71      1.0000 0.72090  0.80780  0.29270  Biso   1.000  H
  C143     1.0000 0.70550  0.03070  0.32200  Biso   1.000  C
  H72      1.0000 0.73710  0.99280  0.35580  Biso   1.000  H
  C144     1.0000 0.63580  0.84850  0.19200  Biso   1.000  C
  Zn9      1.0000 0.50000  0.00000  0.50000  Biso   1.000  Zn
  Zn10     1.0000 0.50000  0.00000  0.00000  Biso   1.000  Zn
