data_image0
_cell_length_a       13.2909
_cell_length_b       13.2909
_cell_length_c       14.356
_cell_angle_alpha    90
_cell_angle_beta     90
_cell_angle_gamma    90

_symmetry_space_group_name_H-M    "P 1"
_symmetry_int_tables_number       1

loop_
  _symmetry_equiv_pos_as_xyz
  'x, y, z'

loop_
  _atom_site_label
  _atom_site_occupancy
  _atom_site_fract_x
  _atom_site_fract_y
  _atom_site_fract_z
  _atom_site_thermal_displace_type
  _atom_site_B_iso_or_equiv
  _atom_site_type_symbol
  N1       1.0000 0.11116  0.99282  0.20313  Biso   1.000  N
  N2       1.0000 0.86751  0.01515  0.29506  Biso   1.000  N
  C1       1.0000 0.20793  0.98920  0.17550  Biso   1.000  C
  H1       1.0000 0.22860  0.98060  0.11410  Biso   1.000  H
  C2       1.0000 0.43648  0.02330  0.32953  Biso   1.000  C
  H2       1.0000 0.40200  0.04020  0.38370  Biso   1.000  H
  C3       1.0000 0.54170  0.02190  0.32961  Biso   1.000  C
  H3       1.0000 0.57590  0.03610  0.38460  Biso   1.000  H
  C4       1.0000 0.77138  0.02450  0.32160  Biso   1.000  C
  H4       1.0000 0.75080  0.04490  0.38060  Biso   1.000  H
  N3       1.0000 0.88884  0.00718  0.70313  Biso   1.000  N
  N4       1.0000 0.13249  0.98485  0.79506  Biso   1.000  N
  C5       1.0000 0.79207  0.01080  0.67550  Biso   1.000  C
  H5       1.0000 0.77140  0.01940  0.61410  Biso   1.000  H
  C6       1.0000 0.56352  0.97670  0.82953  Biso   1.000  C
  H6       1.0000 0.59800  0.95980  0.88370  Biso   1.000  H
  C7       1.0000 0.45830  0.97810  0.82961  Biso   1.000  C
  H7       1.0000 0.42410  0.96390  0.88460  Biso   1.000  H
  C8       1.0000 0.22862  0.97550  0.82160  Biso   1.000  C
  H8       1.0000 0.24920  0.95510  0.88060  Biso   1.000  H
  N5       1.0000 0.00718  0.11116  0.95313  Biso   1.000  N
  N6       1.0000 0.98485  0.86751  0.04506  Biso   1.000  N
  C9       1.0000 0.01080  0.20793  0.92550  Biso   1.000  C
  H9       1.0000 0.01940  0.22860  0.86410  Biso   1.000  H
  C10      1.0000 0.97670  0.43648  0.07953  Biso   1.000  C
  H10      1.0000 0.95980  0.40200  0.13370  Biso   1.000  H
  C11      1.0000 0.97810  0.54170  0.07961  Biso   1.000  C
  H11      1.0000 0.96390  0.57590  0.13460  Biso   1.000  H
  C12      1.0000 0.97550  0.77138  0.07160  Biso   1.000  C
  H12      1.0000 0.95510  0.75080  0.13060  Biso   1.000  H
  N7       1.0000 0.99282  0.88884  0.45313  Biso   1.000  N
  N8       1.0000 0.01515  0.13249  0.54506  Biso   1.000  N
  C13      1.0000 0.98920  0.79207  0.42550  Biso   1.000  C
  H13      1.0000 0.98060  0.77140  0.36410  Biso   1.000  H
  C14      1.0000 0.02330  0.56352  0.57953  Biso   1.000  C
  H14      1.0000 0.04020  0.59800  0.63370  Biso   1.000  H
  C15      1.0000 0.02190  0.45830  0.57961  Biso   1.000  C
  H15      1.0000 0.03610  0.42410  0.63460  Biso   1.000  H
  C16      1.0000 0.02450  0.22862  0.57160  Biso   1.000  C
  H16      1.0000 0.04490  0.24920  0.63060  Biso   1.000  H
  N9       1.0000 0.88884  0.99282  0.79687  Biso   1.000  N
  N10      1.0000 0.13249  0.01515  0.70494  Biso   1.000  N
  C17      1.0000 0.79207  0.98920  0.82450  Biso   1.000  C
  H17      1.0000 0.77140  0.98060  0.88590  Biso   1.000  H
  C18      1.0000 0.56352  0.02330  0.67047  Biso   1.000  C
  H18      1.0000 0.59800  0.04020  0.61630  Biso   1.000  H
  C19      1.0000 0.45830  0.02190  0.67039  Biso   1.000  C
  H19      1.0000 0.42410  0.03610  0.61540  Biso   1.000  H
  C20      1.0000 0.22862  0.02450  0.67840  Biso   1.000  C
  H20      1.0000 0.24920  0.04490  0.61940  Biso   1.000  H
  N11      1.0000 0.11116  0.00718  0.29687  Biso   1.000  N
  N12      1.0000 0.86751  0.98485  0.20494  Biso   1.000  N
  C21      1.0000 0.20793  0.01080  0.32450  Biso   1.000  C
  H21      1.0000 0.22860  0.01940  0.38590  Biso   1.000  H
  C22      1.0000 0.43648  0.97670  0.17047  Biso   1.000  C
  H22      1.0000 0.40200  0.95980  0.11630  Biso   1.000  H
  C23      1.0000 0.54170  0.97810  0.17039  Biso   1.000  C
  H23      1.0000 0.57590  0.96390  0.11540  Biso   1.000  H
  C24      1.0000 0.77138  0.97550  0.17840  Biso   1.000  C
  H24      1.0000 0.75080  0.95510  0.11940  Biso   1.000  H
  N13      1.0000 0.99282  0.11116  0.04687  Biso   1.000  N
  N14      1.0000 0.01515  0.86751  0.95494  Biso   1.000  N
  C25      1.0000 0.98920  0.20793  0.07450  Biso   1.000  C
  H25      1.0000 0.98060  0.22860  0.13590  Biso   1.000  H
  C26      1.0000 0.02330  0.43648  0.92047  Biso   1.000  C
  H26      1.0000 0.04020  0.40200  0.86630  Biso   1.000  H
  C27      1.0000 0.02190  0.54170  0.92039  Biso   1.000  C
  H27      1.0000 0.03610  0.57590  0.86540  Biso   1.000  H
  C28      1.0000 0.02450  0.77138  0.92840  Biso   1.000  C
  H28      1.0000 0.04490  0.75080  0.86940  Biso   1.000  H
  N15      1.0000 0.00718  0.88884  0.54687  Biso   1.000  N
  N16      1.0000 0.98485  0.13249  0.45494  Biso   1.000  N
  C29      1.0000 0.01080  0.79207  0.57450  Biso   1.000  C
  H29      1.0000 0.01940  0.77140  0.63590  Biso   1.000  H
  C30      1.0000 0.97670  0.56352  0.42047  Biso   1.000  C
  H30      1.0000 0.95980  0.59800  0.36630  Biso   1.000  H
  C31      1.0000 0.97810  0.45830  0.42039  Biso   1.000  C
  H31      1.0000 0.96390  0.42410  0.36540  Biso   1.000  H
  C32      1.0000 0.97550  0.22862  0.42840  Biso   1.000  C
  H32      1.0000 0.95510  0.24920  0.36940  Biso   1.000  H
  Co1      1.0000 0.98912  0.98912  0.12500  Biso   1.000  Co
  Co2      1.0000 0.01088  0.01088  0.62500  Biso   1.000  Co
  Co3      1.0000 0.01088  0.98912  0.87500  Biso   1.000  Co
  Co4      1.0000 0.98912  0.01088  0.37500  Biso   1.000  Co
  C33      1.0000 0.27240  0.00000  0.25000  Biso   1.000  C
  C34      1.0000 0.38350  0.00000  0.25000  Biso   1.000  C
  C35      1.0000 0.59610  0.00000  0.25000  Biso   1.000  C
  C36      1.0000 0.70710  0.00000  0.25000  Biso   1.000  C
  C37      1.0000 0.72760  0.00000  0.75000  Biso   1.000  C
  C38      1.0000 0.61650  0.00000  0.75000  Biso   1.000  C
  C39      1.0000 0.40390  0.00000  0.75000  Biso   1.000  C
  C40      1.0000 0.29290  0.00000  0.75000  Biso   1.000  C
  C41      1.0000 0.00000  0.27240  0.00000  Biso   1.000  C
  C42      1.0000 0.00000  0.38350  0.00000  Biso   1.000  C
  C43      1.0000 0.00000  0.59610  0.00000  Biso   1.000  C
  C44      1.0000 0.00000  0.70710  0.00000  Biso   1.000  C
  C45      1.0000 0.00000  0.72760  0.50000  Biso   1.000  C
  C46      1.0000 0.00000  0.61650  0.50000  Biso   1.000  C
  C47      1.0000 0.00000  0.40390  0.50000  Biso   1.000  C
  C48      1.0000 0.00000  0.29290  0.50000  Biso   1.000  C
