data_image0
_cell_length_a       6.8061
_cell_length_b       8.2468
_cell_length_c       9.0956
_cell_angle_alpha    103.824
_cell_angle_beta     94.823
_cell_angle_gamma    102.719

_symmetry_space_group_name_H-M    "P 1"
_symmetry_int_tables_number       1

loop_
  _symmetry_equiv_pos_as_xyz
  'x, y, z'

loop_
  _atom_site_label
  _atom_site_occupancy
  _atom_site_fract_x
  _atom_site_fract_y
  _atom_site_fract_z
  _atom_site_thermal_displace_type
  _atom_site_B_iso_or_equiv
  _atom_site_type_symbol
  O1       1.0000 0.07600  0.79640  0.09370  Biso   1.000  O
  O2       1.0000 0.24440  0.52690  0.13770  Biso   1.000  O
  O3       1.0000 0.79660  0.80680  0.30990  Biso   1.000  O
  O4       1.0000 0.78570  0.95300  0.62400  Biso   1.000  O
  O5       1.0000 0.48450  0.83910  0.30820  Biso   1.000  O
  O6       1.0000 0.88260  0.81990  0.79440  Biso   1.000  O
  C1       1.0000 0.77890  0.82200  0.67500  Biso   1.000  C
  O7       1.0000 0.46020  0.36080  0.08630  Biso   1.000  O
  C2       1.0000 0.61990  0.77070  0.34750  Biso   1.000  C
  C3       1.0000 0.63460  0.65680  0.58410  Biso   1.000  C
  C4       1.0000 0.56420  0.63180  0.42910  Biso   1.000  C
  C5       1.0000 0.43220  0.47500  0.34520  Biso   1.000  C
  C6       1.0000 0.37350  0.44860  0.17550  Biso   1.000  C
  U1       1.0000 0.11287  0.74819  0.27496  Biso   1.000  U
  O8       1.0000 0.92400  0.20360  0.90630  Biso   1.000  O
  O9       1.0000 0.75560  0.47310  0.86230  Biso   1.000  O
  O10      1.0000 0.20340  0.19320  0.69010  Biso   1.000  O
  O11      1.0000 0.21430  0.04700  0.37600  Biso   1.000  O
  O12      1.0000 0.51550  0.16090  0.69180  Biso   1.000  O
  O13      1.0000 0.11740  0.18010  0.20560  Biso   1.000  O
  C7       1.0000 0.22110  0.17800  0.32500  Biso   1.000  C
  O14      1.0000 0.53980  0.63920  0.91370  Biso   1.000  O
  C8       1.0000 0.38010  0.22930  0.65250  Biso   1.000  C
  C9       1.0000 0.36540  0.34320  0.41590  Biso   1.000  C
  C10      1.0000 0.43580  0.36820  0.57090  Biso   1.000  C
  C11      1.0000 0.56780  0.52500  0.65480  Biso   1.000  C
  C12      1.0000 0.62650  0.55140  0.82450  Biso   1.000  C
  U2       1.0000 0.88713  0.25181  0.72504  Biso   1.000  U
  Co1      1.0000 0.00000  0.00000  0.00000  Biso   1.000  Co
