data_image0
_cell_length_a       8.2965
_cell_length_b       8.5833
_cell_length_c       9.876
_cell_angle_alpha    96.564
_cell_angle_beta     102.938
_cell_angle_gamma    94.199

_symmetry_space_group_name_H-M    "P 1"
_symmetry_int_tables_number       1

loop_
  _symmetry_equiv_pos_as_xyz
  'x, y, z'

loop_
  _atom_site_label
  _atom_site_occupancy
  _atom_site_fract_x
  _atom_site_fract_y
  _atom_site_fract_z
  _atom_site_thermal_displace_type
  _atom_site_B_iso_or_equiv
  _atom_site_type_symbol
  O1       1.0000 0.17720  0.69540  0.51770  Biso   1.000  O
  O2       1.0000 0.31320  0.59120  0.36810  Biso   1.000  O
  C1       1.0000 0.39940  0.85600  0.47450  Biso   1.000  C
  C2       1.0000 0.28870  0.70280  0.45140  Biso   1.000  C
  O3       1.0000 0.28280  0.77820  0.15360  Biso   1.000  O
  O4       1.0000 0.17330  0.00160  0.19170  Biso   1.000  O
  C3       1.0000 0.39590  0.95030  0.36800  Biso   1.000  C
  C4       1.0000 0.27570  0.90650  0.22660  Biso   1.000  C
  O5       1.0000 0.52790  0.66780  0.70040  Biso   1.000  O
  C5       1.0000 0.50270  0.90770  0.60750  Biso   1.000  C
  O6       1.0000 0.48560  0.87580  0.83750  Biso   1.000  O
  C6       1.0000 0.50420  0.81020  0.72610  Biso   1.000  C
  O7       1.0000 0.43140  0.62100  0.95250  Biso   1.000  O
  U1       1.0000 0.42066  0.54345  0.16583  Biso   1.000  U
  O8       1.0000 0.82280  0.30460  0.48230  Biso   1.000  O
  O9       1.0000 0.68680  0.40880  0.63190  Biso   1.000  O
  C7       1.0000 0.60060  0.14400  0.52550  Biso   1.000  C
  C8       1.0000 0.71130  0.29720  0.54860  Biso   1.000  C
  O10      1.0000 0.71720  0.22180  0.84640  Biso   1.000  O
  O11      1.0000 0.82670  0.99840  0.80830  Biso   1.000  O
  C9       1.0000 0.60410  0.04970  0.63200  Biso   1.000  C
  C10      1.0000 0.72430  0.09350  0.77340  Biso   1.000  C
  O12      1.0000 0.47210  0.33220  0.29960  Biso   1.000  O
  C11      1.0000 0.49730  0.09230  0.39250  Biso   1.000  C
  O13      1.0000 0.51440  0.12420  0.16250  Biso   1.000  O
  C12      1.0000 0.49580  0.18980  0.27390  Biso   1.000  C
  O14      1.0000 0.56860  0.37900  0.04750  Biso   1.000  O
  U2       1.0000 0.57934  0.45655  0.83417  Biso   1.000  U
  Co1      1.0000 0.00000  0.50000  0.50000  Biso   1.000  Co
  Co2      1.0000 0.00000  0.00000  0.00000  Biso   1.000  Co
