data_HAFVOB_clean
_audit_creation_date              2014-07-02
_audit_creation_method            'Materials Studio'
_symmetry_space_group_name_H-M    'P1'
_symmetry_Int_Tables_number       1
_symmetry_cell_setting            triclinic
loop_
_symmetry_equiv_pos_as_xyz
  x,y,z
_cell_length_a                    9.5054
_cell_length_b                    23.4760
_cell_length_c                    27.6290
_cell_angle_alpha                 90.0000
_cell_angle_beta                  90.0000
_cell_angle_gamma                 90.0000
loop_
_atom_site_label
_atom_site_type_symbol
_atom_site_fract_x
_atom_site_fract_y
_atom_site_fract_z
_atom_site_U_iso_or_equiv
_atom_site_adp_type
_atom_site_occupancy
Ca1    Ca    0.34928   0.70144   0.87208   0.01267  Uiso   1.00
Ca2    Ca    0.65072   0.79856   0.87208   0.01267  Uiso   1.00
Ca3    Ca    0.34928   0.29856   0.62792   0.01267  Uiso   1.00
Ca4    Ca    0.65072   0.20144   0.62792   0.01267  Uiso   1.00
Ca5    Ca    0.65072   0.29856   0.12792   0.01267  Uiso   1.00
Ca6    Ca    0.34928   0.20144   0.12792   0.01267  Uiso   1.00
Ca7    Ca    0.65072   0.70144   0.37208   0.01267  Uiso   1.00
Ca8    Ca    0.34928   0.79856   0.37208   0.01267  Uiso   1.00
Ca9    Ca    0.00000   0.75000   0.89330   0.01267  Uiso   1.00
Ca10   Ca    0.00000   0.25000   0.60670   0.01267  Uiso   1.00
Ca11   Ca    0.00000   0.25000   0.10670   0.01267  Uiso   1.00
Ca12   Ca    0.00000   0.75000   0.39330   0.01267  Uiso   1.00
P1     P     0.31160   0.08372   0.83890   0.01267  Uiso   1.00
P2     P     0.68840   0.41628   0.83890   0.01267  Uiso   1.00
P3     P     0.31160   0.91628   0.66110   0.01267  Uiso   1.00
P4     P     0.68840   0.58372   0.66110   0.01267  Uiso   1.00
P5     P     0.68840   0.91628   0.16110   0.01267  Uiso   1.00
P6     P     0.31160   0.58372   0.16110   0.01267  Uiso   1.00
P7     P     0.68840   0.08372   0.33890   0.01267  Uiso   1.00
P8     P     0.31160   0.41628   0.33890   0.01267  Uiso   1.00
H1     H     0.44790   0.99390   0.79400   0.01267  Uiso   1.00
H2     H     0.45370   0.89430   0.79940   0.01267  Uiso   1.00
H3     H     0.14530   0.89960   0.89850   0.01267  Uiso   1.00
H4     H     0.14920   0.99740   0.89760   0.01267  Uiso   1.00
H5     H     0.43290   0.12960   0.92250   0.01267  Uiso   1.00
H6     H     0.35940   0.16350   0.99720   0.01267  Uiso   1.00
H7     H     0.95340   0.13310   0.95950   0.01267  Uiso   1.00
H8     H     0.03170   0.09880   0.88510   0.01267  Uiso   1.00
H9     H     0.25900   0.17760   0.77920   0.01267  Uiso   1.00
H10    H     0.09060   0.20680   0.72390   0.01267  Uiso   1.00
H11    H     0.87660   0.06020   0.74380   0.01267  Uiso   1.00
H12    H     0.05450   0.02920   0.79840   0.01267  Uiso   1.00
H13    H     0.55210   0.50610   0.79400   0.01267  Uiso   1.00
H14    H     0.54630   0.60570   0.79940   0.01267  Uiso   1.00
H15    H     0.85470   0.60040   0.89850   0.01267  Uiso   1.00
H16    H     0.85080   0.50260   0.89760   0.01267  Uiso   1.00
H17    H     0.56710   0.37040   0.92250   0.01267  Uiso   1.00
H18    H     0.64060   0.33650   0.99720   0.01267  Uiso   1.00
H19    H     0.04660   0.36690   0.95950   0.01267  Uiso   1.00
H20    H     0.96830   0.40120   0.88510   0.01267  Uiso   1.00
H21    H     0.74100   0.32240   0.77920   0.01267  Uiso   1.00
H22    H     0.90940   0.29320   0.72390   0.01267  Uiso   1.00
H23    H     0.12340   0.43980   0.74380   0.01267  Uiso   1.00
H24    H     0.94550   0.47080   0.79840   0.01267  Uiso   1.00
H25    H     0.44790   0.00610   0.70600   0.01267  Uiso   1.00
H26    H     0.45370   0.10570   0.70060   0.01267  Uiso   1.00
H27    H     0.14530   0.10040   0.60150   0.01267  Uiso   1.00
H28    H     0.14920   0.00260   0.60240   0.01267  Uiso   1.00
H29    H     0.43290   0.87040   0.57750   0.01267  Uiso   1.00
H30    H     0.35940   0.83650   0.50280   0.01267  Uiso   1.00
H31    H     0.95340   0.86690   0.54050   0.01267  Uiso   1.00
H32    H     0.03170   0.90120   0.61490   0.01267  Uiso   1.00
H33    H     0.25900   0.82240   0.72080   0.01267  Uiso   1.00
H34    H     0.09060   0.79320   0.77610   0.01267  Uiso   1.00
H35    H     0.87660   0.93980   0.75620   0.01267  Uiso   1.00
H36    H     0.05450   0.97080   0.70160   0.01267  Uiso   1.00
H37    H     0.55210   0.49390   0.70600   0.01267  Uiso   1.00
H38    H     0.54630   0.39430   0.70060   0.01267  Uiso   1.00
H39    H     0.85470   0.39960   0.60150   0.01267  Uiso   1.00
H40    H     0.85080   0.49740   0.60240   0.01267  Uiso   1.00
H41    H     0.56710   0.62960   0.57750   0.01267  Uiso   1.00
H42    H     0.64060   0.66350   0.50280   0.01267  Uiso   1.00
H43    H     0.04660   0.63310   0.54050   0.01267  Uiso   1.00
H44    H     0.96830   0.59880   0.61490   0.01267  Uiso   1.00
H45    H     0.74100   0.67760   0.72080   0.01267  Uiso   1.00
H46    H     0.90940   0.70680   0.77610   0.01267  Uiso   1.00
H47    H     0.12340   0.56020   0.75620   0.01267  Uiso   1.00
H48    H     0.94550   0.52920   0.70160   0.01267  Uiso   1.00
H49    H     0.55210   0.00610   0.20600   0.01267  Uiso   1.00
H50    H     0.54630   0.10570   0.20060   0.01267  Uiso   1.00
H51    H     0.85470   0.10040   0.10150   0.01267  Uiso   1.00
H52    H     0.85080   0.00260   0.10240   0.01267  Uiso   1.00
H53    H     0.56710   0.87040   0.07750   0.01267  Uiso   1.00
H54    H     0.64060   0.83650   0.00280   0.01267  Uiso   1.00
H55    H     0.04660   0.86690   0.04050   0.01267  Uiso   1.00
H56    H     0.96830   0.90120   0.11490   0.01267  Uiso   1.00
H57    H     0.74100   0.82240   0.22080   0.01267  Uiso   1.00
H58    H     0.90940   0.79320   0.27610   0.01267  Uiso   1.00
H59    H     0.12340   0.93980   0.25620   0.01267  Uiso   1.00
H60    H     0.94550   0.97080   0.20160   0.01267  Uiso   1.00
H61    H     0.44790   0.49390   0.20600   0.01267  Uiso   1.00
H62    H     0.45370   0.39430   0.20060   0.01267  Uiso   1.00
H63    H     0.14530   0.39960   0.10150   0.01267  Uiso   1.00
H64    H     0.14920   0.49740   0.10240   0.01267  Uiso   1.00
H65    H     0.43290   0.62960   0.07750   0.01267  Uiso   1.00
H66    H     0.35940   0.66350   0.00280   0.01267  Uiso   1.00
H67    H     0.95340   0.63310   0.04050   0.01267  Uiso   1.00
H68    H     0.03170   0.59880   0.11490   0.01267  Uiso   1.00
H69    H     0.25900   0.67760   0.22080   0.01267  Uiso   1.00
H70    H     0.09060   0.70680   0.27610   0.01267  Uiso   1.00
H71    H     0.87660   0.56020   0.25620   0.01267  Uiso   1.00
H72    H     0.05450   0.52920   0.20160   0.01267  Uiso   1.00
H73    H     0.55210   0.99390   0.29400   0.01267  Uiso   1.00
H74    H     0.54630   0.89430   0.29940   0.01267  Uiso   1.00
H75    H     0.85470   0.89960   0.39850   0.01267  Uiso   1.00
H76    H     0.85080   0.99740   0.39760   0.01267  Uiso   1.00
H77    H     0.56710   0.12960   0.42250   0.01267  Uiso   1.00
H78    H     0.64060   0.16350   0.49720   0.01267  Uiso   1.00
H79    H     0.04660   0.13310   0.45950   0.01267  Uiso   1.00
H80    H     0.96830   0.09880   0.38510   0.01267  Uiso   1.00
H81    H     0.74100   0.17760   0.27920   0.01267  Uiso   1.00
H82    H     0.90940   0.20680   0.22390   0.01267  Uiso   1.00
H83    H     0.12340   0.06020   0.24380   0.01267  Uiso   1.00
H84    H     0.94550   0.02920   0.29840   0.01267  Uiso   1.00
H85    H     0.44790   0.50610   0.29400   0.01267  Uiso   1.00
H86    H     0.45370   0.60570   0.29940   0.01267  Uiso   1.00
H87    H     0.14530   0.60040   0.39850   0.01267  Uiso   1.00
H88    H     0.14920   0.50260   0.39760   0.01267  Uiso   1.00
H89    H     0.43290   0.37040   0.42250   0.01267  Uiso   1.00
H90    H     0.35940   0.33650   0.49720   0.01267  Uiso   1.00
H91    H     0.95340   0.36690   0.45950   0.01267  Uiso   1.00
H92    H     0.03170   0.40120   0.38510   0.01267  Uiso   1.00
H93    H     0.25900   0.32240   0.27920   0.01267  Uiso   1.00
H94    H     0.09060   0.29320   0.22390   0.01267  Uiso   1.00
H95    H     0.87660   0.43980   0.24380   0.01267  Uiso   1.00
H96    H     0.05450   0.47080   0.29840   0.01267  Uiso   1.00
C1     C     0.29910   0.00630   0.84458   0.01267  Uiso   1.00
C2     C     0.38730   0.97490   0.81612   0.01267  Uiso   1.00
C3     C     0.38990   0.91530   0.81889   0.01267  Uiso   1.00
C4     C     0.29960   0.88730   0.85008   0.01267  Uiso   1.00
C5     C     0.20970   0.91870   0.87780   0.01267  Uiso   1.00
C6     C     0.20980   0.97670   0.87660   0.01267  Uiso   1.00
C7     C     0.31080   0.82440   0.85490   0.01267  Uiso   1.00
C8     C     0.23860   0.11000   0.89669   0.01267  Uiso   1.00
C9     C     0.33540   0.13010   0.93010   0.01267  Uiso   1.00
C10    C     0.29170   0.15090   0.97430   0.01267  Uiso   1.00
C11    C     0.14800   0.15360   0.98571   0.01267  Uiso   1.00
C12    C     0.05100   0.13300   0.95220   0.01267  Uiso   1.00
C13    C     0.09850   0.11210   0.90810   0.01267  Uiso   1.00
C14    C     0.09940   0.17950   0.03130   0.01267  Uiso   1.00
C15    C     0.17090   0.10080   0.79534   0.01267  Uiso   1.00
C16    C     0.18150   0.15340   0.77220   0.01267  Uiso   1.00
C17    C     0.08130   0.17080   0.73935   0.01267  Uiso   1.00
C18    C     0.96820   0.13670   0.72868   0.01267  Uiso   1.00
C19    C     0.95490   0.08390   0.75070   0.01267  Uiso   1.00
C20    C     0.06070   0.06590   0.78400   0.01267  Uiso   1.00
C21    C     0.85760   0.15740   0.69459   0.01267  Uiso   1.00
C22    C     0.70090   0.49370   0.84458   0.01267  Uiso   1.00
C23    C     0.61270   0.52510   0.81612   0.01267  Uiso   1.00
C24    C     0.61010   0.58470   0.81889   0.01267  Uiso   1.00
C25    C     0.70040   0.61270   0.85008   0.01267  Uiso   1.00
C26    C     0.79030   0.58130   0.87780   0.01267  Uiso   1.00
C27    C     0.79020   0.52330   0.87660   0.01267  Uiso   1.00
C28    C     0.68920   0.67560   0.85490   0.01267  Uiso   1.00
C29    C     0.76140   0.39000   0.89669   0.01267  Uiso   1.00
C30    C     0.66460   0.36990   0.93010   0.01267  Uiso   1.00
C31    C     0.70830   0.34910   0.97430   0.01267  Uiso   1.00
C32    C     0.85200   0.34640   0.98571   0.01267  Uiso   1.00
C33    C     0.94900   0.36700   0.95220   0.01267  Uiso   1.00
C34    C     0.90150   0.38790   0.90810   0.01267  Uiso   1.00
C35    C     0.90060   0.32050   0.03130   0.01267  Uiso   1.00
C36    C     0.82910   0.39920   0.79534   0.01267  Uiso   1.00
C37    C     0.81850   0.34660   0.77220   0.01267  Uiso   1.00
C38    C     0.91870   0.32920   0.73935   0.01267  Uiso   1.00
C39    C     0.03180   0.36330   0.72868   0.01267  Uiso   1.00
C40    C     0.04510   0.41610   0.75070   0.01267  Uiso   1.00
C41    C     0.93930   0.43410   0.78400   0.01267  Uiso   1.00
C42    C     0.14240   0.34260   0.69459   0.01267  Uiso   1.00
C43    C     0.29910   0.99370   0.65542   0.01267  Uiso   1.00
C44    C     0.38730   0.02510   0.68388   0.01267  Uiso   1.00
C45    C     0.38990   0.08470   0.68111   0.01267  Uiso   1.00
C46    C     0.29960   0.11270   0.64992   0.01267  Uiso   1.00
C47    C     0.20970   0.08130   0.62220   0.01267  Uiso   1.00
C48    C     0.20980   0.02330   0.62340   0.01267  Uiso   1.00
C49    C     0.31080   0.17560   0.64510   0.01267  Uiso   1.00
C50    C     0.23860   0.89000   0.60331   0.01267  Uiso   1.00
C51    C     0.33540   0.86990   0.56990   0.01267  Uiso   1.00
C52    C     0.29170   0.84910   0.52570   0.01267  Uiso   1.00
C53    C     0.14800   0.84640   0.51429   0.01267  Uiso   1.00
C54    C     0.05100   0.86700   0.54780   0.01267  Uiso   1.00
C55    C     0.09850   0.88790   0.59190   0.01267  Uiso   1.00
C56    C     0.09940   0.82050   0.46870   0.01267  Uiso   1.00
C57    C     0.17090   0.89920   0.70466   0.01267  Uiso   1.00
C58    C     0.18150   0.84660   0.72780   0.01267  Uiso   1.00
C59    C     0.08130   0.82920   0.76065   0.01267  Uiso   1.00
C60    C     0.96820   0.86330   0.77132   0.01267  Uiso   1.00
C61    C     0.95490   0.91610   0.74930   0.01267  Uiso   1.00
C62    C     0.06070   0.93410   0.71600   0.01267  Uiso   1.00
C63    C     0.85760   0.84260   0.80541   0.01267  Uiso   1.00
C64    C     0.70090   0.50630   0.65542   0.01267  Uiso   1.00
C65    C     0.61270   0.47490   0.68388   0.01267  Uiso   1.00
C66    C     0.61010   0.41530   0.68111   0.01267  Uiso   1.00
C67    C     0.70040   0.38730   0.64992   0.01267  Uiso   1.00
C68    C     0.79030   0.41870   0.62220   0.01267  Uiso   1.00
C69    C     0.79020   0.47670   0.62340   0.01267  Uiso   1.00
C70    C     0.68920   0.32440   0.64510   0.01267  Uiso   1.00
C71    C     0.76140   0.61000   0.60331   0.01267  Uiso   1.00
C72    C     0.66460   0.63010   0.56990   0.01267  Uiso   1.00
C73    C     0.70830   0.65090   0.52570   0.01267  Uiso   1.00
C74    C     0.85200   0.65360   0.51429   0.01267  Uiso   1.00
C75    C     0.94900   0.63300   0.54780   0.01267  Uiso   1.00
C76    C     0.90150   0.61210   0.59190   0.01267  Uiso   1.00
C77    C     0.90060   0.67950   0.46870   0.01267  Uiso   1.00
C78    C     0.82910   0.60080   0.70466   0.01267  Uiso   1.00
C79    C     0.81850   0.65340   0.72780   0.01267  Uiso   1.00
C80    C     0.91870   0.67080   0.76065   0.01267  Uiso   1.00
C81    C     0.03180   0.63670   0.77132   0.01267  Uiso   1.00
C82    C     0.04510   0.58390   0.74930   0.01267  Uiso   1.00
C83    C     0.93930   0.56590   0.71600   0.01267  Uiso   1.00
C84    C     0.14240   0.65740   0.80541   0.01267  Uiso   1.00
C85    C     0.70090   0.99370   0.15542   0.01267  Uiso   1.00
C86    C     0.61270   0.02510   0.18388   0.01267  Uiso   1.00
C87    C     0.61010   0.08470   0.18111   0.01267  Uiso   1.00
C88    C     0.70040   0.11270   0.14992   0.01267  Uiso   1.00
C89    C     0.79030   0.08130   0.12220   0.01267  Uiso   1.00
C90    C     0.79020   0.02330   0.12340   0.01267  Uiso   1.00
C91    C     0.68920   0.17560   0.14510   0.01267  Uiso   1.00
C92    C     0.76140   0.89000   0.10331   0.01267  Uiso   1.00
C93    C     0.66460   0.86990   0.06990   0.01267  Uiso   1.00
C94    C     0.70830   0.84910   0.02570   0.01267  Uiso   1.00
C95    C     0.85200   0.84640   0.01429   0.01267  Uiso   1.00
C96    C     0.94900   0.86700   0.04780   0.01267  Uiso   1.00
C97    C     0.90150   0.88790   0.09190   0.01267  Uiso   1.00
C98    C     0.90060   0.82050   0.96870   0.01267  Uiso   1.00
C99    C     0.82910   0.89920   0.20466   0.01267  Uiso   1.00
C100   C     0.81850   0.84660   0.22780   0.01267  Uiso   1.00
C101   C     0.91870   0.82920   0.26065   0.01267  Uiso   1.00
C102   C     0.03180   0.86330   0.27132   0.01267  Uiso   1.00
C103   C     0.04510   0.91610   0.24930   0.01267  Uiso   1.00
C104   C     0.93930   0.93410   0.21600   0.01267  Uiso   1.00
C105   C     0.14240   0.84260   0.30541   0.01267  Uiso   1.00
C106   C     0.29910   0.50630   0.15542   0.01267  Uiso   1.00
C107   C     0.38730   0.47490   0.18388   0.01267  Uiso   1.00
C108   C     0.38990   0.41530   0.18111   0.01267  Uiso   1.00
C109   C     0.29960   0.38730   0.14992   0.01267  Uiso   1.00
C110   C     0.20970   0.41870   0.12220   0.01267  Uiso   1.00
C111   C     0.20980   0.47670   0.12340   0.01267  Uiso   1.00
C112   C     0.31080   0.32440   0.14510   0.01267  Uiso   1.00
C113   C     0.23860   0.61000   0.10331   0.01267  Uiso   1.00
C114   C     0.33540   0.63010   0.06990   0.01267  Uiso   1.00
C115   C     0.29170   0.65090   0.02570   0.01267  Uiso   1.00
C116   C     0.14800   0.65360   0.01429   0.01267  Uiso   1.00
C117   C     0.05100   0.63300   0.04780   0.01267  Uiso   1.00
C118   C     0.09850   0.61210   0.09190   0.01267  Uiso   1.00
C119   C     0.09940   0.67950   0.96870   0.01267  Uiso   1.00
C120   C     0.17090   0.60080   0.20466   0.01267  Uiso   1.00
C121   C     0.18150   0.65340   0.22780   0.01267  Uiso   1.00
C122   C     0.08130   0.67080   0.26065   0.01267  Uiso   1.00
C123   C     0.96820   0.63670   0.27132   0.01267  Uiso   1.00
C124   C     0.95490   0.58390   0.24930   0.01267  Uiso   1.00
C125   C     0.06070   0.56590   0.21600   0.01267  Uiso   1.00
C126   C     0.85760   0.65740   0.30541   0.01267  Uiso   1.00
C127   C     0.70090   0.00630   0.34458   0.01267  Uiso   1.00
C128   C     0.61270   0.97490   0.31612   0.01267  Uiso   1.00
C129   C     0.61010   0.91530   0.31889   0.01267  Uiso   1.00
C130   C     0.70040   0.88730   0.35008   0.01267  Uiso   1.00
C131   C     0.79030   0.91870   0.37780   0.01267  Uiso   1.00
C132   C     0.79020   0.97670   0.37660   0.01267  Uiso   1.00
C133   C     0.68920   0.82440   0.35490   0.01267  Uiso   1.00
C134   C     0.76140   0.11000   0.39669   0.01267  Uiso   1.00
C135   C     0.66460   0.13010   0.43010   0.01267  Uiso   1.00
C136   C     0.70830   0.15090   0.47430   0.01267  Uiso   1.00
C137   C     0.85200   0.15360   0.48571   0.01267  Uiso   1.00
C138   C     0.94900   0.13300   0.45220   0.01267  Uiso   1.00
C139   C     0.90150   0.11210   0.40810   0.01267  Uiso   1.00
C140   C     0.90060   0.17950   0.53130   0.01267  Uiso   1.00
C141   C     0.82910   0.10080   0.29534   0.01267  Uiso   1.00
C142   C     0.81850   0.15340   0.27220   0.01267  Uiso   1.00
C143   C     0.91870   0.17080   0.23935   0.01267  Uiso   1.00
C144   C     0.03180   0.13670   0.22868   0.01267  Uiso   1.00
C145   C     0.04510   0.08390   0.25070   0.01267  Uiso   1.00
C146   C     0.93930   0.06590   0.28400   0.01267  Uiso   1.00
C147   C     0.14240   0.15740   0.19459   0.01267  Uiso   1.00
C148   C     0.29910   0.49370   0.34458   0.01267  Uiso   1.00
C149   C     0.38730   0.52510   0.31612   0.01267  Uiso   1.00
C150   C     0.38990   0.58470   0.31889   0.01267  Uiso   1.00
C151   C     0.29960   0.61270   0.35008   0.01267  Uiso   1.00
C152   C     0.20970   0.58130   0.37780   0.01267  Uiso   1.00
C153   C     0.20980   0.52330   0.37660   0.01267  Uiso   1.00
C154   C     0.31080   0.67560   0.35490   0.01267  Uiso   1.00
C155   C     0.23860   0.39000   0.39669   0.01267  Uiso   1.00
C156   C     0.33540   0.36990   0.43010   0.01267  Uiso   1.00
C157   C     0.29170   0.34910   0.47430   0.01267  Uiso   1.00
C158   C     0.14800   0.34640   0.48571   0.01267  Uiso   1.00
C159   C     0.05100   0.36700   0.45220   0.01267  Uiso   1.00
C160   C     0.09850   0.38790   0.40810   0.01267  Uiso   1.00
C161   C     0.09940   0.32050   0.53130   0.01267  Uiso   1.00
C162   C     0.17090   0.39920   0.29534   0.01267  Uiso   1.00
C163   C     0.18150   0.34660   0.27220   0.01267  Uiso   1.00
C164   C     0.08130   0.32920   0.23935   0.01267  Uiso   1.00
C165   C     0.96820   0.36330   0.22868   0.01267  Uiso   1.00
C166   C     0.95490   0.41610   0.25070   0.01267  Uiso   1.00
C167   C     0.06070   0.43410   0.28400   0.01267  Uiso   1.00
C168   C     0.85760   0.34260   0.19459   0.01267  Uiso   1.00
O1     O     0.21400   0.79779   0.87628   0.01267  Uiso   1.00
O2     O     0.41810   0.79905   0.83877   0.01267  Uiso   1.00
O3     O     0.96910   0.18360   0.03907   0.01267  Uiso   1.00
O4     O     0.18880   0.19751   0.06219   0.01267  Uiso   1.00
O5     O     0.88770   0.19655   0.66583   0.01267  Uiso   1.00
O6     O     0.73650   0.13600   0.69505   0.01267  Uiso   1.00
O7     O     0.78600   0.70221   0.87628   0.01267  Uiso   1.00
O8     O     0.58190   0.70095   0.83877   0.01267  Uiso   1.00
O9     O     0.03090   0.31640   0.03907   0.01267  Uiso   1.00
O10    O     0.81120   0.30249   0.06219   0.01267  Uiso   1.00
O11    O     0.11230   0.30345   0.66583   0.01267  Uiso   1.00
O12    O     0.26350   0.36400   0.69505   0.01267  Uiso   1.00
O13    O     0.21400   0.20221   0.62372   0.01267  Uiso   1.00
O14    O     0.41810   0.20095   0.66123   0.01267  Uiso   1.00
O15    O     0.96910   0.81640   0.46093   0.01267  Uiso   1.00
O16    O     0.18880   0.80249   0.43781   0.01267  Uiso   1.00
O17    O     0.88770   0.80345   0.83417   0.01267  Uiso   1.00
O18    O     0.73650   0.86400   0.80495   0.01267  Uiso   1.00
O19    O     0.78600   0.29779   0.62372   0.01267  Uiso   1.00
O20    O     0.58190   0.29905   0.66123   0.01267  Uiso   1.00
O21    O     0.03090   0.68360   0.46093   0.01267  Uiso   1.00
O22    O     0.81120   0.69751   0.43781   0.01267  Uiso   1.00
O23    O     0.11230   0.69655   0.83417   0.01267  Uiso   1.00
O24    O     0.26350   0.63600   0.80495   0.01267  Uiso   1.00
O25    O     0.78600   0.20221   0.12372   0.01267  Uiso   1.00
O26    O     0.58190   0.20095   0.16123   0.01267  Uiso   1.00
O27    O     0.03090   0.81640   0.96093   0.01267  Uiso   1.00
O28    O     0.81120   0.80249   0.93781   0.01267  Uiso   1.00
O29    O     0.11230   0.80345   0.33417   0.01267  Uiso   1.00
O30    O     0.26350   0.86400   0.30495   0.01267  Uiso   1.00
O31    O     0.21400   0.29779   0.12372   0.01267  Uiso   1.00
O32    O     0.41810   0.29905   0.16123   0.01267  Uiso   1.00
O33    O     0.96910   0.68360   0.96093   0.01267  Uiso   1.00
O34    O     0.18880   0.69751   0.93781   0.01267  Uiso   1.00
O35    O     0.88770   0.69655   0.33417   0.01267  Uiso   1.00
O36    O     0.73650   0.63600   0.30495   0.01267  Uiso   1.00
O37    O     0.78600   0.79779   0.37628   0.01267  Uiso   1.00
O38    O     0.58190   0.79905   0.33877   0.01267  Uiso   1.00
O39    O     0.03090   0.18360   0.53907   0.01267  Uiso   1.00
O40    O     0.81120   0.19751   0.56219   0.01267  Uiso   1.00
O41    O     0.11230   0.19655   0.16583   0.01267  Uiso   1.00
O42    O     0.26350   0.13600   0.19505   0.01267  Uiso   1.00
O43    O     0.21400   0.70221   0.37628   0.01267  Uiso   1.00
O44    O     0.41810   0.70095   0.33877   0.01267  Uiso   1.00
O45    O     0.96910   0.31640   0.53907   0.01267  Uiso   1.00
O46    O     0.18880   0.30249   0.56219   0.01267  Uiso   1.00
O47    O     0.88770   0.30345   0.16583   0.01267  Uiso   1.00
O48    O     0.73650   0.36400   0.19505   0.01267  Uiso   1.00
O49    O     0.50000   0.75000   0.93304   0.01267  Uiso   1.00
O50    O     0.50000   0.25000   0.56696   0.01267  Uiso   1.00
O51    O     0.50000   0.25000   0.06696   0.01267  Uiso   1.00
O52    O     0.50000   0.75000   0.43304   0.01267  Uiso   1.00
