data_image0
_cell_length_a       17.1637
_cell_length_b       17.1637
_cell_length_c       34.0665
_cell_angle_alpha    90
_cell_angle_beta     90
_cell_angle_gamma    90

_symmetry_space_group_name_H-M    "P 1"
_symmetry_int_tables_number       1

loop_
  _symmetry_equiv_pos_as_xyz
  'x, y, z'

loop_
  _atom_site_label
  _atom_site_occupancy
  _atom_site_fract_x
  _atom_site_fract_y
  _atom_site_fract_z
  _atom_site_thermal_displace_type
  _atom_site_B_iso_or_equiv
  _atom_site_type_symbol
  C1       1.0000 0.36580  0.26930  0.16539  Biso   1.000  C
  C2       1.0000 0.35700  0.21830  0.20016  Biso   1.000  C
  C3       1.0000 0.34720  0.23360  0.24012  Biso   1.000  C
  H1       1.0000 0.34610  0.28150  0.25280  Biso   1.000  H
  C4       1.0000 0.33970  0.16080  0.25596  Biso   1.000  C
  C5       1.0000 0.33030  0.12940  0.29670  Biso   1.000  C
  N1       1.0000 0.35580  0.14220  0.19335  Biso   1.000  N
  N2       1.0000 0.34550  0.10540  0.22763  Biso   1.000  N
  O1       1.0000 0.37060  0.23420  0.13261  Biso   1.000  O
  O2       1.0000 0.36470  0.34080  0.16825  Biso   1.000  O
  O3       1.0000 0.32980  0.05660  0.29896  Biso   1.000  O
  O4       1.0000 0.32080  0.17530  0.32494  Biso   1.000  O
  Cu1      1.0000 0.37019  0.11986  0.13648  Biso   1.000  Cu
  C6       1.0000 0.86580  0.76930  0.66539  Biso   1.000  C
  C7       1.0000 0.85700  0.71830  0.70016  Biso   1.000  C
  C8       1.0000 0.84720  0.73360  0.74012  Biso   1.000  C
  H2       1.0000 0.84610  0.78150  0.75280  Biso   1.000  H
  C9       1.0000 0.83970  0.66080  0.75596  Biso   1.000  C
  C10      1.0000 0.83030  0.62940  0.79670  Biso   1.000  C
  N3       1.0000 0.85580  0.64220  0.69335  Biso   1.000  N
  N4       1.0000 0.84550  0.60540  0.72763  Biso   1.000  N
  O5       1.0000 0.87060  0.73420  0.63261  Biso   1.000  O
  O6       1.0000 0.86470  0.84080  0.66825  Biso   1.000  O
  O7       1.0000 0.82980  0.55660  0.79896  Biso   1.000  O
  O8       1.0000 0.82080  0.67530  0.82494  Biso   1.000  O
  Cu2      1.0000 0.87019  0.61986  0.63648  Biso   1.000  Cu
  C11      1.0000 0.13420  0.73070  0.66539  Biso   1.000  C
  C12      1.0000 0.14300  0.78170  0.70016  Biso   1.000  C
  C13      1.0000 0.15280  0.76640  0.74012  Biso   1.000  C
  H3       1.0000 0.15390  0.71850  0.75280  Biso   1.000  H
  C14      1.0000 0.16030  0.83920  0.75596  Biso   1.000  C
  C15      1.0000 0.16970  0.87060  0.79670  Biso   1.000  C
  N5       1.0000 0.14420  0.85780  0.69335  Biso   1.000  N
  N6       1.0000 0.15450  0.89460  0.72763  Biso   1.000  N
  O9       1.0000 0.12940  0.76580  0.63261  Biso   1.000  O
  O10      1.0000 0.13530  0.65920  0.66825  Biso   1.000  O
  O11      1.0000 0.17020  0.94340  0.79896  Biso   1.000  O
  O12      1.0000 0.17920  0.82470  0.82494  Biso   1.000  O
  Cu3      1.0000 0.12981  0.88014  0.63648  Biso   1.000  Cu
  C16      1.0000 0.63420  0.23070  0.16539  Biso   1.000  C
  C17      1.0000 0.64300  0.28170  0.20016  Biso   1.000  C
  C18      1.0000 0.65280  0.26640  0.24012  Biso   1.000  C
  H4       1.0000 0.65390  0.21850  0.25280  Biso   1.000  H
  C19      1.0000 0.66030  0.33920  0.25596  Biso   1.000  C
  C20      1.0000 0.66970  0.37060  0.29670  Biso   1.000  C
  N7       1.0000 0.64420  0.35780  0.19335  Biso   1.000  N
  N8       1.0000 0.65450  0.39460  0.22763  Biso   1.000  N
  O13      1.0000 0.62940  0.26580  0.13261  Biso   1.000  O
  O14      1.0000 0.63530  0.15920  0.16825  Biso   1.000  O
  O15      1.0000 0.67020  0.44340  0.29896  Biso   1.000  O
  O16      1.0000 0.67920  0.32470  0.32494  Biso   1.000  O
  Cu4      1.0000 0.62981  0.38014  0.13648  Biso   1.000  Cu
  C21      1.0000 0.13420  0.26930  0.83461  Biso   1.000  C
  C22      1.0000 0.14300  0.21830  0.79984  Biso   1.000  C
  C23      1.0000 0.15280  0.23360  0.75988  Biso   1.000  C
  H5       1.0000 0.15390  0.28150  0.74720  Biso   1.000  H
  C24      1.0000 0.16030  0.16080  0.74404  Biso   1.000  C
  C25      1.0000 0.16970  0.12940  0.70330  Biso   1.000  C
  N9       1.0000 0.14420  0.14220  0.80665  Biso   1.000  N
  N10      1.0000 0.15450  0.10540  0.77237  Biso   1.000  N
  O17      1.0000 0.12940  0.23420  0.86739  Biso   1.000  O
  O18      1.0000 0.13530  0.34080  0.83175  Biso   1.000  O
  O19      1.0000 0.17020  0.05660  0.70104  Biso   1.000  O
  O20      1.0000 0.17920  0.17530  0.67506  Biso   1.000  O
  Cu5      1.0000 0.12981  0.11986  0.86352  Biso   1.000  Cu
  C26      1.0000 0.63420  0.76930  0.33461  Biso   1.000  C
  C27      1.0000 0.64300  0.71830  0.29984  Biso   1.000  C
  C28      1.0000 0.65280  0.73360  0.25988  Biso   1.000  C
  H6       1.0000 0.65390  0.78150  0.24720  Biso   1.000  H
  C29      1.0000 0.66030  0.66080  0.24404  Biso   1.000  C
  C30      1.0000 0.66970  0.62940  0.20330  Biso   1.000  C
  N11      1.0000 0.64420  0.64220  0.30665  Biso   1.000  N
  N12      1.0000 0.65450  0.60540  0.27237  Biso   1.000  N
  O21      1.0000 0.62940  0.73420  0.36739  Biso   1.000  O
  O22      1.0000 0.63530  0.84080  0.33175  Biso   1.000  O
  O23      1.0000 0.67020  0.55660  0.20104  Biso   1.000  O
  O24      1.0000 0.67920  0.67530  0.17506  Biso   1.000  O
  Cu6      1.0000 0.62981  0.61986  0.36352  Biso   1.000  Cu
  C31      1.0000 0.36580  0.73070  0.33461  Biso   1.000  C
  C32      1.0000 0.35700  0.78170  0.29984  Biso   1.000  C
  C33      1.0000 0.34720  0.76640  0.25988  Biso   1.000  C
  H7       1.0000 0.34610  0.71850  0.24720  Biso   1.000  H
  C34      1.0000 0.33970  0.83920  0.24404  Biso   1.000  C
  C35      1.0000 0.33030  0.87060  0.20330  Biso   1.000  C
  N13      1.0000 0.35580  0.85780  0.30665  Biso   1.000  N
  N14      1.0000 0.34550  0.89460  0.27237  Biso   1.000  N
  O25      1.0000 0.37060  0.76580  0.36739  Biso   1.000  O
  O26      1.0000 0.36470  0.65920  0.33175  Biso   1.000  O
  O27      1.0000 0.32980  0.94340  0.20104  Biso   1.000  O
  O28      1.0000 0.32080  0.82470  0.17506  Biso   1.000  O
  Cu7      1.0000 0.37019  0.88014  0.36352  Biso   1.000  Cu
  C36      1.0000 0.86580  0.23070  0.83461  Biso   1.000  C
  C37      1.0000 0.85700  0.28170  0.79984  Biso   1.000  C
  C38      1.0000 0.84720  0.26640  0.75988  Biso   1.000  C
  H8       1.0000 0.84610  0.21850  0.74720  Biso   1.000  H
  C39      1.0000 0.83970  0.33920  0.74404  Biso   1.000  C
  C40      1.0000 0.83030  0.37060  0.70330  Biso   1.000  C
  N15      1.0000 0.85580  0.35780  0.80665  Biso   1.000  N
  N16      1.0000 0.84550  0.39460  0.77237  Biso   1.000  N
  O29      1.0000 0.87060  0.26580  0.86739  Biso   1.000  O
  O30      1.0000 0.86470  0.15920  0.83175  Biso   1.000  O
  O31      1.0000 0.82980  0.44340  0.70104  Biso   1.000  O
  O32      1.0000 0.82080  0.32470  0.67506  Biso   1.000  O
  Cu8      1.0000 0.87019  0.38014  0.86352  Biso   1.000  Cu
  C41      1.0000 0.01930  0.88420  0.58461  Biso   1.000  C
  C42      1.0000 0.96830  0.89300  0.54984  Biso   1.000  C
  C43      1.0000 0.98360  0.90280  0.50988  Biso   1.000  C
  H9       1.0000 0.03150  0.90390  0.49720  Biso   1.000  H
  C44      1.0000 0.91080  0.91030  0.49404  Biso   1.000  C
  C45      1.0000 0.87940  0.91970  0.45330  Biso   1.000  C
  N17      1.0000 0.89220  0.89420  0.55665  Biso   1.000  N
  N18      1.0000 0.85540  0.90450  0.52237  Biso   1.000  N
  O33      1.0000 0.98420  0.87940  0.61739  Biso   1.000  O
  O34      1.0000 0.09080  0.88530  0.58175  Biso   1.000  O
  O35      1.0000 0.80660  0.92020  0.45104  Biso   1.000  O
  O36      1.0000 0.92530  0.92920  0.42506  Biso   1.000  O
  Cu9      1.0000 0.86986  0.87981  0.61352  Biso   1.000  Cu
  C46      1.0000 0.51930  0.38420  0.08461  Biso   1.000  C
  C47      1.0000 0.46830  0.39300  0.04984  Biso   1.000  C
  C48      1.0000 0.48360  0.40280  0.00988  Biso   1.000  C
  H10      1.0000 0.53150  0.40390  0.99720  Biso   1.000  H
  C49      1.0000 0.41080  0.41030  0.99404  Biso   1.000  C
  C50      1.0000 0.37940  0.41970  0.95330  Biso   1.000  C
  N19      1.0000 0.39220  0.39420  0.05665  Biso   1.000  N
  N20      1.0000 0.35540  0.40450  0.02237  Biso   1.000  N
  O37      1.0000 0.48420  0.37940  0.11739  Biso   1.000  O
  O38      1.0000 0.59080  0.38530  0.08175  Biso   1.000  O
  O39      1.0000 0.30660  0.42020  0.95104  Biso   1.000  O
  O40      1.0000 0.42530  0.42920  0.92506  Biso   1.000  O
  Cu10     1.0000 0.36986  0.37981  0.11352  Biso   1.000  Cu
  C51      1.0000 0.48070  0.11580  0.08461  Biso   1.000  C
  C52      1.0000 0.53170  0.10700  0.04984  Biso   1.000  C
  C53      1.0000 0.51640  0.09720  0.00988  Biso   1.000  C
  H11      1.0000 0.46850  0.09610  0.99720  Biso   1.000  H
  C54      1.0000 0.58920  0.08970  0.99404  Biso   1.000  C
  C55      1.0000 0.62060  0.08030  0.95330  Biso   1.000  C
  N21      1.0000 0.60780  0.10580  0.05665  Biso   1.000  N
  N22      1.0000 0.64460  0.09550  0.02237  Biso   1.000  N
  O41      1.0000 0.51580  0.12060  0.11739  Biso   1.000  O
  O42      1.0000 0.40920  0.11470  0.08175  Biso   1.000  O
  O43      1.0000 0.69340  0.07980  0.95104  Biso   1.000  O
  O44      1.0000 0.57470  0.07080  0.92506  Biso   1.000  O
  Cu11     1.0000 0.63014  0.12019  0.11352  Biso   1.000  Cu
  C56      1.0000 0.98070  0.61580  0.58461  Biso   1.000  C
  C57      1.0000 0.03170  0.60700  0.54984  Biso   1.000  C
  C58      1.0000 0.01640  0.59720  0.50988  Biso   1.000  C
  H12      1.0000 0.96850  0.59610  0.49720  Biso   1.000  H
  C59      1.0000 0.08920  0.58970  0.49404  Biso   1.000  C
  C60      1.0000 0.12060  0.58030  0.45330  Biso   1.000  C
  N23      1.0000 0.10780  0.60580  0.55665  Biso   1.000  N
  N24      1.0000 0.14460  0.59550  0.52237  Biso   1.000  N
  O45      1.0000 0.01580  0.62060  0.61739  Biso   1.000  O
  O46      1.0000 0.90920  0.61470  0.58175  Biso   1.000  O
  O47      1.0000 0.19340  0.57980  0.45104  Biso   1.000  O
  O48      1.0000 0.07470  0.57080  0.42506  Biso   1.000  O
  Cu12     1.0000 0.13014  0.62019  0.61352  Biso   1.000  Cu
  C61      1.0000 0.48070  0.88420  0.41539  Biso   1.000  C
  C62      1.0000 0.53170  0.89300  0.45016  Biso   1.000  C
  C63      1.0000 0.51640  0.90280  0.49012  Biso   1.000  C
  H13      1.0000 0.46850  0.90390  0.50280  Biso   1.000  H
  C64      1.0000 0.58920  0.91030  0.50596  Biso   1.000  C
  C65      1.0000 0.62060  0.91970  0.54670  Biso   1.000  C
  N25      1.0000 0.60780  0.89420  0.44335  Biso   1.000  N
  N26      1.0000 0.64460  0.90450  0.47763  Biso   1.000  N
  O49      1.0000 0.51580  0.87940  0.38261  Biso   1.000  O
  O50      1.0000 0.40920  0.88530  0.41825  Biso   1.000  O
  O51      1.0000 0.69340  0.92020  0.54896  Biso   1.000  O
  O52      1.0000 0.57470  0.92920  0.57494  Biso   1.000  O
  Cu13     1.0000 0.63014  0.87981  0.38648  Biso   1.000  Cu
  C66      1.0000 0.98070  0.38420  0.91539  Biso   1.000  C
  C67      1.0000 0.03170  0.39300  0.95016  Biso   1.000  C
  C68      1.0000 0.01640  0.40280  0.99012  Biso   1.000  C
  H14      1.0000 0.96850  0.40390  0.00280  Biso   1.000  H
  C69      1.0000 0.08920  0.41030  0.00596  Biso   1.000  C
  C70      1.0000 0.12060  0.41970  0.04670  Biso   1.000  C
  N27      1.0000 0.10780  0.39420  0.94335  Biso   1.000  N
  N28      1.0000 0.14460  0.40450  0.97763  Biso   1.000  N
  O53      1.0000 0.01580  0.37940  0.88261  Biso   1.000  O
  O54      1.0000 0.90920  0.38530  0.91825  Biso   1.000  O
  O55      1.0000 0.19340  0.42020  0.04896  Biso   1.000  O
  O56      1.0000 0.07470  0.42920  0.07494  Biso   1.000  O
  Cu14     1.0000 0.13014  0.37981  0.88648  Biso   1.000  Cu
  C71      1.0000 0.01930  0.11580  0.91539  Biso   1.000  C
  C72      1.0000 0.96830  0.10700  0.95016  Biso   1.000  C
  C73      1.0000 0.98360  0.09720  0.99012  Biso   1.000  C
  H15      1.0000 0.03150  0.09610  0.00280  Biso   1.000  H
  C74      1.0000 0.91080  0.08970  0.00596  Biso   1.000  C
  C75      1.0000 0.87940  0.08030  0.04670  Biso   1.000  C
  N29      1.0000 0.89220  0.10580  0.94335  Biso   1.000  N
  N30      1.0000 0.85540  0.09550  0.97763  Biso   1.000  N
  O57      1.0000 0.98420  0.12060  0.88261  Biso   1.000  O
  O58      1.0000 0.09080  0.11470  0.91825  Biso   1.000  O
  O59      1.0000 0.80660  0.07980  0.04896  Biso   1.000  O
  O60      1.0000 0.92530  0.07080  0.07494  Biso   1.000  O
  Cu15     1.0000 0.86986  0.12019  0.88648  Biso   1.000  Cu
  C76      1.0000 0.51930  0.61580  0.41539  Biso   1.000  C
  C77      1.0000 0.46830  0.60700  0.45016  Biso   1.000  C
  C78      1.0000 0.48360  0.59720  0.49012  Biso   1.000  C
  H16      1.0000 0.53150  0.59610  0.50280  Biso   1.000  H
  C79      1.0000 0.41080  0.58970  0.50596  Biso   1.000  C
  C80      1.0000 0.37940  0.58030  0.54670  Biso   1.000  C
  N31      1.0000 0.39220  0.60580  0.44335  Biso   1.000  N
  N32      1.0000 0.35540  0.59550  0.47763  Biso   1.000  N
  O61      1.0000 0.48420  0.62060  0.38261  Biso   1.000  O
  O62      1.0000 0.59080  0.61470  0.41825  Biso   1.000  O
  O63      1.0000 0.30660  0.57980  0.54896  Biso   1.000  O
  O64      1.0000 0.42530  0.57080  0.57494  Biso   1.000  O
  Cu16     1.0000 0.36986  0.62019  0.38648  Biso   1.000  Cu
  Cu17     1.0000 0.34815  0.00000  0.25000  Biso   1.000  Cu
  Cu18     1.0000 0.84815  0.50000  0.75000  Biso   1.000  Cu
  Cu19     1.0000 0.15185  0.00000  0.75000  Biso   1.000  Cu
  Cu20     1.0000 0.65185  0.50000  0.25000  Biso   1.000  Cu
  Cu21     1.0000 0.75000  0.90185  0.50000  Biso   1.000  Cu
  Cu22     1.0000 0.25000  0.40185  0.00000  Biso   1.000  Cu
  Cu23     1.0000 0.75000  0.09815  0.00000  Biso   1.000  Cu
  Cu24     1.0000 0.25000  0.59815  0.50000  Biso   1.000  Cu
  C81      1.0000 0.98070  0.11580  0.41539  Biso   1.000  C
  C82      1.0000 0.03170  0.10700  0.45016  Biso   1.000  C
  C83      1.0000 0.01640  0.09720  0.49012  Biso   1.000  C
  H17      1.0000 0.96850  0.09610  0.50280  Biso   1.000  H
  C84      1.0000 0.08920  0.08970  0.50596  Biso   1.000  C
  C85      1.0000 0.12060  0.08030  0.54670  Biso   1.000  C
  N33      1.0000 0.10780  0.10580  0.44335  Biso   1.000  N
  N34      1.0000 0.14460  0.09550  0.47763  Biso   1.000  N
  O65      1.0000 0.01580  0.12060  0.38261  Biso   1.000  O
  O66      1.0000 0.90920  0.11470  0.41825  Biso   1.000  O
  O67      1.0000 0.19340  0.07980  0.54896  Biso   1.000  O
  O68      1.0000 0.07470  0.07080  0.57494  Biso   1.000  O
  Cu25     1.0000 0.13014  0.12019  0.38648  Biso   1.000  Cu
  C86      1.0000 0.48070  0.61580  0.91539  Biso   1.000  C
  C87      1.0000 0.53170  0.60700  0.95016  Biso   1.000  C
  C88      1.0000 0.51640  0.59720  0.99012  Biso   1.000  C
  H18      1.0000 0.46850  0.59610  0.00280  Biso   1.000  H
  C89      1.0000 0.58920  0.58970  0.00596  Biso   1.000  C
  C90      1.0000 0.62060  0.58030  0.04670  Biso   1.000  C
  N35      1.0000 0.60780  0.60580  0.94335  Biso   1.000  N
  N36      1.0000 0.64460  0.59550  0.97763  Biso   1.000  N
  O69      1.0000 0.51580  0.62060  0.88261  Biso   1.000  O
  O70      1.0000 0.40920  0.61470  0.91825  Biso   1.000  O
  O71      1.0000 0.69340  0.57980  0.04896  Biso   1.000  O
  O72      1.0000 0.57470  0.57080  0.07494  Biso   1.000  O
  Cu26     1.0000 0.63014  0.62019  0.88648  Biso   1.000  Cu
  C91      1.0000 0.51930  0.88420  0.91539  Biso   1.000  C
  C92      1.0000 0.46830  0.89300  0.95016  Biso   1.000  C
  C93      1.0000 0.48360  0.90280  0.99012  Biso   1.000  C
  H19      1.0000 0.53150  0.90390  0.00280  Biso   1.000  H
  C94      1.0000 0.41080  0.91030  0.00596  Biso   1.000  C
  C95      1.0000 0.37940  0.91970  0.04670  Biso   1.000  C
  N37      1.0000 0.39220  0.89420  0.94335  Biso   1.000  N
  N38      1.0000 0.35540  0.90450  0.97763  Biso   1.000  N
  O73      1.0000 0.48420  0.87940  0.88261  Biso   1.000  O
  O74      1.0000 0.59080  0.88530  0.91825  Biso   1.000  O
  O75      1.0000 0.30660  0.92020  0.04896  Biso   1.000  O
  O76      1.0000 0.42530  0.92920  0.07494  Biso   1.000  O
  Cu27     1.0000 0.36986  0.87981  0.88648  Biso   1.000  Cu
  C96      1.0000 0.01930  0.38420  0.41539  Biso   1.000  C
  C97      1.0000 0.96830  0.39300  0.45016  Biso   1.000  C
  C98      1.0000 0.98360  0.40280  0.49012  Biso   1.000  C
  H20      1.0000 0.03150  0.40390  0.50280  Biso   1.000  H
  C99      1.0000 0.91080  0.41030  0.50596  Biso   1.000  C
  C100     1.0000 0.87940  0.41970  0.54670  Biso   1.000  C
  N39      1.0000 0.89220  0.39420  0.44335  Biso   1.000  N
  N40      1.0000 0.85540  0.40450  0.47763  Biso   1.000  N
  O77      1.0000 0.98420  0.37940  0.38261  Biso   1.000  O
  O78      1.0000 0.09080  0.38530  0.41825  Biso   1.000  O
  O79      1.0000 0.80660  0.42020  0.54896  Biso   1.000  O
  O80      1.0000 0.92530  0.42920  0.57494  Biso   1.000  O
  Cu28     1.0000 0.86986  0.37981  0.38648  Biso   1.000  Cu
  C101     1.0000 0.51930  0.11580  0.58461  Biso   1.000  C
  C102     1.0000 0.46830  0.10700  0.54984  Biso   1.000  C
  C103     1.0000 0.48360  0.09720  0.50988  Biso   1.000  C
  H21      1.0000 0.53150  0.09610  0.49720  Biso   1.000  H
  C104     1.0000 0.41080  0.08970  0.49404  Biso   1.000  C
  C105     1.0000 0.37940  0.08030  0.45330  Biso   1.000  C
  N41      1.0000 0.39220  0.10580  0.55665  Biso   1.000  N
  N42      1.0000 0.35540  0.09550  0.52237  Biso   1.000  N
  O81      1.0000 0.48420  0.12060  0.61739  Biso   1.000  O
  O82      1.0000 0.59080  0.11470  0.58175  Biso   1.000  O
  O83      1.0000 0.30660  0.07980  0.45104  Biso   1.000  O
  O84      1.0000 0.42530  0.07080  0.42506  Biso   1.000  O
  Cu29     1.0000 0.36986  0.12019  0.61352  Biso   1.000  Cu
  C106     1.0000 0.01930  0.61580  0.08461  Biso   1.000  C
  C107     1.0000 0.96830  0.60700  0.04984  Biso   1.000  C
  C108     1.0000 0.98360  0.59720  0.00988  Biso   1.000  C
  H22      1.0000 0.03150  0.59610  0.99720  Biso   1.000  H
  C109     1.0000 0.91080  0.58970  0.99404  Biso   1.000  C
  C110     1.0000 0.87940  0.58030  0.95330  Biso   1.000  C
  N43      1.0000 0.89220  0.60580  0.05665  Biso   1.000  N
  N44      1.0000 0.85540  0.59550  0.02237  Biso   1.000  N
  O85      1.0000 0.98420  0.62060  0.11739  Biso   1.000  O
  O86      1.0000 0.09080  0.61470  0.08175  Biso   1.000  O
  O87      1.0000 0.80660  0.57980  0.95104  Biso   1.000  O
  O88      1.0000 0.92530  0.57080  0.92506  Biso   1.000  O
  Cu30     1.0000 0.86986  0.62019  0.11352  Biso   1.000  Cu
  C111     1.0000 0.98070  0.88420  0.08461  Biso   1.000  C
  C112     1.0000 0.03170  0.89300  0.04984  Biso   1.000  C
  C113     1.0000 0.01640  0.90280  0.00988  Biso   1.000  C
  H23      1.0000 0.96850  0.90390  0.99720  Biso   1.000  H
  C114     1.0000 0.08920  0.91030  0.99404  Biso   1.000  C
  C115     1.0000 0.12060  0.91970  0.95330  Biso   1.000  C
  N45      1.0000 0.10780  0.89420  0.05665  Biso   1.000  N
  N46      1.0000 0.14460  0.90450  0.02237  Biso   1.000  N
  O89      1.0000 0.01580  0.87940  0.11739  Biso   1.000  O
  O90      1.0000 0.90920  0.88530  0.08175  Biso   1.000  O
  O91      1.0000 0.19340  0.92020  0.95104  Biso   1.000  O
  O92      1.0000 0.07470  0.92920  0.92506  Biso   1.000  O
  Cu31     1.0000 0.13014  0.87981  0.11352  Biso   1.000  Cu
  C116     1.0000 0.48070  0.38420  0.58461  Biso   1.000  C
  C117     1.0000 0.53170  0.39300  0.54984  Biso   1.000  C
  C118     1.0000 0.51640  0.40280  0.50988  Biso   1.000  C
  H24      1.0000 0.46850  0.40390  0.49720  Biso   1.000  H
  C119     1.0000 0.58920  0.41030  0.49404  Biso   1.000  C
  C120     1.0000 0.62060  0.41970  0.45330  Biso   1.000  C
  N47      1.0000 0.60780  0.39420  0.55665  Biso   1.000  N
  N48      1.0000 0.64460  0.40450  0.52237  Biso   1.000  N
  O93      1.0000 0.51580  0.37940  0.61739  Biso   1.000  O
  O94      1.0000 0.40920  0.38530  0.58175  Biso   1.000  O
  O95      1.0000 0.69340  0.42020  0.45104  Biso   1.000  O
  O96      1.0000 0.57470  0.42920  0.42506  Biso   1.000  O
  Cu32     1.0000 0.63014  0.37981  0.61352  Biso   1.000  Cu
  C121     1.0000 0.63420  0.73070  0.83461  Biso   1.000  C
  C122     1.0000 0.64300  0.78170  0.79984  Biso   1.000  C
  C123     1.0000 0.65280  0.76640  0.75988  Biso   1.000  C
  H25      1.0000 0.65390  0.71850  0.74720  Biso   1.000  H
  C124     1.0000 0.66030  0.83920  0.74404  Biso   1.000  C
  C125     1.0000 0.66970  0.87060  0.70330  Biso   1.000  C
  N49      1.0000 0.64420  0.85780  0.80665  Biso   1.000  N
  N50      1.0000 0.65450  0.89460  0.77237  Biso   1.000  N
  O97      1.0000 0.62940  0.76580  0.86739  Biso   1.000  O
  O98      1.0000 0.63530  0.65920  0.83175  Biso   1.000  O
  O99      1.0000 0.67020  0.94340  0.70104  Biso   1.000  O
  O100     1.0000 0.67920  0.82470  0.67506  Biso   1.000  O
  Cu33     1.0000 0.62981  0.88014  0.86352  Biso   1.000  Cu
  C126     1.0000 0.13420  0.23070  0.33461  Biso   1.000  C
  C127     1.0000 0.14300  0.28170  0.29984  Biso   1.000  C
  C128     1.0000 0.15280  0.26640  0.25988  Biso   1.000  C
  H26      1.0000 0.15390  0.21850  0.24720  Biso   1.000  H
  C129     1.0000 0.16030  0.33920  0.24404  Biso   1.000  C
  C130     1.0000 0.16970  0.37060  0.20330  Biso   1.000  C
  N51      1.0000 0.14420  0.35780  0.30665  Biso   1.000  N
  N52      1.0000 0.15450  0.39460  0.27237  Biso   1.000  N
  O101     1.0000 0.12940  0.26580  0.36739  Biso   1.000  O
  O102     1.0000 0.13530  0.15920  0.33175  Biso   1.000  O
  O103     1.0000 0.17020  0.44340  0.20104  Biso   1.000  O
  O104     1.0000 0.17920  0.32470  0.17506  Biso   1.000  O
  Cu34     1.0000 0.12981  0.38014  0.36352  Biso   1.000  Cu
  C131     1.0000 0.86580  0.26930  0.33461  Biso   1.000  C
  C132     1.0000 0.85700  0.21830  0.29984  Biso   1.000  C
  C133     1.0000 0.84720  0.23360  0.25988  Biso   1.000  C
  H27      1.0000 0.84610  0.28150  0.24720  Biso   1.000  H
  C134     1.0000 0.83970  0.16080  0.24404  Biso   1.000  C
  C135     1.0000 0.83030  0.12940  0.20330  Biso   1.000  C
  N53      1.0000 0.85580  0.14220  0.30665  Biso   1.000  N
  N54      1.0000 0.84550  0.10540  0.27237  Biso   1.000  N
  O105     1.0000 0.87060  0.23420  0.36739  Biso   1.000  O
  O106     1.0000 0.86470  0.34080  0.33175  Biso   1.000  O
  O107     1.0000 0.82980  0.05660  0.20104  Biso   1.000  O
  O108     1.0000 0.82080  0.17530  0.17506  Biso   1.000  O
  Cu35     1.0000 0.87019  0.11986  0.36352  Biso   1.000  Cu
  C136     1.0000 0.36580  0.76930  0.83461  Biso   1.000  C
  C137     1.0000 0.35700  0.71830  0.79984  Biso   1.000  C
  C138     1.0000 0.34720  0.73360  0.75988  Biso   1.000  C
  H28      1.0000 0.34610  0.78150  0.74720  Biso   1.000  H
  C139     1.0000 0.33970  0.66080  0.74404  Biso   1.000  C
  C140     1.0000 0.33030  0.62940  0.70330  Biso   1.000  C
  N55      1.0000 0.35580  0.64220  0.80665  Biso   1.000  N
  N56      1.0000 0.34550  0.60540  0.77237  Biso   1.000  N
  O109     1.0000 0.37060  0.73420  0.86739  Biso   1.000  O
  O110     1.0000 0.36470  0.84080  0.83175  Biso   1.000  O
  O111     1.0000 0.32980  0.55660  0.70104  Biso   1.000  O
  O112     1.0000 0.32080  0.67530  0.67506  Biso   1.000  O
  Cu36     1.0000 0.37019  0.61986  0.86352  Biso   1.000  Cu
  C141     1.0000 0.86580  0.73070  0.16539  Biso   1.000  C
  C142     1.0000 0.85700  0.78170  0.20016  Biso   1.000  C
  C143     1.0000 0.84720  0.76640  0.24012  Biso   1.000  C
  H29      1.0000 0.84610  0.71850  0.25280  Biso   1.000  H
  C144     1.0000 0.83970  0.83920  0.25596  Biso   1.000  C
  C145     1.0000 0.83030  0.87060  0.29670  Biso   1.000  C
  N57      1.0000 0.85580  0.85780  0.19335  Biso   1.000  N
  N58      1.0000 0.84550  0.89460  0.22763  Biso   1.000  N
  O113     1.0000 0.87060  0.76580  0.13261  Biso   1.000  O
  O114     1.0000 0.86470  0.65920  0.16825  Biso   1.000  O
  O115     1.0000 0.82980  0.94340  0.29896  Biso   1.000  O
  O116     1.0000 0.82080  0.82470  0.32494  Biso   1.000  O
  Cu37     1.0000 0.87019  0.88014  0.13648  Biso   1.000  Cu
  C146     1.0000 0.36580  0.23070  0.66539  Biso   1.000  C
  C147     1.0000 0.35700  0.28170  0.70016  Biso   1.000  C
  C148     1.0000 0.34720  0.26640  0.74012  Biso   1.000  C
  H30      1.0000 0.34610  0.21850  0.75280  Biso   1.000  H
  C149     1.0000 0.33970  0.33920  0.75596  Biso   1.000  C
  C150     1.0000 0.33030  0.37060  0.79670  Biso   1.000  C
  N59      1.0000 0.35580  0.35780  0.69335  Biso   1.000  N
  N60      1.0000 0.34550  0.39460  0.72763  Biso   1.000  N
  O117     1.0000 0.37060  0.26580  0.63261  Biso   1.000  O
  O118     1.0000 0.36470  0.15920  0.66825  Biso   1.000  O
  O119     1.0000 0.32980  0.44340  0.79896  Biso   1.000  O
  O120     1.0000 0.32080  0.32470  0.82494  Biso   1.000  O
  Cu38     1.0000 0.37019  0.38014  0.63648  Biso   1.000  Cu
  C151     1.0000 0.63420  0.26930  0.66539  Biso   1.000  C
  C152     1.0000 0.64300  0.21830  0.70016  Biso   1.000  C
  C153     1.0000 0.65280  0.23360  0.74012  Biso   1.000  C
  H31      1.0000 0.65390  0.28150  0.75280  Biso   1.000  H
  C154     1.0000 0.66030  0.16080  0.75596  Biso   1.000  C
  C155     1.0000 0.66970  0.12940  0.79670  Biso   1.000  C
  N61      1.0000 0.64420  0.14220  0.69335  Biso   1.000  N
  N62      1.0000 0.65450  0.10540  0.72763  Biso   1.000  N
  O121     1.0000 0.62940  0.23420  0.63261  Biso   1.000  O
  O122     1.0000 0.63530  0.34080  0.66825  Biso   1.000  O
  O123     1.0000 0.67020  0.05660  0.79896  Biso   1.000  O
  O124     1.0000 0.67920  0.17530  0.82494  Biso   1.000  O
  Cu39     1.0000 0.62981  0.11986  0.63648  Biso   1.000  Cu
  C156     1.0000 0.13420  0.76930  0.16539  Biso   1.000  C
  C157     1.0000 0.14300  0.71830  0.20016  Biso   1.000  C
  C158     1.0000 0.15280  0.73360  0.24012  Biso   1.000  C
  H32      1.0000 0.15390  0.78150  0.25280  Biso   1.000  H
  C159     1.0000 0.16030  0.66080  0.25596  Biso   1.000  C
  C160     1.0000 0.16970  0.62940  0.29670  Biso   1.000  C
  N63      1.0000 0.14420  0.64220  0.19335  Biso   1.000  N
  N64      1.0000 0.15450  0.60540  0.22763  Biso   1.000  N
  O125     1.0000 0.12940  0.73420  0.13261  Biso   1.000  O
  O126     1.0000 0.13530  0.84080  0.16825  Biso   1.000  O
  O127     1.0000 0.17020  0.55660  0.29896  Biso   1.000  O
  O128     1.0000 0.17920  0.67530  0.32494  Biso   1.000  O
  Cu40     1.0000 0.12981  0.61986  0.13648  Biso   1.000  Cu
  Cu41     1.0000 0.25000  0.09815  0.50000  Biso   1.000  Cu
  Cu42     1.0000 0.75000  0.59815  0.00000  Biso   1.000  Cu
  Cu43     1.0000 0.25000  0.90185  0.00000  Biso   1.000  Cu
  Cu44     1.0000 0.75000  0.40185  0.50000  Biso   1.000  Cu
  Cu45     1.0000 0.65185  0.00000  0.75000  Biso   1.000  Cu
  Cu46     1.0000 0.15185  0.50000  0.25000  Biso   1.000  Cu
  Cu47     1.0000 0.84815  0.00000  0.25000  Biso   1.000  Cu
  Cu48     1.0000 0.34815  0.50000  0.75000  Biso   1.000  Cu
