data_HAFWUI_charged
_audit_creation_date              2014-07-02
_audit_creation_method            'Materials Studio'
_symmetry_space_group_name_H-M    'P1'
_symmetry_Int_Tables_number       1
_symmetry_cell_setting            triclinic
loop_
_symmetry_equiv_pos_as_xyz
  x,y,z
_cell_length_a                    11.7370
_cell_length_b                    12.2554
_cell_length_c                    19.3010
_cell_angle_alpha                 93.6338
_cell_angle_beta                  90.0000
_cell_angle_gamma                 118.6100
loop_
_atom_site_label
_atom_site_type_symbol
_atom_site_fract_x
_atom_site_fract_y
_atom_site_fract_z
_atom_site_U_iso_or_equiv
_atom_site_adp_type
_atom_site_occupancy
Na1    Na    0.40116   0.00000   0.25000   0.01267  Uiso   1.00
Na2    Na    0.59884   0.00000   0.75000   0.01267  Uiso   1.00
Co1    Co    0.37171   0.75162   0.33778   0.01267  Uiso   1.00
Co2    Co    0.62009   0.24838   0.16222   0.01267  Uiso   1.00
Co3    Co    0.62829   0.24838   0.66222   0.01267  Uiso   1.00
Co4    Co    0.37991   0.75162   0.83778   0.01267  Uiso   1.00
H1     H     0.37220   0.03760   0.47940   0.01267  Uiso   1.00
H2     H     0.26030   0.77440   0.61590   0.01267  Uiso   1.00
H3     H     0.11520   0.62920   0.53300   0.01267  Uiso   1.00
H4     H     0.97460   0.38500   0.31380   0.01267  Uiso   1.00
H5     H     0.79000   0.58840   0.32740   0.01267  Uiso   1.00
H6     H     0.95470   0.73520   0.40050   0.01267  Uiso   1.00
H7     H     0.33460   0.96240   0.02060   0.01267  Uiso   1.00
H8     H     0.48590   0.22560   0.88410   0.01267  Uiso   1.00
H9     H     0.48600   0.37080   0.96700   0.01267  Uiso   1.00
H10    H     0.58960   0.61500   0.18620   0.01267  Uiso   1.00
H11    H     0.20160   0.41160   0.17260   0.01267  Uiso   1.00
H12    H     0.21950   0.26480   0.09950   0.01267  Uiso   1.00
H13    H     0.62780   0.96240   0.52060   0.01267  Uiso   1.00
H14    H     0.73970   0.22560   0.38410   0.01267  Uiso   1.00
H15    H     0.88480   0.37080   0.46700   0.01267  Uiso   1.00
H16    H     0.02540   0.61500   0.68620   0.01267  Uiso   1.00
H17    H     0.21000   0.41160   0.67260   0.01267  Uiso   1.00
H18    H     0.04530   0.26480   0.59950   0.01267  Uiso   1.00
H19    H     0.66540   0.03760   0.97940   0.01267  Uiso   1.00
H20    H     0.51410   0.77440   0.11590   0.01267  Uiso   1.00
H21    H     0.51400   0.62920   0.03300   0.01267  Uiso   1.00
H22    H     0.41040   0.38500   0.81380   0.01267  Uiso   1.00
H23    H     0.79840   0.58840   0.82740   0.01267  Uiso   1.00
H24    H     0.78050   0.73520   0.90050   0.01267  Uiso   1.00
C1     C     0.16177   0.74354   0.45465   0.01267  Uiso   1.00
C2     C     0.23980   0.86760   0.43840   0.01267  Uiso   1.00
C3     C     0.32273   0.95486   0.48958   0.01267  Uiso   1.00
C4     C     0.33297   0.92094   0.55554   0.01267  Uiso   1.00
C5     C     0.25490   0.79800   0.57171   0.01267  Uiso   1.00
C6     C     0.16871   0.71062   0.52161   0.01267  Uiso   1.00
C7     C     0.06438   0.64856   0.40289   0.01267  Uiso   1.00
C8     C     0.07065   0.54290   0.37693   0.01267  Uiso   1.00
C9     C     0.97062   0.45524   0.33167   0.01267  Uiso   1.00
C10    C     0.86603   0.47146   0.31322   0.01267  Uiso   1.00
C11    C     0.86008   0.57696   0.33947   0.01267  Uiso   1.00
C12    C     0.95860   0.66440   0.38347   0.01267  Uiso   1.00
C13    C     0.24739   0.90478   0.36503   0.01267  Uiso   1.00
C14    C     0.56901   0.98742   0.39030   0.01267  Uiso   1.00
C15    C     0.18061   0.51842   0.39540   0.01267  Uiso   1.00
C16    C     0.76066   0.38112   0.26277   0.01267  Uiso   1.00
C17    C     0.41823   0.25646   0.04535   0.01267  Uiso   1.00
C18    C     0.37220   0.13240   0.06160   0.01267  Uiso   1.00
C19    C     0.36787   0.04514   0.01042   0.01267  Uiso   1.00
C20    C     0.41203   0.07906   0.94446   0.01267  Uiso   1.00
C21    C     0.45690   0.20200   0.92829   0.01267  Uiso   1.00
C22    C     0.45809   0.28938   0.97839   0.01267  Uiso   1.00
C23    C     0.41582   0.35144   0.09711   0.01267  Uiso   1.00
C24    C     0.52775   0.45710   0.12307   0.01267  Uiso   1.00
C25    C     0.51538   0.54476   0.16833   0.01267  Uiso   1.00
C26    C     0.39457   0.52854   0.18678   0.01267  Uiso   1.00
C27    C     0.28312   0.42304   0.16053   0.01267  Uiso   1.00
C28    C     0.29420   0.33560   0.11653   0.01267  Uiso   1.00
C29    C     0.34261   0.09522   0.13497   0.01267  Uiso   1.00
C30    C     0.58159   0.01258   0.10970   0.01267  Uiso   1.00
C31    C     0.66219   0.48158   0.10460   0.01267  Uiso   1.00
C32    C     0.37954   0.61888   0.23723   0.01267  Uiso   1.00
C33    C     0.83823   0.25646   0.54535   0.01267  Uiso   1.00
C34    C     0.76020   0.13240   0.56160   0.01267  Uiso   1.00
C35    C     0.67727   0.04514   0.51042   0.01267  Uiso   1.00
C36    C     0.66703   0.07906   0.44446   0.01267  Uiso   1.00
C37    C     0.74510   0.20200   0.42829   0.01267  Uiso   1.00
C38    C     0.83129   0.28938   0.47839   0.01267  Uiso   1.00
C39    C     0.93562   0.35144   0.59711   0.01267  Uiso   1.00
C40    C     0.92935   0.45710   0.62307   0.01267  Uiso   1.00
C41    C     0.02938   0.54476   0.66833   0.01267  Uiso   1.00
C42    C     0.13397   0.52854   0.68678   0.01267  Uiso   1.00
C43    C     0.13992   0.42304   0.66053   0.01267  Uiso   1.00
C44    C     0.04140   0.33560   0.61653   0.01267  Uiso   1.00
C45    C     0.75261   0.09522   0.63497   0.01267  Uiso   1.00
C46    C     0.43099   0.01258   0.60970   0.01267  Uiso   1.00
C47    C     0.81939   0.48158   0.60460   0.01267  Uiso   1.00
C48    C     0.23934   0.61888   0.73723   0.01267  Uiso   1.00
C49    C     0.58177   0.74354   0.95465   0.01267  Uiso   1.00
C50    C     0.62780   0.86760   0.93840   0.01267  Uiso   1.00
C51    C     0.63213   0.95486   0.98958   0.01267  Uiso   1.00
C52    C     0.58797   0.92094   0.05554   0.01267  Uiso   1.00
C53    C     0.54310   0.79800   0.07171   0.01267  Uiso   1.00
C54    C     0.54191   0.71062   0.02161   0.01267  Uiso   1.00
C55    C     0.58418   0.64856   0.90289   0.01267  Uiso   1.00
C56    C     0.47225   0.54290   0.87693   0.01267  Uiso   1.00
C57    C     0.48462   0.45524   0.83167   0.01267  Uiso   1.00
C58    C     0.60543   0.47146   0.81322   0.01267  Uiso   1.00
C59    C     0.71688   0.57696   0.83947   0.01267  Uiso   1.00
C60    C     0.70580   0.66440   0.88347   0.01267  Uiso   1.00
C61    C     0.65739   0.90478   0.86503   0.01267  Uiso   1.00
C62    C     0.41841   0.98742   0.89030   0.01267  Uiso   1.00
C63    C     0.33781   0.51842   0.89540   0.01267  Uiso   1.00
C64    C     0.62046   0.38112   0.76277   0.01267  Uiso   1.00
O1     O     0.24136   0.99892   0.35175   0.01267  Uiso   1.00
O2     O     0.26728   0.83658   0.31816   0.01267  Uiso   1.00
O3     O     0.50881   0.87424   0.40527   0.01267  Uiso   1.00
O4     O     0.55192   0.02684   0.33578   0.01267  Uiso   1.00
O5     O     0.29642   0.60848   0.39728   0.01267  Uiso   1.00
O6     O     0.15204   0.41128   0.40909   0.01267  Uiso   1.00
O7     O     0.66024   0.39068   0.25392   0.01267  Uiso   1.00
O8     O     0.77798   0.29896   0.22869   0.01267  Uiso   1.00
O9     O     0.24244   0.00108   0.14825   0.01267  Uiso   1.00
O10    O     0.43070   0.16342   0.18184   0.01267  Uiso   1.00
O11    O     0.63457   0.12576   0.09473   0.01267  Uiso   1.00
O12    O     0.52508   0.97316   0.16422   0.01267  Uiso   1.00
O13    O     0.68794   0.39152   0.10272   0.01267  Uiso   1.00
O14    O     0.74076   0.58872   0.09091   0.01267  Uiso   1.00
O15    O     0.26956   0.60932   0.24608   0.01267  Uiso   1.00
O16    O     0.47902   0.70104   0.27131   0.01267  Uiso   1.00
O17    O     0.75864   0.00108   0.64825   0.01267  Uiso   1.00
O18    O     0.73272   0.16342   0.68184   0.01267  Uiso   1.00
O19    O     0.49119   0.12576   0.59473   0.01267  Uiso   1.00
O20    O     0.44808   0.97316   0.66422   0.01267  Uiso   1.00
O21    O     0.70358   0.39152   0.60272   0.01267  Uiso   1.00
O22    O     0.84796   0.58872   0.59091   0.01267  Uiso   1.00
O23    O     0.33976   0.60932   0.74608   0.01267  Uiso   1.00
O24    O     0.22202   0.70104   0.77131   0.01267  Uiso   1.00
O25    O     0.75756   0.99892   0.85175   0.01267  Uiso   1.00
O26    O     0.56930   0.83658   0.81816   0.01267  Uiso   1.00
O27    O     0.36543   0.87424   0.90527   0.01267  Uiso   1.00
O28    O     0.47492   0.02684   0.83578   0.01267  Uiso   1.00
O29    O     0.31206   0.60848   0.89728   0.01267  Uiso   1.00
O30    O     0.25924   0.41128   0.90909   0.01267  Uiso   1.00
O31    O     0.73044   0.39068   0.75392   0.01267  Uiso   1.00
O32    O     0.52098   0.29896   0.72869   0.01267  Uiso   1.00
H25    H     0.07350   0.37460   0.94140   0.01267  Uiso   1.00
H26    H     0.71700   0.27060   0.86950   0.01267  Uiso   1.00
H27    H     0.71470   0.28140   0.99610   0.01267  Uiso   1.00
H28    H     0.05030   0.36080   0.81120   0.01267  Uiso   1.00
H29    H     0.91290   0.25520   0.78480   0.01267  Uiso   1.00
H30    H     0.94440   0.39500   0.78720   0.01267  Uiso   1.00
H31    H     0.04190   0.41440   0.07260   0.01267  Uiso   1.00
H32    H     0.89900   0.36940   0.09550   0.01267  Uiso   1.00
H33    H     0.97500   0.24200   0.13630   0.01267  Uiso   1.00
H34    H     0.85820   0.16400   0.08330   0.01267  Uiso   1.00
H35    H     0.00090   0.20880   0.06020   0.01267  Uiso   1.00
C65    C     0.98547   0.35094   0.93919   0.01267  Uiso   1.00
C66    C     0.78758   0.29316   0.89978   0.01267  Uiso   1.00
C67    C     0.78629   0.29898   0.96906   0.01267  Uiso   1.00
C68    C     0.95920   0.33520   0.80990   0.01267  Uiso   1.00
C69    C     0.95316   0.34752   0.06624   0.01267  Uiso   1.00
C70    C     0.94620   0.23000   0.08850   0.01267  Uiso   1.00
N1     N     0.91272   0.32664   0.88160   0.01267  Uiso   1.00
N2     N     0.91033   0.33566   0.99284   0.01267  Uiso   1.00
H36    H     0.69890   0.62540   0.55860   0.01267  Uiso   1.00
H37    H     0.44640   0.72940   0.63050   0.01267  Uiso   1.00
H38    H     0.43330   0.71860   0.50390   0.01267  Uiso   1.00
H39    H     0.68950   0.63920   0.68880   0.01267  Uiso   1.00
H40    H     0.65770   0.74480   0.71520   0.01267  Uiso   1.00
H41    H     0.54940   0.60500   0.71280   0.01267  Uiso   1.00
H42    H     0.62750   0.58560   0.42740   0.01267  Uiso   1.00
H43    H     0.52960   0.63060   0.40450   0.01267  Uiso   1.00
H44    H     0.73300   0.75800   0.36370   0.01267  Uiso   1.00
H45    H     0.69420   0.83600   0.41670   0.01267  Uiso   1.00
H46    H     0.79210   0.79120   0.43980   0.01267  Uiso   1.00
C71    C     0.63453   0.64906   0.56081   0.01267  Uiso   1.00
C72    C     0.49442   0.70684   0.60022   0.01267  Uiso   1.00
C73    C     0.48731   0.70102   0.53094   0.01267  Uiso   1.00
C74    C     0.62400   0.66480   0.69010   0.01267  Uiso   1.00
C75    C     0.60564   0.65248   0.43376   0.01267  Uiso   1.00
C76    C     0.71620   0.77000   0.41150   0.01267  Uiso   1.00
N3     N     0.58608   0.67336   0.61840   0.01267  Uiso   1.00
N4     N     0.57467   0.66434   0.50716   0.01267  Uiso   1.00
H47    H     0.92650   0.62540   0.05860   0.01267  Uiso   1.00
H48    H     0.28300   0.72940   0.13050   0.01267  Uiso   1.00
H49    H     0.28530   0.71860   0.00390   0.01267  Uiso   1.00
H50    H     0.94970   0.63920   0.18880   0.01267  Uiso   1.00
H51    H     0.08710   0.74480   0.21520   0.01267  Uiso   1.00
H52    H     0.05560   0.60500   0.21280   0.01267  Uiso   1.00
H53    H     0.95810   0.58560   0.92740   0.01267  Uiso   1.00
H54    H     0.10100   0.63060   0.90450   0.01267  Uiso   1.00
H55    H     0.02500   0.75800   0.86370   0.01267  Uiso   1.00
H56    H     0.14180   0.83600   0.91670   0.01267  Uiso   1.00
H57    H     0.99910   0.79120   0.93980   0.01267  Uiso   1.00
C77    C     0.01453   0.64906   0.06081   0.01267  Uiso   1.00
C78    C     0.21242   0.70684   0.10022   0.01267  Uiso   1.00
C79    C     0.21371   0.70102   0.03094   0.01267  Uiso   1.00
C80    C     0.04080   0.66480   0.19010   0.01267  Uiso   1.00
C81    C     0.04684   0.65248   0.93376   0.01267  Uiso   1.00
C82    C     0.05380   0.77000   0.91150   0.01267  Uiso   1.00
N5     N     0.08728   0.67336   0.11840   0.01267  Uiso   1.00
N6     N     0.08967   0.66434   0.00716   0.01267  Uiso   1.00
H58    H     0.30110   0.37460   0.44140   0.01267  Uiso   1.00
H59    H     0.55360   0.27060   0.36950   0.01267  Uiso   1.00
H60    H     0.56670   0.28140   0.49610   0.01267  Uiso   1.00
H61    H     0.31050   0.36080   0.31120   0.01267  Uiso   1.00
H62    H     0.34230   0.25520   0.28480   0.01267  Uiso   1.00
H63    H     0.45060   0.39500   0.28720   0.01267  Uiso   1.00
H64    H     0.37250   0.41440   0.57260   0.01267  Uiso   1.00
H65    H     0.47040   0.36940   0.59550   0.01267  Uiso   1.00
H66    H     0.26700   0.24200   0.63630   0.01267  Uiso   1.00
H67    H     0.30580   0.16400   0.58330   0.01267  Uiso   1.00
H68    H     0.20790   0.20880   0.56020   0.01267  Uiso   1.00
C83    C     0.36547   0.35094   0.43919   0.01267  Uiso   1.00
C84    C     0.50558   0.29316   0.39978   0.01267  Uiso   1.00
C85    C     0.51269   0.29898   0.46906   0.01267  Uiso   1.00
C86    C     0.37600   0.33520   0.30990   0.01267  Uiso   1.00
C87    C     0.39436   0.34752   0.56624   0.01267  Uiso   1.00
C88    C     0.28380   0.23000   0.58850   0.01267  Uiso   1.00
N7     N     0.41392   0.32664   0.38160   0.01267  Uiso   1.00
N8     N     0.42533   0.33566   0.49284   0.01267  Uiso   1.00
