data_HAHPIQ_charged
_audit_creation_date              2014-07-02
_audit_creation_method            'Materials Studio'
_symmetry_space_group_name_H-M    'P1'
_symmetry_Int_Tables_number       1
_symmetry_cell_setting            triclinic
loop_
_symmetry_equiv_pos_as_xyz
  x,y,z
_cell_length_a                    12.0200
_cell_length_b                    21.7900
_cell_length_c                    21.7900
_cell_angle_alpha                 120.0000
_cell_angle_beta                  90.0000
_cell_angle_gamma                 90.0000
loop_
_atom_site_label
_atom_site_type_symbol
_atom_site_fract_x
_atom_site_fract_y
_atom_site_fract_z
_atom_site_U_iso_or_equiv
_atom_site_adp_type
_atom_site_occupancy
Ag1    Ag    0.25000   0.26242   0.73758   0.01267  Uiso   1.00
Ag2    Ag    0.25000   0.47516   0.73758   0.01267  Uiso   1.00
Ag3    Ag    0.25000   0.26242   0.52484   0.01267  Uiso   1.00
Ag4    Ag    0.75000   0.73758   0.26242   0.01267  Uiso   1.00
Ag5    Ag    0.75000   0.52484   0.26242   0.01267  Uiso   1.00
Ag6    Ag    0.75000   0.73758   0.47516   0.01267  Uiso   1.00
Ag7    Ag    0.41002   0.33333   0.66666   0.01267  Uiso   1.00
Ag8    Ag    0.91002   0.66667   0.33334   0.01267  Uiso   1.00
Ag9    Ag    0.58998   0.66667   0.33334   0.01267  Uiso   1.00
Ag10   Ag    0.08998   0.33333   0.66666   0.01267  Uiso   1.00
Ag11   Ag    0.50000   0.50058   0.00000   0.01267  Uiso   1.00
Ag12   Ag    0.50000   0.49942   0.49942   0.01267  Uiso   1.00
Ag13   Ag    0.50000   0.00000   0.50058   0.01267  Uiso   1.00
Ag14   Ag    0.00000   0.49942   0.00000   0.01267  Uiso   1.00
Ag15   Ag    0.00000   0.50058   0.50058   0.01267  Uiso   1.00
Ag16   Ag    0.00000   0.00000   0.49942   0.01267  Uiso   1.00
H1     H     0.07630   0.06800   0.41610   0.01267  Uiso   1.00
H2     H     0.01070   0.07770   0.32120   0.01267  Uiso   1.00
H3     H     0.90500   0.17510   0.34130   0.01267  Uiso   1.00
H4     H     0.86480   0.26280   0.45640   0.01267  Uiso   1.00
H5     H     0.93030   0.25320   0.55130   0.01267  Uiso   1.00
H6     H     0.20920   0.99170   0.55510   0.01267  Uiso   1.00
H7     H     0.26200   0.91810   0.59850   0.01267  Uiso   1.00
H8     H     0.25180   0.95840   0.71900   0.01267  Uiso   1.00
H9     H     0.18870   0.07220   0.79620   0.01267  Uiso   1.00
H10    H     0.13590   0.14580   0.75280   0.01267  Uiso   1.00
H11    H     0.07630   0.34810   0.93200   0.01267  Uiso   1.00
H12    H     0.01070   0.24350   0.92230   0.01267  Uiso   1.00
H13    H     0.90500   0.16620   0.82490   0.01267  Uiso   1.00
H14    H     0.86480   0.19360   0.73720   0.01267  Uiso   1.00
H15    H     0.93030   0.29810   0.74680   0.01267  Uiso   1.00
H16    H     0.20920   0.56340   0.00830   0.01267  Uiso   1.00
H17    H     0.26200   0.68040   0.08190   0.01267  Uiso   1.00
H18    H     0.25180   0.76060   0.04160   0.01267  Uiso   1.00
H19    H     0.18870   0.72400   0.92780   0.01267  Uiso   1.00
H20    H     0.13590   0.60700   0.85420   0.01267  Uiso   1.00
H21    H     0.07630   0.58390   0.65190   0.01267  Uiso   1.00
H22    H     0.01070   0.67880   0.75650   0.01267  Uiso   1.00
H23    H     0.90500   0.65870   0.83380   0.01267  Uiso   1.00
H24    H     0.86480   0.54360   0.80640   0.01267  Uiso   1.00
H25    H     0.93030   0.44870   0.70190   0.01267  Uiso   1.00
H26    H     0.20920   0.44490   0.43660   0.01267  Uiso   1.00
H27    H     0.26200   0.40150   0.31960   0.01267  Uiso   1.00
H28    H     0.25180   0.28100   0.23940   0.01267  Uiso   1.00
H29    H     0.18870   0.20380   0.27600   0.01267  Uiso   1.00
H30    H     0.13590   0.24720   0.39300   0.01267  Uiso   1.00
H31    H     0.57630   0.93200   0.58390   0.01267  Uiso   1.00
H32    H     0.51070   0.92230   0.67880   0.01267  Uiso   1.00
H33    H     0.40500   0.82490   0.65870   0.01267  Uiso   1.00
H34    H     0.36480   0.73720   0.54360   0.01267  Uiso   1.00
H35    H     0.43030   0.74680   0.44870   0.01267  Uiso   1.00
H36    H     0.70920   0.00830   0.44490   0.01267  Uiso   1.00
H37    H     0.76200   0.08190   0.40150   0.01267  Uiso   1.00
H38    H     0.75180   0.04160   0.28100   0.01267  Uiso   1.00
H39    H     0.68870   0.92780   0.20380   0.01267  Uiso   1.00
H40    H     0.63590   0.85420   0.24720   0.01267  Uiso   1.00
H41    H     0.57630   0.65190   0.06800   0.01267  Uiso   1.00
H42    H     0.51070   0.75650   0.07770   0.01267  Uiso   1.00
H43    H     0.40500   0.83380   0.17510   0.01267  Uiso   1.00
H44    H     0.36480   0.80640   0.26280   0.01267  Uiso   1.00
H45    H     0.43030   0.70190   0.25320   0.01267  Uiso   1.00
H46    H     0.70920   0.43660   0.99170   0.01267  Uiso   1.00
H47    H     0.76200   0.31960   0.91810   0.01267  Uiso   1.00
H48    H     0.75180   0.23940   0.95840   0.01267  Uiso   1.00
H49    H     0.68870   0.27600   0.07220   0.01267  Uiso   1.00
H50    H     0.63590   0.39300   0.14580   0.01267  Uiso   1.00
H51    H     0.57630   0.41610   0.34810   0.01267  Uiso   1.00
H52    H     0.51070   0.32120   0.24350   0.01267  Uiso   1.00
H53    H     0.40500   0.34130   0.16620   0.01267  Uiso   1.00
H54    H     0.36480   0.45640   0.19360   0.01267  Uiso   1.00
H55    H     0.43030   0.55130   0.29810   0.01267  Uiso   1.00
H56    H     0.70920   0.55510   0.56340   0.01267  Uiso   1.00
H57    H     0.76200   0.59850   0.68040   0.01267  Uiso   1.00
H58    H     0.75180   0.71900   0.76060   0.01267  Uiso   1.00
H59    H     0.68870   0.79620   0.72400   0.01267  Uiso   1.00
H60    H     0.63590   0.75280   0.60700   0.01267  Uiso   1.00
H61    H     0.92370   0.65190   0.58390   0.01267  Uiso   1.00
H62    H     0.98930   0.75650   0.67880   0.01267  Uiso   1.00
H63    H     0.09500   0.83380   0.65870   0.01267  Uiso   1.00
H64    H     0.13520   0.80640   0.54360   0.01267  Uiso   1.00
H65    H     0.06970   0.70190   0.44870   0.01267  Uiso   1.00
H66    H     0.79080   0.43660   0.44490   0.01267  Uiso   1.00
H67    H     0.73800   0.31960   0.40150   0.01267  Uiso   1.00
H68    H     0.74820   0.23940   0.28100   0.01267  Uiso   1.00
H69    H     0.81130   0.27600   0.20380   0.01267  Uiso   1.00
H70    H     0.86410   0.39300   0.24720   0.01267  Uiso   1.00
H71    H     0.92370   0.41610   0.06800   0.01267  Uiso   1.00
H72    H     0.98930   0.32120   0.07770   0.01267  Uiso   1.00
H73    H     0.09500   0.34130   0.17510   0.01267  Uiso   1.00
H74    H     0.13520   0.45640   0.26280   0.01267  Uiso   1.00
H75    H     0.06970   0.55130   0.25320   0.01267  Uiso   1.00
H76    H     0.79080   0.55510   0.99170   0.01267  Uiso   1.00
H77    H     0.73800   0.59850   0.91810   0.01267  Uiso   1.00
H78    H     0.74820   0.71900   0.95840   0.01267  Uiso   1.00
H79    H     0.81130   0.79620   0.07220   0.01267  Uiso   1.00
H80    H     0.86410   0.75280   0.14580   0.01267  Uiso   1.00
H81    H     0.92370   0.93200   0.34810   0.01267  Uiso   1.00
H82    H     0.98930   0.92230   0.24350   0.01267  Uiso   1.00
H83    H     0.09500   0.82490   0.16620   0.01267  Uiso   1.00
H84    H     0.13520   0.73720   0.19360   0.01267  Uiso   1.00
H85    H     0.06970   0.74680   0.29810   0.01267  Uiso   1.00
H86    H     0.79080   0.00830   0.56340   0.01267  Uiso   1.00
H87    H     0.73800   0.08190   0.68040   0.01267  Uiso   1.00
H88    H     0.74820   0.04160   0.76060   0.01267  Uiso   1.00
H89    H     0.81130   0.92780   0.72400   0.01267  Uiso   1.00
H90    H     0.86410   0.85420   0.60700   0.01267  Uiso   1.00
H91    H     0.42370   0.34810   0.41610   0.01267  Uiso   1.00
H92    H     0.48930   0.24350   0.32120   0.01267  Uiso   1.00
H93    H     0.59500   0.16620   0.34130   0.01267  Uiso   1.00
H94    H     0.63520   0.19360   0.45640   0.01267  Uiso   1.00
H95    H     0.56970   0.29810   0.55130   0.01267  Uiso   1.00
H96    H     0.29080   0.56340   0.55510   0.01267  Uiso   1.00
H97    H     0.23800   0.68040   0.59850   0.01267  Uiso   1.00
H98    H     0.24820   0.76060   0.71900   0.01267  Uiso   1.00
H99    H     0.31130   0.72400   0.79620   0.01267  Uiso   1.00
H100   H     0.36410   0.60700   0.75280   0.01267  Uiso   1.00
H101   H     0.42370   0.58390   0.93200   0.01267  Uiso   1.00
H102   H     0.48930   0.67880   0.92230   0.01267  Uiso   1.00
H103   H     0.59500   0.65870   0.82490   0.01267  Uiso   1.00
H104   H     0.63520   0.54360   0.73720   0.01267  Uiso   1.00
H105   H     0.56970   0.44870   0.74680   0.01267  Uiso   1.00
H106   H     0.29080   0.44490   0.00830   0.01267  Uiso   1.00
H107   H     0.23800   0.40150   0.08190   0.01267  Uiso   1.00
H108   H     0.24820   0.28100   0.04160   0.01267  Uiso   1.00
H109   H     0.31130   0.20380   0.92780   0.01267  Uiso   1.00
H110   H     0.36410   0.24720   0.85420   0.01267  Uiso   1.00
H111   H     0.42370   0.06800   0.65190   0.01267  Uiso   1.00
H112   H     0.48930   0.07770   0.75650   0.01267  Uiso   1.00
H113   H     0.59500   0.17510   0.83380   0.01267  Uiso   1.00
H114   H     0.63520   0.26280   0.80640   0.01267  Uiso   1.00
H115   H     0.56970   0.25320   0.70190   0.01267  Uiso   1.00
H116   H     0.29080   0.99170   0.43660   0.01267  Uiso   1.00
H117   H     0.23800   0.91810   0.31960   0.01267  Uiso   1.00
H118   H     0.24820   0.95840   0.23940   0.01267  Uiso   1.00
H119   H     0.31130   0.07220   0.27600   0.01267  Uiso   1.00
H120   H     0.36410   0.14580   0.39300   0.01267  Uiso   1.00
C1     C     0.43800   0.44920   0.84120   0.01267  Uiso   1.00
C2     C     0.12870   0.11940   0.62140   0.01267  Uiso   1.00
C3     C     0.00980   0.15960   0.49310   0.01267  Uiso   1.00
C4     C     0.03390   0.10710   0.42420   0.01267  Uiso   1.00
C5     C     0.99460   0.11290   0.36730   0.01267  Uiso   1.00
C6     C     0.93130   0.17120   0.37930   0.01267  Uiso   1.00
C7     C     0.90720   0.22380   0.44830   0.01267  Uiso   1.00
C8     C     0.94640   0.21800   0.50520   0.01267  Uiso   1.00
C9     C     0.16730   0.07600   0.64970   0.01267  Uiso   1.00
C10    C     0.20510   0.00780   0.60340   0.01267  Uiso   1.00
C11    C     0.23670   0.96370   0.62940   0.01267  Uiso   1.00
C12    C     0.23060   0.98790   0.70160   0.01267  Uiso   1.00
C13    C     0.19280   0.05600   0.74790   0.01267  Uiso   1.00
C14    C     0.16120   0.10010   0.72190   0.01267  Uiso   1.00
C15    C     0.43800   0.39200   0.55080   0.01267  Uiso   1.00
C16    C     0.12870   0.50200   0.88060   0.01267  Uiso   1.00
C17    C     0.00980   0.33350   0.84040   0.01267  Uiso   1.00
C18    C     0.03390   0.31710   0.89290   0.01267  Uiso   1.00
C19    C     0.99460   0.25440   0.88710   0.01267  Uiso   1.00
C20    C     0.93130   0.20810   0.82880   0.01267  Uiso   1.00
C21    C     0.90720   0.22450   0.77620   0.01267  Uiso   1.00
C22    C     0.94640   0.28720   0.78200   0.01267  Uiso   1.00
C23    C     0.16730   0.57370   0.92400   0.01267  Uiso   1.00
C24    C     0.20510   0.59560   0.99220   0.01267  Uiso   1.00
C25    C     0.23670   0.66570   0.03630   0.01267  Uiso   1.00
C26    C     0.23060   0.71370   0.01210   0.01267  Uiso   1.00
C27    C     0.19280   0.69190   0.94400   0.01267  Uiso   1.00
C28    C     0.16120   0.62180   0.89990   0.01267  Uiso   1.00
C29    C     0.43800   0.15880   0.60800   0.01267  Uiso   1.00
C30    C     0.12870   0.37860   0.49800   0.01267  Uiso   1.00
C31    C     0.00980   0.50690   0.66650   0.01267  Uiso   1.00
C32    C     0.03390   0.57580   0.68290   0.01267  Uiso   1.00
C33    C     0.99460   0.63270   0.74560   0.01267  Uiso   1.00
C34    C     0.93130   0.62070   0.79190   0.01267  Uiso   1.00
C35    C     0.90720   0.55170   0.77550   0.01267  Uiso   1.00
C36    C     0.94640   0.49480   0.71280   0.01267  Uiso   1.00
C37    C     0.16730   0.35030   0.42630   0.01267  Uiso   1.00
C38    C     0.20510   0.39660   0.40440   0.01267  Uiso   1.00
C39    C     0.23670   0.37060   0.33430   0.01267  Uiso   1.00
C40    C     0.23060   0.29840   0.28630   0.01267  Uiso   1.00
C41    C     0.19280   0.25210   0.30810   0.01267  Uiso   1.00
C42    C     0.16120   0.27810   0.37820   0.01267  Uiso   1.00
C43    C     0.93800   0.55080   0.15880   0.01267  Uiso   1.00
C44    C     0.62870   0.88060   0.37860   0.01267  Uiso   1.00
C45    C     0.50980   0.84040   0.50690   0.01267  Uiso   1.00
C46    C     0.53390   0.89290   0.57580   0.01267  Uiso   1.00
C47    C     0.49460   0.88710   0.63270   0.01267  Uiso   1.00
C48    C     0.43130   0.82880   0.62070   0.01267  Uiso   1.00
C49    C     0.40720   0.77620   0.55170   0.01267  Uiso   1.00
C50    C     0.44640   0.78200   0.49480   0.01267  Uiso   1.00
C51    C     0.66730   0.92400   0.35030   0.01267  Uiso   1.00
C52    C     0.70510   0.99220   0.39660   0.01267  Uiso   1.00
C53    C     0.73670   0.03630   0.37060   0.01267  Uiso   1.00
C54    C     0.73060   0.01210   0.29840   0.01267  Uiso   1.00
C55    C     0.69280   0.94400   0.25210   0.01267  Uiso   1.00
C56    C     0.66120   0.89990   0.27810   0.01267  Uiso   1.00
C57    C     0.93800   0.60800   0.44920   0.01267  Uiso   1.00
C58    C     0.62870   0.49800   0.11940   0.01267  Uiso   1.00
C59    C     0.50980   0.66650   0.15960   0.01267  Uiso   1.00
C60    C     0.53390   0.68290   0.10710   0.01267  Uiso   1.00
C61    C     0.49460   0.74560   0.11290   0.01267  Uiso   1.00
C62    C     0.43130   0.79190   0.17120   0.01267  Uiso   1.00
C63    C     0.40720   0.77550   0.22380   0.01267  Uiso   1.00
C64    C     0.44640   0.71280   0.21800   0.01267  Uiso   1.00
C65    C     0.66730   0.42630   0.07600   0.01267  Uiso   1.00
C66    C     0.70510   0.40440   0.00780   0.01267  Uiso   1.00
C67    C     0.73670   0.33430   0.96370   0.01267  Uiso   1.00
C68    C     0.73060   0.28630   0.98790   0.01267  Uiso   1.00
C69    C     0.69280   0.30810   0.05600   0.01267  Uiso   1.00
C70    C     0.66120   0.37820   0.10010   0.01267  Uiso   1.00
C71    C     0.93800   0.84120   0.39200   0.01267  Uiso   1.00
C72    C     0.62870   0.62140   0.50200   0.01267  Uiso   1.00
C73    C     0.50980   0.49310   0.33350   0.01267  Uiso   1.00
C74    C     0.53390   0.42420   0.31710   0.01267  Uiso   1.00
C75    C     0.49460   0.36730   0.25440   0.01267  Uiso   1.00
C76    C     0.43130   0.37930   0.20810   0.01267  Uiso   1.00
C77    C     0.40720   0.44830   0.22450   0.01267  Uiso   1.00
C78    C     0.44640   0.50520   0.28720   0.01267  Uiso   1.00
C79    C     0.66730   0.64970   0.57370   0.01267  Uiso   1.00
C80    C     0.70510   0.60340   0.59560   0.01267  Uiso   1.00
C81    C     0.73670   0.62940   0.66570   0.01267  Uiso   1.00
C82    C     0.73060   0.70160   0.71370   0.01267  Uiso   1.00
C83    C     0.69280   0.74790   0.69190   0.01267  Uiso   1.00
C84    C     0.66120   0.72190   0.62180   0.01267  Uiso   1.00
C85    C     0.56200   0.60800   0.15880   0.01267  Uiso   1.00
C86    C     0.87130   0.49800   0.37860   0.01267  Uiso   1.00
C87    C     0.99020   0.66650   0.50690   0.01267  Uiso   1.00
C88    C     0.96610   0.68290   0.57580   0.01267  Uiso   1.00
C89    C     0.00540   0.74560   0.63270   0.01267  Uiso   1.00
C90    C     0.06870   0.79190   0.62070   0.01267  Uiso   1.00
C91    C     0.09280   0.77550   0.55170   0.01267  Uiso   1.00
C92    C     0.05360   0.71280   0.49480   0.01267  Uiso   1.00
C93    C     0.83270   0.42630   0.35030   0.01267  Uiso   1.00
C94    C     0.79490   0.40440   0.39660   0.01267  Uiso   1.00
C95    C     0.76330   0.33430   0.37060   0.01267  Uiso   1.00
C96    C     0.76940   0.28630   0.29840   0.01267  Uiso   1.00
C97    C     0.80720   0.30810   0.25210   0.01267  Uiso   1.00
C98    C     0.83880   0.37820   0.27810   0.01267  Uiso   1.00
C99    C     0.56200   0.84120   0.44920   0.01267  Uiso   1.00
C100   C     0.87130   0.62140   0.11940   0.01267  Uiso   1.00
C101   C     0.99020   0.49310   0.15960   0.01267  Uiso   1.00
C102   C     0.96610   0.42420   0.10710   0.01267  Uiso   1.00
C103   C     0.00540   0.36730   0.11290   0.01267  Uiso   1.00
C104   C     0.06870   0.37930   0.17120   0.01267  Uiso   1.00
C105   C     0.09280   0.44830   0.22380   0.01267  Uiso   1.00
C106   C     0.05360   0.50520   0.21800   0.01267  Uiso   1.00
C107   C     0.83270   0.64970   0.07600   0.01267  Uiso   1.00
C108   C     0.79490   0.60340   0.00780   0.01267  Uiso   1.00
C109   C     0.76330   0.62940   0.96370   0.01267  Uiso   1.00
C110   C     0.76940   0.70160   0.98790   0.01267  Uiso   1.00
C111   C     0.80720   0.74790   0.05600   0.01267  Uiso   1.00
C112   C     0.83880   0.72190   0.10010   0.01267  Uiso   1.00
C113   C     0.56200   0.55080   0.39200   0.01267  Uiso   1.00
C114   C     0.87130   0.88060   0.50200   0.01267  Uiso   1.00
C115   C     0.99020   0.84040   0.33350   0.01267  Uiso   1.00
C116   C     0.96610   0.89290   0.31710   0.01267  Uiso   1.00
C117   C     0.00540   0.88710   0.25440   0.01267  Uiso   1.00
C118   C     0.06870   0.82880   0.20810   0.01267  Uiso   1.00
C119   C     0.09280   0.77620   0.22450   0.01267  Uiso   1.00
C120   C     0.05360   0.78200   0.28720   0.01267  Uiso   1.00
C121   C     0.83270   0.92400   0.57370   0.01267  Uiso   1.00
C122   C     0.79490   0.99220   0.59560   0.01267  Uiso   1.00
C123   C     0.76330   0.03630   0.66570   0.01267  Uiso   1.00
C124   C     0.76940   0.01210   0.71370   0.01267  Uiso   1.00
C125   C     0.80720   0.94400   0.69190   0.01267  Uiso   1.00
C126   C     0.83880   0.89990   0.62180   0.01267  Uiso   1.00
C127   C     0.06200   0.39200   0.84120   0.01267  Uiso   1.00
C128   C     0.37130   0.50200   0.62140   0.01267  Uiso   1.00
C129   C     0.49020   0.33350   0.49310   0.01267  Uiso   1.00
C130   C     0.46610   0.31710   0.42420   0.01267  Uiso   1.00
C131   C     0.50540   0.25440   0.36730   0.01267  Uiso   1.00
C132   C     0.56870   0.20810   0.37930   0.01267  Uiso   1.00
C133   C     0.59280   0.22450   0.44830   0.01267  Uiso   1.00
C134   C     0.55360   0.28720   0.50520   0.01267  Uiso   1.00
C135   C     0.33270   0.57370   0.64970   0.01267  Uiso   1.00
C136   C     0.29490   0.59560   0.60340   0.01267  Uiso   1.00
C137   C     0.26330   0.66570   0.62940   0.01267  Uiso   1.00
C138   C     0.26940   0.71370   0.70160   0.01267  Uiso   1.00
C139   C     0.30720   0.69190   0.74790   0.01267  Uiso   1.00
C140   C     0.33880   0.62180   0.72190   0.01267  Uiso   1.00
C141   C     0.06200   0.15880   0.55080   0.01267  Uiso   1.00
C142   C     0.37130   0.37860   0.88060   0.01267  Uiso   1.00
C143   C     0.49020   0.50690   0.84040   0.01267  Uiso   1.00
C144   C     0.46610   0.57580   0.89290   0.01267  Uiso   1.00
C145   C     0.50540   0.63270   0.88710   0.01267  Uiso   1.00
C146   C     0.56870   0.62070   0.82880   0.01267  Uiso   1.00
C147   C     0.59280   0.55170   0.77620   0.01267  Uiso   1.00
C148   C     0.55360   0.49480   0.78200   0.01267  Uiso   1.00
C149   C     0.33270   0.35030   0.92400   0.01267  Uiso   1.00
C150   C     0.29490   0.39660   0.99220   0.01267  Uiso   1.00
C151   C     0.26330   0.37060   0.03630   0.01267  Uiso   1.00
C152   C     0.26940   0.29840   0.01210   0.01267  Uiso   1.00
C153   C     0.30720   0.25210   0.94400   0.01267  Uiso   1.00
C154   C     0.33880   0.27810   0.89990   0.01267  Uiso   1.00
C155   C     0.06200   0.44920   0.60800   0.01267  Uiso   1.00
C156   C     0.37130   0.11940   0.49800   0.01267  Uiso   1.00
C157   C     0.49020   0.15960   0.66650   0.01267  Uiso   1.00
C158   C     0.46610   0.10710   0.68290   0.01267  Uiso   1.00
C159   C     0.50540   0.11290   0.74560   0.01267  Uiso   1.00
C160   C     0.56870   0.17120   0.79190   0.01267  Uiso   1.00
C161   C     0.59280   0.22380   0.77550   0.01267  Uiso   1.00
C162   C     0.55360   0.21800   0.71280   0.01267  Uiso   1.00
C163   C     0.33270   0.07600   0.42630   0.01267  Uiso   1.00
C164   C     0.29490   0.00780   0.40440   0.01267  Uiso   1.00
C165   C     0.26330   0.96370   0.33430   0.01267  Uiso   1.00
C166   C     0.26940   0.98790   0.28630   0.01267  Uiso   1.00
C167   C     0.30720   0.05600   0.30810   0.01267  Uiso   1.00
C168   C     0.33880   0.10010   0.37820   0.01267  Uiso   1.00
N1     N     0.14390   0.46370   0.80740   0.01267  Uiso   1.00
N2     N     0.39830   0.39280   0.78430   0.01267  Uiso   1.00
N3     N     0.42060   0.44350   0.90280   0.01267  Uiso   1.00
N4     N     0.14390   0.34370   0.53630   0.01267  Uiso   1.00
N5     N     0.39830   0.39150   0.60720   0.01267  Uiso   1.00
N6     N     0.42060   0.45930   0.55650   0.01267  Uiso   1.00
N7     N     0.14390   0.19260   0.65630   0.01267  Uiso   1.00
N8     N     0.39830   0.21570   0.60850   0.01267  Uiso   1.00
N9     N     0.42060   0.09720   0.54070   0.01267  Uiso   1.00
N10    N     0.64390   0.53630   0.19260   0.01267  Uiso   1.00
N11    N     0.89830   0.60720   0.21570   0.01267  Uiso   1.00
N12    N     0.92060   0.55650   0.09720   0.01267  Uiso   1.00
N13    N     0.64390   0.65630   0.46370   0.01267  Uiso   1.00
N14    N     0.89830   0.60850   0.39280   0.01267  Uiso   1.00
N15    N     0.92060   0.54070   0.44350   0.01267  Uiso   1.00
N16    N     0.64390   0.80740   0.34370   0.01267  Uiso   1.00
N17    N     0.89830   0.78430   0.39150   0.01267  Uiso   1.00
N18    N     0.92060   0.90280   0.45930   0.01267  Uiso   1.00
N19    N     0.85610   0.65630   0.19260   0.01267  Uiso   1.00
N20    N     0.60170   0.60850   0.21570   0.01267  Uiso   1.00
N21    N     0.57940   0.54070   0.09720   0.01267  Uiso   1.00
N22    N     0.85610   0.80740   0.46370   0.01267  Uiso   1.00
N23    N     0.60170   0.78430   0.39280   0.01267  Uiso   1.00
N24    N     0.57940   0.90280   0.44350   0.01267  Uiso   1.00
N25    N     0.85610   0.53630   0.34370   0.01267  Uiso   1.00
N26    N     0.60170   0.60720   0.39150   0.01267  Uiso   1.00
N27    N     0.57940   0.55650   0.45930   0.01267  Uiso   1.00
N28    N     0.35610   0.34370   0.80740   0.01267  Uiso   1.00
N29    N     0.10170   0.39150   0.78430   0.01267  Uiso   1.00
N30    N     0.07940   0.45930   0.90280   0.01267  Uiso   1.00
N31    N     0.35610   0.19260   0.53630   0.01267  Uiso   1.00
N32    N     0.10170   0.21570   0.60720   0.01267  Uiso   1.00
N33    N     0.07940   0.09720   0.55650   0.01267  Uiso   1.00
N34    N     0.35610   0.46370   0.65630   0.01267  Uiso   1.00
N35    N     0.10170   0.39280   0.60850   0.01267  Uiso   1.00
N36    N     0.07940   0.44350   0.54070   0.01267  Uiso   1.00
N37    N     0.75000   0.41495   0.58505   0.01267  Uiso   1.00
O1     O     0.82400   0.36490   0.56330   0.01267  Uiso   1.00
O2     O     0.67600   0.43670   0.63510   0.01267  Uiso   1.00
O3     O     0.75000   0.44350   0.55650   0.01267  Uiso   1.00
N38    N     0.75000   0.17010   0.58505   0.01267  Uiso   1.00
O4     O     0.82400   0.19840   0.63510   0.01267  Uiso   1.00
O5     O     0.67600   0.19840   0.56330   0.01267  Uiso   1.00
O6     O     0.75000   0.11300   0.55650   0.01267  Uiso   1.00
N39    N     0.75000   0.41495   0.82990   0.01267  Uiso   1.00
O7     O     0.82400   0.43670   0.80160   0.01267  Uiso   1.00
O8     O     0.67600   0.36490   0.80160   0.01267  Uiso   1.00
O9     O     0.75000   0.44350   0.88700   0.01267  Uiso   1.00
N40    N     0.25000   0.58505   0.41495   0.01267  Uiso   1.00
O10    O     0.32400   0.63510   0.43670   0.01267  Uiso   1.00
O11    O     0.17600   0.56330   0.36490   0.01267  Uiso   1.00
O12    O     0.25000   0.55650   0.44350   0.01267  Uiso   1.00
N41    N     0.25000   0.82990   0.41495   0.01267  Uiso   1.00
O13    O     0.32400   0.80160   0.36490   0.01267  Uiso   1.00
O14    O     0.17600   0.80160   0.43670   0.01267  Uiso   1.00
O15    O     0.25000   0.88700   0.44350   0.01267  Uiso   1.00
N42    N     0.25000   0.58505   0.17010   0.01267  Uiso   1.00
O16    O     0.32400   0.56330   0.19840   0.01267  Uiso   1.00
O17    O     0.17600   0.63510   0.19840   0.01267  Uiso   1.00
O18    O     0.25000   0.55650   0.11300   0.01267  Uiso   1.00
