data_HAJLUA_clean
_audit_creation_date              2014-07-02
_audit_creation_method            'Materials Studio'
_symmetry_space_group_name_H-M    'P1'
_symmetry_Int_Tables_number       1
_symmetry_cell_setting            triclinic
loop_
_symmetry_equiv_pos_as_xyz
  x,y,z
_cell_length_a                    10.9860
_cell_length_b                    15.1094
_cell_length_c                    15.1094
_cell_angle_alpha                 65.6765
_cell_angle_beta                  75.9738
_cell_angle_gamma                 104.0260
loop_
_atom_site_label
_atom_site_type_symbol
_atom_site_fract_x
_atom_site_fract_y
_atom_site_fract_z
_atom_site_U_iso_or_equiv
_atom_site_adp_type
_atom_site_occupancy
Fe1    Fe    0.50000   0.50000   0.50000   0.01267  Uiso   1.00
H1     H     0.23300   0.34480   0.53200   0.01267  Uiso   1.00
H2     H     0.47740   0.68740   0.29200   0.01267  Uiso   1.00
H3     H     0.35190   0.70710   0.26910   0.01267  Uiso   1.00
H4     H     0.44540   0.67620   0.20070   0.01267  Uiso   1.00
H5     H     0.03430   0.24170   0.52970   0.01267  Uiso   1.00
H6     H     0.04390   0.27570   0.41430   0.01267  Uiso   1.00
H7     H     0.95540   0.31000   0.48190   0.01267  Uiso   1.00
H8     H     0.02630   0.71100   0.24240   0.01267  Uiso   1.00
H9     H     0.15960   0.71340   0.26370   0.01267  Uiso   1.00
H10    H     0.01800   0.62860   0.35170   0.01267  Uiso   1.00
H11    H     0.13500   0.37520   0.14450   0.01267  Uiso   1.00
H12    H     0.12780   0.33080   0.26030   0.01267  Uiso   1.00
H13    H     0.26280   0.41860   0.16600   0.01267  Uiso   1.00
H14    H     0.99100   0.62850   0.13950   0.01267  Uiso   1.00
H15    H     0.76700   0.65520   0.46800   0.01267  Uiso   1.00
H16    H     0.52260   0.31260   0.70800   0.01267  Uiso   1.00
H17    H     0.64810   0.29290   0.73090   0.01267  Uiso   1.00
H18    H     0.55460   0.32380   0.79930   0.01267  Uiso   1.00
H19    H     0.96570   0.75830   0.47030   0.01267  Uiso   1.00
H20    H     0.95610   0.72430   0.58570   0.01267  Uiso   1.00
H21    H     0.04460   0.69000   0.51810   0.01267  Uiso   1.00
H22    H     0.97370   0.28900   0.75760   0.01267  Uiso   1.00
H23    H     0.84040   0.28660   0.73630   0.01267  Uiso   1.00
H24    H     0.98200   0.37140   0.64830   0.01267  Uiso   1.00
H25    H     0.86500   0.62480   0.85550   0.01267  Uiso   1.00
H26    H     0.87220   0.66920   0.73970   0.01267  Uiso   1.00
H27    H     0.73720   0.58140   0.83400   0.01267  Uiso   1.00
H28    H     0.00900   0.37150   0.86050   0.01267  Uiso   1.00
C1     C     0.27546   0.34882   0.73564   0.01267  Uiso   1.00
C2     C     0.31890   0.55260   0.34470   0.01267  Uiso   1.00
C3     C     0.20211   0.49242   0.33969   0.01267  Uiso   1.00
C4     C     0.15580   0.39350   0.42650   0.01267  Uiso   1.00
C5     C     0.40610   0.66580   0.27010   0.01267  Uiso   1.00
C6     C     0.03700   0.29680   0.46660   0.01267  Uiso   1.00
C7     C     0.08380   0.59580   0.23640   0.01267  Uiso   1.00
C8     C     0.14229   0.52241   0.26024   0.01267  Uiso   1.00
C9     C     0.11950   0.47460   0.19980   0.01267  Uiso   1.00
C10    C     0.07080   0.66860   0.27710   0.01267  Uiso   1.00
C11    C     0.16520   0.39250   0.19210   0.01267  Uiso   1.00
C12    C     0.72454   0.65118   0.26436   0.01267  Uiso   1.00
C13    C     0.68110   0.44740   0.65530   0.01267  Uiso   1.00
C14    C     0.79789   0.50758   0.66031   0.01267  Uiso   1.00
C15    C     0.84420   0.60650   0.57350   0.01267  Uiso   1.00
C16    C     0.59390   0.33420   0.72990   0.01267  Uiso   1.00
C17    C     0.96300   0.70320   0.53340   0.01267  Uiso   1.00
C18    C     0.91620   0.40420   0.76360   0.01267  Uiso   1.00
C19    C     0.85771   0.47759   0.73976   0.01267  Uiso   1.00
C20    C     0.88050   0.52540   0.80020   0.01267  Uiso   1.00
C21    C     0.92920   0.33140   0.72290   0.01267  Uiso   1.00
C22    C     0.83480   0.60750   0.80790   0.01267  Uiso   1.00
S1     S     0.18420   0.28247   0.86072   0.01267  Uiso   1.00
S2     S     0.81580   0.71753   0.13928   0.01267  Uiso   1.00
N1     N     0.34377   0.39634   0.64723   0.01267  Uiso   1.00
N2     N     0.34173   0.49387   0.42838   0.01267  Uiso   1.00
N3     N     0.24121   0.39784   0.47581   0.01267  Uiso   1.00
N4     N     0.05103   0.51529   0.14230   0.01267  Uiso   1.00
N5     N     0.03216   0.58934   0.16646   0.01267  Uiso   1.00
N6     N     0.65623   0.60366   0.35277   0.01267  Uiso   1.00
N7     N     0.65827   0.50613   0.57162   0.01267  Uiso   1.00
N8     N     0.75879   0.60216   0.52419   0.01267  Uiso   1.00
N9     N     0.94897   0.48471   0.85770   0.01267  Uiso   1.00
N10    N     0.96784   0.41066   0.83354   0.01267  Uiso   1.00
Fe2    Fe    0.00000   0.50000   0.00000   0.01267  Uiso   1.00
H29    H     0.76500   0.53200   0.12320   0.01267  Uiso   1.00
H30    H     0.76940   0.29200   0.02060   0.01267  Uiso   1.00
H31    H     0.62100   0.26910   0.02380   0.01267  Uiso   1.00
H32    H     0.64610   0.20070   0.12310   0.01267  Uiso   1.00
H33    H     0.56400   0.52970   0.22860   0.01267  Uiso   1.00
H34    H     0.45820   0.41430   0.31000   0.01267  Uiso   1.00
H35    H     0.43730   0.48190   0.20810   0.01267  Uiso   1.00
H36    H     0.26870   0.24240   0.04660   0.01267  Uiso   1.00
H37    H     0.42330   0.26370   0.02290   0.01267  Uiso   1.00
H38    H     0.36970   0.35170   0.01970   0.01267  Uiso   1.00
H39    H     0.27950   0.14450   0.48030   0.01267  Uiso   1.00
H40    H     0.38810   0.26030   0.40890   0.01267  Uiso   1.00
H41    H     0.42880   0.16600   0.41540   0.01267  Uiso   1.00
H42    H     0.13050   0.13950   0.23200   0.01267  Uiso   1.00
H43    H     0.23500   0.46800   0.87680   0.01267  Uiso   1.00
H44    H     0.23060   0.70800   0.97940   0.01267  Uiso   1.00
H45    H     0.37900   0.73090   0.97620   0.01267  Uiso   1.00
H46    H     0.35390   0.79930   0.87690   0.01267  Uiso   1.00
H47    H     0.43600   0.47030   0.77140   0.01267  Uiso   1.00
H48    H     0.54180   0.58570   0.69000   0.01267  Uiso   1.00
H49    H     0.56270   0.51810   0.79190   0.01267  Uiso   1.00
H50    H     0.73130   0.75760   0.95340   0.01267  Uiso   1.00
H51    H     0.57670   0.73630   0.97710   0.01267  Uiso   1.00
H52    H     0.63030   0.64830   0.98030   0.01267  Uiso   1.00
H53    H     0.72050   0.85550   0.51970   0.01267  Uiso   1.00
H54    H     0.61190   0.73970   0.59110   0.01267  Uiso   1.00
H55    H     0.57120   0.83400   0.58460   0.01267  Uiso   1.00
H56    H     0.86950   0.86050   0.76800   0.01267  Uiso   1.00
C23    C     0.01110   0.73564   0.91554   0.01267  Uiso   1.00
C24    C     0.66360   0.34470   0.10270   0.01267  Uiso   1.00
C25    C     0.54180   0.33969   0.16789   0.01267  Uiso   1.00
C26    C     0.58230   0.42650   0.18000   0.01267  Uiso   1.00
C27    C     0.67620   0.27010   0.06410   0.01267  Uiso   1.00
C28    C     0.50360   0.46660   0.23660   0.01267  Uiso   1.00
C29    C     0.32020   0.23640   0.16780   0.01267  Uiso   1.00
C30    C     0.40253   0.26024   0.21735   0.01267  Uiso   1.00
C31    C     0.31930   0.19980   0.32560   0.01267  Uiso   1.00
C32    C     0.34790   0.27710   0.05430   0.01267  Uiso   1.00
C33    C     0.35730   0.19210   0.41540   0.01267  Uiso   1.00
C34    C     0.98890   0.26436   0.08446   0.01267  Uiso   1.00
C35    C     0.33640   0.65530   0.89730   0.01267  Uiso   1.00
C36    C     0.45820   0.66031   0.83211   0.01267  Uiso   1.00
C37    C     0.41770   0.57350   0.82000   0.01267  Uiso   1.00
C38    C     0.32380   0.72990   0.93590   0.01267  Uiso   1.00
C39    C     0.49640   0.53340   0.76340   0.01267  Uiso   1.00
C40    C     0.67980   0.76360   0.83220   0.01267  Uiso   1.00
C41    C     0.59747   0.73976   0.78265   0.01267  Uiso   1.00
C42    C     0.68070   0.80020   0.67440   0.01267  Uiso   1.00
C43    C     0.65210   0.72290   0.94570   0.01267  Uiso   1.00
C44    C     0.64270   0.80790   0.58460   0.01267  Uiso   1.00
S3     S     0.04492   0.86072   0.85681   0.01267  Uiso   1.00
S4     S     0.95508   0.13928   0.14319   0.01267  Uiso   1.00
N11    N     0.99100   0.64723   0.95643   0.01267  Uiso   1.00
N12    N     0.77011   0.42838   0.07775   0.01267  Uiso   1.00
N13    N     0.71702   0.47581   0.12635   0.01267  Uiso   1.00
N14    N     0.19333   0.14230   0.34241   0.01267  Uiso   1.00
N15    N     0.19862   0.16646   0.24420   0.01267  Uiso   1.00
N16    N     0.00900   0.35277   0.04357   0.01267  Uiso   1.00
N17    N     0.22989   0.57162   0.92225   0.01267  Uiso   1.00
N18    N     0.28298   0.52419   0.87365   0.01267  Uiso   1.00
N19    N     0.80667   0.85770   0.65759   0.01267  Uiso   1.00
N20    N     0.80138   0.83354   0.75580   0.01267  Uiso   1.00
Fe3    Fe    0.00000   0.00000   0.50000   0.01267  Uiso   1.00
H57    H     0.88820   0.12320   0.34480   0.01267  Uiso   1.00
H58    H     0.79000   0.02060   0.68740   0.01267  Uiso   1.00
H59    H     0.64480   0.02380   0.70710   0.01267  Uiso   1.00
H60    H     0.76920   0.12310   0.67620   0.01267  Uiso   1.00
H61    H     0.79260   0.22860   0.24170   0.01267  Uiso   1.00
H62    H     0.76820   0.31000   0.27570   0.01267  Uiso   1.00
H63    H     0.64540   0.20810   0.31000   0.01267  Uiso   1.00
H64    H     0.31530   0.04660   0.71100   0.01267  Uiso   1.00
H65    H     0.44620   0.02290   0.71340   0.01267  Uiso   1.00
H66    H     0.38940   0.01970   0.62860   0.01267  Uiso   1.00
H67    H     0.75980   0.48030   0.37520   0.01267  Uiso   1.00
H68    H     0.79700   0.40890   0.33080   0.01267  Uiso   1.00
H69    H     0.84420   0.41540   0.41860   0.01267  Uiso   1.00
H70    H     0.36250   0.23200   0.62850   0.01267  Uiso   1.00
H71    H     0.11180   0.87680   0.65520   0.01267  Uiso   1.00
H72    H     0.21000   0.97940   0.31260   0.01267  Uiso   1.00
H73    H     0.35520   0.97620   0.29290   0.01267  Uiso   1.00
H74    H     0.23080   0.87690   0.32380   0.01267  Uiso   1.00
H75    H     0.20740   0.77140   0.75830   0.01267  Uiso   1.00
H76    H     0.23180   0.69000   0.72430   0.01267  Uiso   1.00
H77    H     0.35460   0.79190   0.69000   0.01267  Uiso   1.00
H78    H     0.68470   0.95340   0.28900   0.01267  Uiso   1.00
H79    H     0.55380   0.97710   0.28660   0.01267  Uiso   1.00
H80    H     0.61060   0.98030   0.37140   0.01267  Uiso   1.00
H81    H     0.24020   0.51970   0.62480   0.01267  Uiso   1.00
H82    H     0.20300   0.59110   0.66920   0.01267  Uiso   1.00
H83    H     0.15580   0.58460   0.58140   0.01267  Uiso   1.00
H84    H     0.63750   0.76800   0.37150   0.01267  Uiso   1.00
C45    C     0.92664   0.91554   0.34882   0.01267  Uiso   1.00
C46    C     0.76630   0.10270   0.55260   0.01267  Uiso   1.00
C47    C     0.70969   0.16789   0.49242   0.01267  Uiso   1.00
C48    C     0.76230   0.18000   0.39350   0.01267  Uiso   1.00
C49    C     0.74030   0.06410   0.66580   0.01267  Uiso   1.00
C50    C     0.74020   0.23660   0.29680   0.01267  Uiso   1.00
C51    C     0.48800   0.16780   0.59580   0.01267  Uiso   1.00
C52    C     0.61988   0.21735   0.52241   0.01267  Uiso   1.00
C53    C     0.64490   0.32560   0.47460   0.01267  Uiso   1.00
C54    C     0.40220   0.05430   0.66860   0.01267  Uiso   1.00
C55    C     0.77270   0.41540   0.39250   0.01267  Uiso   1.00
C56    C     0.07336   0.08446   0.65118   0.01267  Uiso   1.00
C57    C     0.23370   0.89730   0.44740   0.01267  Uiso   1.00
C58    C     0.29031   0.83211   0.50758   0.01267  Uiso   1.00
C59    C     0.23770   0.82000   0.60650   0.01267  Uiso   1.00
C60    C     0.25970   0.93590   0.33420   0.01267  Uiso   1.00
C61    C     0.25980   0.76340   0.70320   0.01267  Uiso   1.00
C62    C     0.51200   0.83220   0.40420   0.01267  Uiso   1.00
C63    C     0.38012   0.78265   0.47759   0.01267  Uiso   1.00
C64    C     0.35510   0.67440   0.52540   0.01267  Uiso   1.00
C65    C     0.59780   0.94570   0.33140   0.01267  Uiso   1.00
C66    C     0.22730   0.58460   0.60750   0.01267  Uiso   1.00
S5     S     0.90173   0.85681   0.28247   0.01267  Uiso   1.00
S6     S     0.09827   0.14319   0.71753   0.01267  Uiso   1.00
N21    N     0.94743   0.95643   0.39634   0.01267  Uiso   1.00
N22    N     0.84786   0.07775   0.49387   0.01267  Uiso   1.00
N23    N     0.84337   0.12635   0.39784   0.01267  Uiso   1.00
N24    N     0.53574   0.34241   0.51529   0.01267  Uiso   1.00
N25    N     0.44282   0.24420   0.58934   0.01267  Uiso   1.00
N26    N     0.05257   0.04357   0.60366   0.01267  Uiso   1.00
N27    N     0.15214   0.92225   0.50613   0.01267  Uiso   1.00
N28    N     0.15663   0.87365   0.60216   0.01267  Uiso   1.00
N29    N     0.46426   0.65759   0.48471   0.01267  Uiso   1.00
N30    N     0.55718   0.75580   0.41066   0.01267  Uiso   1.00
