data_HAJLIO_clean
_audit_creation_date              2014-07-02
_audit_creation_method            'Materials Studio'
_symmetry_space_group_name_H-M    'P1'
_symmetry_Int_Tables_number       1
_symmetry_cell_setting            triclinic
loop_
_symmetry_equiv_pos_as_xyz
  x,y,z
_cell_length_a                    10.9463
_cell_length_b                    15.0463
_cell_length_c                    15.0463
_cell_angle_alpha                 65.6827
_cell_angle_beta                  75.9658
_cell_angle_gamma                 104.0340
loop_
_atom_site_label
_atom_site_type_symbol
_atom_site_fract_x
_atom_site_fract_y
_atom_site_fract_z
_atom_site_U_iso_or_equiv
_atom_site_adp_type
_atom_site_occupancy
Fe1    Fe    0.50000   0.50000   0.50000   0.01267  Uiso   1.00
H1     H     0.22950   0.34110   0.53640   0.01267  Uiso   1.00
H2     H     0.47580   0.68890   0.29470   0.01267  Uiso   1.00
H3     H     0.34690   0.70900   0.27160   0.01267  Uiso   1.00
H4     H     0.44310   0.67830   0.20070   0.01267  Uiso   1.00
H5     H     0.03100   0.23750   0.53240   0.01267  Uiso   1.00
H6     H     0.04170   0.27250   0.41410   0.01267  Uiso   1.00
H7     H     0.94980   0.30700   0.48340   0.01267  Uiso   1.00
H8     H     0.02680   0.71520   0.23700   0.01267  Uiso   1.00
H9     H     0.16400   0.71820   0.25770   0.01267  Uiso   1.00
H10    H     0.01910   0.63230   0.34940   0.01267  Uiso   1.00
H11    H     0.12860   0.36920   0.14660   0.01267  Uiso   1.00
H12    H     0.11870   0.32490   0.26580   0.01267  Uiso   1.00
H13    H     0.25910   0.41240   0.16970   0.01267  Uiso   1.00
H14    H     0.99160   0.63160   0.13390   0.01267  Uiso   1.00
H15    H     0.77050   0.65890   0.46360   0.01267  Uiso   1.00
H16    H     0.52420   0.31110   0.70530   0.01267  Uiso   1.00
H17    H     0.65310   0.29100   0.72840   0.01267  Uiso   1.00
H18    H     0.55690   0.32170   0.79930   0.01267  Uiso   1.00
H19    H     0.96900   0.76250   0.46760   0.01267  Uiso   1.00
H20    H     0.95830   0.72750   0.58590   0.01267  Uiso   1.00
H21    H     0.05020   0.69300   0.51660   0.01267  Uiso   1.00
H22    H     0.97320   0.28480   0.76300   0.01267  Uiso   1.00
H23    H     0.83600   0.28180   0.74230   0.01267  Uiso   1.00
H24    H     0.98090   0.36770   0.65060   0.01267  Uiso   1.00
H25    H     0.87140   0.63080   0.85340   0.01267  Uiso   1.00
H26    H     0.88130   0.67510   0.73420   0.01267  Uiso   1.00
H27    H     0.74090   0.58760   0.83030   0.01267  Uiso   1.00
H28    H     0.00840   0.36840   0.86610   0.01267  Uiso   1.00
C1     C     0.27501   0.34864   0.73831   0.01267  Uiso   1.00
C2     C     0.31539   0.55226   0.34679   0.01267  Uiso   1.00
C3     C     0.19975   0.49150   0.34075   0.01267  Uiso   1.00
C4     C     0.15280   0.39172   0.42802   0.01267  Uiso   1.00
C5     C     0.40274   0.66695   0.27203   0.01267  Uiso   1.00
C6     C     0.03371   0.29389   0.46786   0.01267  Uiso   1.00
C7     C     0.08337   0.59690   0.23399   0.01267  Uiso   1.00
C8     C     0.13992   0.52154   0.26018   0.01267  Uiso   1.00
C9     C     0.11615   0.47259   0.19974   0.01267  Uiso   1.00
C10    C     0.07236   0.67203   0.27285   0.01267  Uiso   1.00
C11    C     0.15934   0.38747   0.19505   0.01267  Uiso   1.00
C12    C     0.72499   0.65136   0.26169   0.01267  Uiso   1.00
C13    C     0.68461   0.44774   0.65321   0.01267  Uiso   1.00
C14    C     0.80025   0.50850   0.65925   0.01267  Uiso   1.00
C15    C     0.84720   0.60828   0.57198   0.01267  Uiso   1.00
C16    C     0.59726   0.33305   0.72797   0.01267  Uiso   1.00
C17    C     0.96629   0.70611   0.53214   0.01267  Uiso   1.00
C18    C     0.91663   0.40310   0.76601   0.01267  Uiso   1.00
C19    C     0.86008   0.47846   0.73982   0.01267  Uiso   1.00
C20    C     0.88385   0.52741   0.80026   0.01267  Uiso   1.00
C21    C     0.92764   0.32797   0.72715   0.01267  Uiso   1.00
C22    C     0.84066   0.61253   0.80495   0.01267  Uiso   1.00
S1     S     0.18200   0.28038   0.86505   0.01267  Uiso   1.00
S2     S     0.81800   0.71962   0.13495   0.01267  Uiso   1.00
N1     N     0.34346   0.39652   0.64813   0.01267  Uiso   1.00
N2     N     0.33886   0.49328   0.43100   0.01267  Uiso   1.00
N3     N     0.23805   0.39567   0.47868   0.01267  Uiso   1.00
N4     N     0.04883   0.51429   0.14076   0.01267  Uiso   1.00
N5     N     0.03200   0.59050   0.16300   0.01267  Uiso   1.00
N6     N     0.65654   0.60348   0.35187   0.01267  Uiso   1.00
N7     N     0.66114   0.50672   0.56900   0.01267  Uiso   1.00
N8     N     0.76195   0.60433   0.52132   0.01267  Uiso   1.00
N9     N     0.95117   0.48571   0.85924   0.01267  Uiso   1.00
N10    N     0.96800   0.40950   0.83700   0.01267  Uiso   1.00
Fe2    Fe    0.00000   0.50000   0.00000   0.01267  Uiso   1.00
H29    H     0.76590   0.53640   0.12250   0.01267  Uiso   1.00
H30    H     0.77050   0.29470   0.01640   0.01267  Uiso   1.00
H31    H     0.61850   0.27160   0.01940   0.01267  Uiso   1.00
H32    H     0.64380   0.20070   0.12100   0.01267  Uiso   1.00
H33    H     0.56340   0.53240   0.23010   0.01267  Uiso   1.00
H34    H     0.45580   0.41410   0.31340   0.01267  Uiso   1.00
H35    H     0.43320   0.48340   0.20960   0.01267  Uiso   1.00
H36    H     0.26380   0.23700   0.04780   0.01267  Uiso   1.00
H37    H     0.42170   0.25770   0.02410   0.01267  Uiso   1.00
H38    H     0.36850   0.34940   0.01830   0.01267  Uiso   1.00
H39    H     0.27520   0.14660   0.48420   0.01267  Uiso   1.00
H40    H     0.38450   0.26580   0.40930   0.01267  Uiso   1.00
H41    H     0.42880   0.16970   0.41790   0.01267  Uiso   1.00
H42    H     0.12550   0.13390   0.23450   0.01267  Uiso   1.00
H43    H     0.23410   0.46360   0.87750   0.01267  Uiso   1.00
H44    H     0.22950   0.70530   0.98360   0.01267  Uiso   1.00
H45    H     0.38150   0.72840   0.98060   0.01267  Uiso   1.00
H46    H     0.35620   0.79930   0.87900   0.01267  Uiso   1.00
H47    H     0.43660   0.46760   0.76990   0.01267  Uiso   1.00
H48    H     0.54420   0.58590   0.68660   0.01267  Uiso   1.00
H49    H     0.56680   0.51660   0.79040   0.01267  Uiso   1.00
H50    H     0.73620   0.76300   0.95220   0.01267  Uiso   1.00
H51    H     0.57830   0.74230   0.97590   0.01267  Uiso   1.00
H52    H     0.63150   0.65060   0.98170   0.01267  Uiso   1.00
H53    H     0.72480   0.85340   0.51580   0.01267  Uiso   1.00
H54    H     0.61550   0.73420   0.59070   0.01267  Uiso   1.00
H55    H     0.57120   0.83030   0.58210   0.01267  Uiso   1.00
H56    H     0.87450   0.86610   0.76550   0.01267  Uiso   1.00
C23    C     0.01332   0.73831   0.91305   0.01267  Uiso   1.00
C24    C     0.66218   0.34679   0.10095   0.01267  Uiso   1.00
C25    C     0.54050   0.34075   0.16775   0.01267  Uiso   1.00
C26    C     0.58082   0.42802   0.18026   0.01267  Uiso   1.00
C27    C     0.67477   0.27203   0.06102   0.01267  Uiso   1.00
C28    C     0.50157   0.46786   0.23825   0.01267  Uiso   1.00
C29    C     0.31736   0.23399   0.16911   0.01267  Uiso   1.00
C30    C     0.40010   0.26018   0.21828   0.01267  Uiso   1.00
C31    C     0.31589   0.19974   0.32767   0.01267  Uiso   1.00
C32    C     0.34521   0.27285   0.05512   0.01267  Uiso   1.00
C33    C     0.35439   0.19505   0.41748   0.01267  Uiso   1.00
C34    C     0.98668   0.26169   0.08695   0.01267  Uiso   1.00
C35    C     0.33782   0.65321   0.89905   0.01267  Uiso   1.00
C36    C     0.45950   0.65925   0.83225   0.01267  Uiso   1.00
C37    C     0.41918   0.57198   0.81974   0.01267  Uiso   1.00
C38    C     0.32523   0.72797   0.93898   0.01267  Uiso   1.00
C39    C     0.49843   0.53214   0.76175   0.01267  Uiso   1.00
C40    C     0.68264   0.76601   0.83089   0.01267  Uiso   1.00
C41    C     0.59990   0.73982   0.78172   0.01267  Uiso   1.00
C42    C     0.68411   0.80026   0.67233   0.01267  Uiso   1.00
C43    C     0.65479   0.72715   0.94488   0.01267  Uiso   1.00
C44    C     0.64561   0.80495   0.58252   0.01267  Uiso   1.00
S3     S     0.04705   0.86505   0.85457   0.01267  Uiso   1.00
S4     S     0.95295   0.13495   0.14543   0.01267  Uiso   1.00
N11    N     0.99159   0.64813   0.95535   0.01267  Uiso   1.00
N12    N     0.76986   0.43100   0.07572   0.01267  Uiso   1.00
N13    N     0.71673   0.47868   0.12565   0.01267  Uiso   1.00
N14    N     0.18959   0.14076   0.34495   0.01267  Uiso   1.00
N15    N     0.19500   0.16300   0.24650   0.01267  Uiso   1.00
N16    N     0.00841   0.35187   0.04465   0.01267  Uiso   1.00
N17    N     0.23014   0.56900   0.92428   0.01267  Uiso   1.00
N18    N     0.28327   0.52132   0.87435   0.01267  Uiso   1.00
N19    N     0.81041   0.85924   0.65505   0.01267  Uiso   1.00
N20    N     0.80500   0.83700   0.75350   0.01267  Uiso   1.00
Fe3    Fe    0.00000   0.00000   0.50000   0.01267  Uiso   1.00
H57    H     0.88840   0.12250   0.34110   0.01267  Uiso   1.00
H58    H     0.78690   0.01640   0.68890   0.01267  Uiso   1.00
H59    H     0.63790   0.01940   0.70900   0.01267  Uiso   1.00
H60    H     0.76480   0.12100   0.67830   0.01267  Uiso   1.00
H61    H     0.79350   0.23010   0.23750   0.01267  Uiso   1.00
H62    H     0.76920   0.31340   0.27250   0.01267  Uiso   1.00
H63    H     0.64280   0.20960   0.30700   0.01267  Uiso   1.00
H64    H     0.31160   0.04780   0.71520   0.01267  Uiso   1.00
H65    H     0.44580   0.02410   0.71820   0.01267  Uiso   1.00
H66    H     0.38680   0.01830   0.63230   0.01267  Uiso   1.00
H67    H     0.75940   0.48420   0.36920   0.01267  Uiso   1.00
H68    H     0.79380   0.40930   0.32490   0.01267  Uiso   1.00
H69    H     0.84670   0.41790   0.41240   0.01267  Uiso   1.00
H70    H     0.36000   0.23450   0.63160   0.01267  Uiso   1.00
H71    H     0.11160   0.87750   0.65890   0.01267  Uiso   1.00
H72    H     0.21310   0.98360   0.31110   0.01267  Uiso   1.00
H73    H     0.36210   0.98060   0.29100   0.01267  Uiso   1.00
H74    H     0.23520   0.87900   0.32170   0.01267  Uiso   1.00
H75    H     0.20650   0.76990   0.76250   0.01267  Uiso   1.00
H76    H     0.23080   0.68660   0.72750   0.01267  Uiso   1.00
H77    H     0.35720   0.79040   0.69300   0.01267  Uiso   1.00
H78    H     0.68840   0.95220   0.28480   0.01267  Uiso   1.00
H79    H     0.55420   0.97590   0.28180   0.01267  Uiso   1.00
H80    H     0.61320   0.98170   0.36770   0.01267  Uiso   1.00
H81    H     0.24060   0.51580   0.63080   0.01267  Uiso   1.00
H82    H     0.20620   0.59070   0.67510   0.01267  Uiso   1.00
H83    H     0.15330   0.58210   0.58760   0.01267  Uiso   1.00
H84    H     0.64000   0.76550   0.36840   0.01267  Uiso   1.00
C45    C     0.92637   0.91305   0.34864   0.01267  Uiso   1.00
C46    C     0.76313   0.10095   0.55226   0.01267  Uiso   1.00
C47    C     0.70825   0.16775   0.49150   0.01267  Uiso   1.00
C48    C     0.76108   0.18026   0.39172   0.01267  Uiso   1.00
C49    C     0.73579   0.06102   0.66695   0.01267  Uiso   1.00
C50    C     0.73982   0.23825   0.29389   0.01267  Uiso   1.00
C51    C     0.48647   0.16911   0.59690   0.01267  Uiso   1.00
C52    C     0.61838   0.21828   0.52154   0.01267  Uiso   1.00
C53    C     0.64356   0.32767   0.47259   0.01267  Uiso   1.00
C54    C     0.40033   0.05512   0.67203   0.01267  Uiso   1.00
C55    C     0.77187   0.41748   0.38747   0.01267  Uiso   1.00
C56    C     0.07363   0.08695   0.65136   0.01267  Uiso   1.00
C57    C     0.23687   0.89905   0.44774   0.01267  Uiso   1.00
C58    C     0.29175   0.83225   0.50850   0.01267  Uiso   1.00
C59    C     0.23892   0.81974   0.60828   0.01267  Uiso   1.00
C60    C     0.26421   0.93898   0.33305   0.01267  Uiso   1.00
C61    C     0.26018   0.76175   0.70611   0.01267  Uiso   1.00
C62    C     0.51353   0.83089   0.40310   0.01267  Uiso   1.00
C63    C     0.38162   0.78172   0.47846   0.01267  Uiso   1.00
C64    C     0.35644   0.67233   0.52741   0.01267  Uiso   1.00
C65    C     0.59967   0.94488   0.32797   0.01267  Uiso   1.00
C66    C     0.22813   0.58252   0.61253   0.01267  Uiso   1.00
S5     S     0.90162   0.85457   0.28038   0.01267  Uiso   1.00
S6     S     0.09838   0.14543   0.71962   0.01267  Uiso   1.00
N21    N     0.94694   0.95535   0.39652   0.01267  Uiso   1.00
N22    N     0.84558   0.07572   0.49328   0.01267  Uiso   1.00
N23    N     0.84238   0.12565   0.39567   0.01267  Uiso   1.00
N24    N     0.53454   0.34495   0.51429   0.01267  Uiso   1.00
N25    N     0.44150   0.24650   0.59050   0.01267  Uiso   1.00
N26    N     0.05306   0.04465   0.60348   0.01267  Uiso   1.00
N27    N     0.15442   0.92428   0.50672   0.01267  Uiso   1.00
N28    N     0.15762   0.87435   0.60433   0.01267  Uiso   1.00
N29    N     0.46546   0.65505   0.48571   0.01267  Uiso   1.00
N30    N     0.55850   0.75350   0.40950   0.01267  Uiso   1.00
