data_HAJLEK_clean
_audit_creation_date              2014-07-02
_audit_creation_method            'Materials Studio'
_symmetry_space_group_name_H-M    'P1'
_symmetry_Int_Tables_number       1
_symmetry_cell_setting            triclinic
loop_
_symmetry_equiv_pos_as_xyz
  x,y,z
_cell_length_a                    10.9620
_cell_length_b                    15.0475
_cell_length_c                    15.0475
_cell_angle_alpha                 65.6978
_cell_angle_beta                  75.9463
_cell_angle_gamma                 104.0540
loop_
_atom_site_label
_atom_site_type_symbol
_atom_site_fract_x
_atom_site_fract_y
_atom_site_fract_z
_atom_site_U_iso_or_equiv
_atom_site_adp_type
_atom_site_occupancy
Fe1    Fe    0.50000   0.50000   0.50000   0.01267  Uiso   1.00
H1     H     0.23110   0.34070   0.53630   0.01267  Uiso   1.00
H2     H     0.47540   0.68930   0.29390   0.01267  Uiso   1.00
H3     H     0.34570   0.70830   0.27180   0.01267  Uiso   1.00
H4     H     0.44200   0.67800   0.20040   0.01267  Uiso   1.00
H5     H     0.03140   0.23680   0.53290   0.01267  Uiso   1.00
H6     H     0.04260   0.27210   0.41430   0.01267  Uiso   1.00
H7     H     0.95050   0.30640   0.48370   0.01267  Uiso   1.00
H8     H     0.02790   0.71460   0.23910   0.01267  Uiso   1.00
H9     H     0.16500   0.71670   0.25950   0.01267  Uiso   1.00
H10    H     0.02040   0.63080   0.35090   0.01267  Uiso   1.00
H11    H     0.12930   0.36890   0.14630   0.01267  Uiso   1.00
H12    H     0.11970   0.32480   0.26540   0.01267  Uiso   1.00
H13    H     0.25970   0.41290   0.16900   0.01267  Uiso   1.00
H14    H     0.99120   0.63180   0.13500   0.01267  Uiso   1.00
H15    H     0.76890   0.65930   0.46370   0.01267  Uiso   1.00
H16    H     0.52460   0.31070   0.70610   0.01267  Uiso   1.00
H17    H     0.65430   0.29170   0.72820   0.01267  Uiso   1.00
H18    H     0.55800   0.32200   0.79960   0.01267  Uiso   1.00
H19    H     0.96860   0.76320   0.46710   0.01267  Uiso   1.00
H20    H     0.95740   0.72790   0.58570   0.01267  Uiso   1.00
H21    H     0.04950   0.69360   0.51630   0.01267  Uiso   1.00
H22    H     0.97210   0.28540   0.76090   0.01267  Uiso   1.00
H23    H     0.83500   0.28330   0.74050   0.01267  Uiso   1.00
H24    H     0.97960   0.36920   0.64910   0.01267  Uiso   1.00
H25    H     0.87070   0.63110   0.85370   0.01267  Uiso   1.00
H26    H     0.88030   0.67520   0.73460   0.01267  Uiso   1.00
H27    H     0.74030   0.58710   0.83100   0.01267  Uiso   1.00
H28    H     0.00880   0.36820   0.86500   0.01267  Uiso   1.00
C1     C     0.27336   0.34646   0.73928   0.01267  Uiso   1.00
C2     C     0.31587   0.55200   0.34689   0.01267  Uiso   1.00
C3     C     0.20004   0.49044   0.34122   0.01267  Uiso   1.00
C4     C     0.15324   0.39121   0.42859   0.01267  Uiso   1.00
C5     C     0.40225   0.66690   0.27165   0.01267  Uiso   1.00
C6     C     0.03450   0.29350   0.46810   0.01267  Uiso   1.00
C7     C     0.08387   0.59627   0.23426   0.01267  Uiso   1.00
C8     C     0.14038   0.52142   0.26048   0.01267  Uiso   1.00
C9     C     0.11588   0.47224   0.19960   0.01267  Uiso   1.00
C10    C     0.07345   0.67110   0.27435   0.01267  Uiso   1.00
C11    C     0.15998   0.38746   0.19462   0.01267  Uiso   1.00
C12    C     0.72664   0.65354   0.26072   0.01267  Uiso   1.00
C13    C     0.68413   0.44800   0.65311   0.01267  Uiso   1.00
C14    C     0.79996   0.50956   0.65878   0.01267  Uiso   1.00
C15    C     0.84676   0.60879   0.57141   0.01267  Uiso   1.00
C16    C     0.59775   0.33310   0.72835   0.01267  Uiso   1.00
C17    C     0.96550   0.70650   0.53190   0.01267  Uiso   1.00
C18    C     0.91613   0.40373   0.76574   0.01267  Uiso   1.00
C19    C     0.85962   0.47858   0.73952   0.01267  Uiso   1.00
C20    C     0.88412   0.52776   0.80040   0.01267  Uiso   1.00
C21    C     0.92655   0.32890   0.72565   0.01267  Uiso   1.00
C22    C     0.84002   0.61254   0.80538   0.01267  Uiso   1.00
S1     S     0.17972   0.27788   0.86573   0.01267  Uiso   1.00
S2     S     0.82028   0.72212   0.13427   0.01267  Uiso   1.00
N1     N     0.34247   0.39546   0.64935   0.01267  Uiso   1.00
N2     N     0.33948   0.49258   0.43144   0.01267  Uiso   1.00
N3     N     0.23920   0.39540   0.47880   0.01267  Uiso   1.00
N4     N     0.04964   0.51439   0.14047   0.01267  Uiso   1.00
N5     N     0.03200   0.59073   0.16353   0.01267  Uiso   1.00
N6     N     0.65753   0.60454   0.35065   0.01267  Uiso   1.00
N7     N     0.66052   0.50742   0.56856   0.01267  Uiso   1.00
N8     N     0.76080   0.60460   0.52120   0.01267  Uiso   1.00
N9     N     0.95036   0.48561   0.85953   0.01267  Uiso   1.00
N10    N     0.96800   0.40927   0.83647   0.01267  Uiso   1.00
Fe2    Fe    0.00000   0.50000   0.00000   0.01267  Uiso   1.00
H29    H     0.76740   0.53630   0.12300   0.01267  Uiso   1.00
H30    H     0.76930   0.29390   0.01680   0.01267  Uiso   1.00
H31    H     0.61750   0.27180   0.01990   0.01267  Uiso   1.00
H32    H     0.64240   0.20040   0.12160   0.01267  Uiso   1.00
H33    H     0.56430   0.53290   0.23030   0.01267  Uiso   1.00
H34    H     0.45690   0.41430   0.31360   0.01267  Uiso   1.00
H35    H     0.43420   0.48370   0.20990   0.01267  Uiso   1.00
H36    H     0.26700   0.23910   0.04630   0.01267  Uiso   1.00
H37    H     0.42450   0.25950   0.02380   0.01267  Uiso   1.00
H38    H     0.37130   0.35090   0.01830   0.01267  Uiso   1.00
H39    H     0.27560   0.14630   0.48480   0.01267  Uiso   1.00
H40    H     0.38510   0.26540   0.40980   0.01267  Uiso   1.00
H41    H     0.42870   0.16900   0.41810   0.01267  Uiso   1.00
H42    H     0.12620   0.13500   0.23320   0.01267  Uiso   1.00
H43    H     0.23260   0.46370   0.87700   0.01267  Uiso   1.00
H44    H     0.23070   0.70610   0.98320   0.01267  Uiso   1.00
H45    H     0.38250   0.72820   0.98010   0.01267  Uiso   1.00
H46    H     0.35760   0.79960   0.87840   0.01267  Uiso   1.00
H47    H     0.43570   0.46710   0.76970   0.01267  Uiso   1.00
H48    H     0.54310   0.58570   0.68640   0.01267  Uiso   1.00
H49    H     0.56580   0.51630   0.79010   0.01267  Uiso   1.00
H50    H     0.73300   0.76090   0.95370   0.01267  Uiso   1.00
H51    H     0.57550   0.74050   0.97620   0.01267  Uiso   1.00
H52    H     0.62870   0.64910   0.98170   0.01267  Uiso   1.00
H53    H     0.72440   0.85370   0.51520   0.01267  Uiso   1.00
H54    H     0.61490   0.73460   0.59020   0.01267  Uiso   1.00
H55    H     0.57130   0.83100   0.58190   0.01267  Uiso   1.00
H56    H     0.87380   0.86500   0.76680   0.01267  Uiso   1.00
C23    C     0.01264   0.73928   0.91426   0.01267  Uiso   1.00
C24    C     0.66276   0.34689   0.10111   0.01267  Uiso   1.00
C25    C     0.54126   0.34122   0.16834   0.01267  Uiso   1.00
C26    C     0.58183   0.42859   0.18020   0.01267  Uiso   1.00
C27    C     0.67390   0.27165   0.06145   0.01267  Uiso   1.00
C28    C     0.50260   0.46810   0.23840   0.01267  Uiso   1.00
C29    C     0.31813   0.23426   0.16947   0.01267  Uiso   1.00
C30    C     0.40086   0.26048   0.21810   0.01267  Uiso   1.00
C31    C     0.31548   0.19960   0.32816   0.01267  Uiso   1.00
C32    C     0.34780   0.27435   0.05455   0.01267  Uiso   1.00
C33    C     0.35460   0.19462   0.41792   0.01267  Uiso   1.00
C34    C     0.98736   0.26072   0.08574   0.01267  Uiso   1.00
C35    C     0.33724   0.65311   0.89889   0.01267  Uiso   1.00
C36    C     0.45874   0.65878   0.83166   0.01267  Uiso   1.00
C37    C     0.41817   0.57141   0.81980   0.01267  Uiso   1.00
C38    C     0.32610   0.72835   0.93855   0.01267  Uiso   1.00
C39    C     0.49740   0.53190   0.76160   0.01267  Uiso   1.00
C40    C     0.68187   0.76574   0.83053   0.01267  Uiso   1.00
C41    C     0.59914   0.73952   0.78190   0.01267  Uiso   1.00
C42    C     0.68452   0.80040   0.67184   0.01267  Uiso   1.00
C43    C     0.65220   0.72565   0.94545   0.01267  Uiso   1.00
C44    C     0.64540   0.80538   0.58208   0.01267  Uiso   1.00
S3     S     0.04545   0.86573   0.85639   0.01267  Uiso   1.00
S4     S     0.95455   0.13427   0.14361   0.01267  Uiso   1.00
N11    N     0.99182   0.64935   0.95519   0.01267  Uiso   1.00
N12    N     0.77092   0.43144   0.07598   0.01267  Uiso   1.00
N13    N     0.71800   0.47880   0.12580   0.01267  Uiso   1.00
N14    N     0.19011   0.14047   0.34514   0.01267  Uiso   1.00
N15    N     0.19553   0.16353   0.24574   0.01267  Uiso   1.00
N16    N     0.00818   0.35065   0.04481   0.01267  Uiso   1.00
N17    N     0.22908   0.56856   0.92402   0.01267  Uiso   1.00
N18    N     0.28200   0.52120   0.87420   0.01267  Uiso   1.00
N19    N     0.80989   0.85953   0.65486   0.01267  Uiso   1.00
N20    N     0.80447   0.83647   0.75426   0.01267  Uiso   1.00
Fe3    Fe    0.00000   0.00000   0.50000   0.01267  Uiso   1.00
H57    H     0.89040   0.12300   0.34070   0.01267  Uiso   1.00
H58    H     0.78610   0.01680   0.68930   0.01267  Uiso   1.00
H59    H     0.63740   0.01990   0.70830   0.01267  Uiso   1.00
H60    H     0.76400   0.12160   0.67800   0.01267  Uiso   1.00
H61    H     0.79460   0.23030   0.23680   0.01267  Uiso   1.00
H62    H     0.77050   0.31360   0.27210   0.01267  Uiso   1.00
H63    H     0.64410   0.20990   0.30640   0.01267  Uiso   1.00
H64    H     0.31330   0.04630   0.71460   0.01267  Uiso   1.00
H65    H     0.44830   0.02380   0.71670   0.01267  Uiso   1.00
H66    H     0.38960   0.01830   0.63080   0.01267  Uiso   1.00
H67    H     0.76040   0.48480   0.36890   0.01267  Uiso   1.00
H68    H     0.79490   0.40980   0.32480   0.01267  Uiso   1.00
H69    H     0.84680   0.41810   0.41290   0.01267  Uiso   1.00
H70    H     0.35940   0.23320   0.63180   0.01267  Uiso   1.00
H71    H     0.10960   0.87700   0.65930   0.01267  Uiso   1.00
H72    H     0.21390   0.98320   0.31070   0.01267  Uiso   1.00
H73    H     0.36260   0.98010   0.29170   0.01267  Uiso   1.00
H74    H     0.23600   0.87840   0.32200   0.01267  Uiso   1.00
H75    H     0.20540   0.76970   0.76320   0.01267  Uiso   1.00
H76    H     0.22950   0.68640   0.72790   0.01267  Uiso   1.00
H77    H     0.35590   0.79010   0.69360   0.01267  Uiso   1.00
H78    H     0.68670   0.95370   0.28540   0.01267  Uiso   1.00
H79    H     0.55170   0.97620   0.28330   0.01267  Uiso   1.00
H80    H     0.61040   0.98170   0.36920   0.01267  Uiso   1.00
H81    H     0.23960   0.51520   0.63110   0.01267  Uiso   1.00
H82    H     0.20510   0.59020   0.67520   0.01267  Uiso   1.00
H83    H     0.15320   0.58190   0.58710   0.01267  Uiso   1.00
H84    H     0.64060   0.76680   0.36820   0.01267  Uiso   1.00
C45    C     0.92690   0.91426   0.34646   0.01267  Uiso   1.00
C46    C     0.76387   0.10111   0.55200   0.01267  Uiso   1.00
C47    C     0.70960   0.16834   0.49044   0.01267  Uiso   1.00
C48    C     0.76203   0.18020   0.39121   0.01267  Uiso   1.00
C49    C     0.73535   0.06145   0.66690   0.01267  Uiso   1.00
C50    C     0.74100   0.23840   0.29350   0.01267  Uiso   1.00
C51    C     0.48760   0.16947   0.59627   0.01267  Uiso   1.00
C52    C     0.61896   0.21810   0.52142   0.01267  Uiso   1.00
C53    C     0.64364   0.32816   0.47224   0.01267  Uiso   1.00
C54    C     0.40235   0.05455   0.67110   0.01267  Uiso   1.00
C55    C     0.77252   0.41792   0.38746   0.01267  Uiso   1.00
C56    C     0.07310   0.08574   0.65354   0.01267  Uiso   1.00
C57    C     0.23613   0.89889   0.44800   0.01267  Uiso   1.00
C58    C     0.29040   0.83166   0.50956   0.01267  Uiso   1.00
C59    C     0.23797   0.81980   0.60879   0.01267  Uiso   1.00
C60    C     0.26465   0.93855   0.33310   0.01267  Uiso   1.00
C61    C     0.25900   0.76160   0.70650   0.01267  Uiso   1.00
C62    C     0.51240   0.83053   0.40373   0.01267  Uiso   1.00
C63    C     0.38104   0.78190   0.47858   0.01267  Uiso   1.00
C64    C     0.35636   0.67184   0.52776   0.01267  Uiso   1.00
C65    C     0.59765   0.94545   0.32890   0.01267  Uiso   1.00
C66    C     0.22748   0.58208   0.61254   0.01267  Uiso   1.00
S5     S     0.90184   0.85639   0.27788   0.01267  Uiso   1.00
S6     S     0.09816   0.14361   0.72212   0.01267  Uiso   1.00
N21    N     0.94701   0.95519   0.39546   0.01267  Uiso   1.00
N22    N     0.84690   0.07598   0.49258   0.01267  Uiso   1.00
N23    N     0.84380   0.12580   0.39540   0.01267  Uiso   1.00
N24    N     0.53525   0.34514   0.51439   0.01267  Uiso   1.00
N25    N     0.44127   0.24574   0.59073   0.01267  Uiso   1.00
N26    N     0.05299   0.04481   0.60454   0.01267  Uiso   1.00
N27    N     0.15310   0.92402   0.50742   0.01267  Uiso   1.00
N28    N     0.15620   0.87420   0.60460   0.01267  Uiso   1.00
N29    N     0.46475   0.65486   0.48561   0.01267  Uiso   1.00
N30    N     0.55873   0.75426   0.40927   0.01267  Uiso   1.00
