data_HAJLOU_clean
_audit_creation_date              2014-07-02
_audit_creation_method            'Materials Studio'
_symmetry_space_group_name_H-M    'P1'
_symmetry_Int_Tables_number       1
_symmetry_cell_setting            triclinic
loop_
_symmetry_equiv_pos_as_xyz
  x,y,z
_cell_length_a                    10.9672
_cell_length_b                    15.0587
_cell_length_c                    15.0587
_cell_angle_alpha                 65.6948
_cell_angle_beta                  75.9502
_cell_angle_gamma                 104.0500
loop_
_atom_site_label
_atom_site_type_symbol
_atom_site_fract_x
_atom_site_fract_y
_atom_site_fract_z
_atom_site_U_iso_or_equiv
_atom_site_adp_type
_atom_site_occupancy
Fe1    Fe    0.50000   0.50000   0.50000   0.01267  Uiso   1.00
H1     H     0.23080   0.34160   0.53600   0.01267  Uiso   1.00
H2     H     0.47640   0.68910   0.29400   0.01267  Uiso   1.00
H3     H     0.34780   0.70920   0.27090   0.01267  Uiso   1.00
H4     H     0.44350   0.67800   0.20040   0.01267  Uiso   1.00
H5     H     0.03170   0.23730   0.53190   0.01267  Uiso   1.00
H6     H     0.04320   0.27290   0.41330   0.01267  Uiso   1.00
H7     H     0.95090   0.30680   0.48290   0.01267  Uiso   1.00
H8     H     0.02830   0.71580   0.23670   0.01267  Uiso   1.00
H9     H     0.16540   0.71880   0.25710   0.01267  Uiso   1.00
H10    H     0.02080   0.63300   0.34890   0.01267  Uiso   1.00
H11    H     0.12900   0.36920   0.14660   0.01267  Uiso   1.00
H12    H     0.11880   0.32480   0.26600   0.01267  Uiso   1.00
H13    H     0.25910   0.41230   0.16990   0.01267  Uiso   1.00
H14    H     0.99130   0.63130   0.13420   0.01267  Uiso   1.00
H15    H     0.76920   0.65840   0.46400   0.01267  Uiso   1.00
H16    H     0.52360   0.31090   0.70600   0.01267  Uiso   1.00
H17    H     0.65220   0.29080   0.72910   0.01267  Uiso   1.00
H18    H     0.55650   0.32200   0.79960   0.01267  Uiso   1.00
H19    H     0.96830   0.76270   0.46810   0.01267  Uiso   1.00
H20    H     0.95680   0.72710   0.58670   0.01267  Uiso   1.00
H21    H     0.04910   0.69320   0.51710   0.01267  Uiso   1.00
H22    H     0.97170   0.28420   0.76330   0.01267  Uiso   1.00
H23    H     0.83460   0.28120   0.74290   0.01267  Uiso   1.00
H24    H     0.97920   0.36700   0.65110   0.01267  Uiso   1.00
H25    H     0.87100   0.63080   0.85340   0.01267  Uiso   1.00
H26    H     0.88120   0.67520   0.73400   0.01267  Uiso   1.00
H27    H     0.74090   0.58770   0.83010   0.01267  Uiso   1.00
H28    H     0.00870   0.36870   0.86580   0.01267  Uiso   1.00
C1     C     0.27458   0.34831   0.73867   0.01267  Uiso   1.00
C2     C     0.31601   0.55259   0.34646   0.01267  Uiso   1.00
C3     C     0.20026   0.49137   0.34059   0.01267  Uiso   1.00
C4     C     0.15362   0.39150   0.42804   0.01267  Uiso   1.00
C5     C     0.40344   0.66705   0.27153   0.01267  Uiso   1.00
C6     C     0.03477   0.29388   0.46737   0.01267  Uiso   1.00
C7     C     0.08465   0.59721   0.23346   0.01267  Uiso   1.00
C8     C     0.14014   0.52145   0.26003   0.01267  Uiso   1.00
C9     C     0.11641   0.47245   0.19972   0.01267  Uiso   1.00
C10    C     0.07382   0.67266   0.27240   0.01267  Uiso   1.00
C11    C     0.15950   0.38745   0.19515   0.01267  Uiso   1.00
C12    C     0.72542   0.65169   0.26133   0.01267  Uiso   1.00
C13    C     0.68399   0.44741   0.65354   0.01267  Uiso   1.00
C14    C     0.79974   0.50863   0.65941   0.01267  Uiso   1.00
C15    C     0.84638   0.60850   0.57196   0.01267  Uiso   1.00
C16    C     0.59656   0.33295   0.72847   0.01267  Uiso   1.00
C17    C     0.96523   0.70612   0.53263   0.01267  Uiso   1.00
C18    C     0.91535   0.40279   0.76654   0.01267  Uiso   1.00
C19    C     0.85986   0.47855   0.73997   0.01267  Uiso   1.00
C20    C     0.88359   0.52755   0.80028   0.01267  Uiso   1.00
C21    C     0.92618   0.32734   0.72760   0.01267  Uiso   1.00
C22    C     0.84050   0.61255   0.80485   0.01267  Uiso   1.00
S1     S     0.18150   0.28057   0.86536   0.01267  Uiso   1.00
S2     S     0.81850   0.71943   0.13464   0.01267  Uiso   1.00
N1     N     0.34324   0.39629   0.64853   0.01267  Uiso   1.00
N2     N     0.33935   0.49339   0.43072   0.01267  Uiso   1.00
N3     N     0.23906   0.39598   0.47836   0.01267  Uiso   1.00
N4     N     0.04913   0.51418   0.14068   0.01267  Uiso   1.00
N5     N     0.03222   0.59056   0.16285   0.01267  Uiso   1.00
N6     N     0.65676   0.60371   0.35147   0.01267  Uiso   1.00
N7     N     0.66065   0.50661   0.56928   0.01267  Uiso   1.00
N8     N     0.76094   0.60402   0.52164   0.01267  Uiso   1.00
N9     N     0.95087   0.48582   0.85932   0.01267  Uiso   1.00
N10    N     0.96778   0.40944   0.83715   0.01267  Uiso   1.00
Fe2    Fe    0.00000   0.50000  -0.00000   0.01267  Uiso   1.00
H29    H     0.76680   0.53600   0.12240   0.01267  Uiso   1.00
H30    H     0.77040   0.29400   0.01690   0.01267  Uiso   1.00
H31    H     0.61870   0.27090   0.01990   0.01267  Uiso   1.00
H32    H     0.64390   0.20040   0.12160   0.01267  Uiso   1.00
H33    H     0.56360   0.53190   0.23080   0.01267  Uiso   1.00
H34    H     0.45650   0.41330   0.31380   0.01267  Uiso   1.00
H35    H     0.43380   0.48290   0.21030   0.01267  Uiso   1.00
H36    H     0.26500   0.23670   0.04750   0.01267  Uiso   1.00
H37    H     0.42250   0.25710   0.02410   0.01267  Uiso   1.00
H38    H     0.36970   0.34890   0.01810   0.01267  Uiso   1.00
H39    H     0.27560   0.14660   0.48420   0.01267  Uiso   1.00
H40    H     0.38480   0.26600   0.40920   0.01267  Uiso   1.00
H41    H     0.42900   0.16990   0.41780   0.01267  Uiso   1.00
H42    H     0.12550   0.13420   0.23450   0.01267  Uiso   1.00
H43    H     0.23320   0.46400   0.87760   0.01267  Uiso   1.00
H44    H     0.22960   0.70600   0.98310   0.01267  Uiso   1.00
H45    H     0.38130   0.72910   0.98010   0.01267  Uiso   1.00
H46    H     0.35610   0.79960   0.87840   0.01267  Uiso   1.00
H47    H     0.43640   0.46810   0.76920   0.01267  Uiso   1.00
H48    H     0.54350   0.58670   0.68620   0.01267  Uiso   1.00
H49    H     0.56620   0.51710   0.78970   0.01267  Uiso   1.00
H50    H     0.73500   0.76330   0.95250   0.01267  Uiso   1.00
H51    H     0.57750   0.74290   0.97590   0.01267  Uiso   1.00
H52    H     0.63030   0.65110   0.98190   0.01267  Uiso   1.00
H53    H     0.72440   0.85340   0.51580   0.01267  Uiso   1.00
H54    H     0.61520   0.73400   0.59080   0.01267  Uiso   1.00
H55    H     0.57100   0.83010   0.58220   0.01267  Uiso   1.00
H56    H     0.87450   0.86580   0.76550   0.01267  Uiso   1.00
C23    C     0.01325   0.73867   0.91302   0.01267  Uiso   1.00
C24    C     0.66247   0.34646   0.10095   0.01267  Uiso   1.00
C25    C     0.54085   0.34059   0.16804   0.01267  Uiso   1.00
C26    C     0.58166   0.42804   0.18046   0.01267  Uiso   1.00
C27    C     0.67497   0.27153   0.06142   0.01267  Uiso   1.00
C28    C     0.50214   0.46737   0.23875   0.01267  Uiso   1.00
C29    C     0.31811   0.23346   0.16933   0.01267  Uiso   1.00
C30    C     0.40017   0.26003   0.21852   0.01267  Uiso   1.00
C31    C     0.31613   0.19972   0.32783   0.01267  Uiso   1.00
C32    C     0.34622   0.27240   0.05494   0.01267  Uiso   1.00
C33    C     0.35465   0.19515   0.41740   0.01267  Uiso   1.00
C34    C     0.98675   0.26133   0.08698   0.01267  Uiso   1.00
C35    C     0.33753   0.65354   0.89905   0.01267  Uiso   1.00
C36    C     0.45915   0.65941   0.83196   0.01267  Uiso   1.00
C37    C     0.41834   0.57196   0.81954   0.01267  Uiso   1.00
C38    C     0.32503   0.72847   0.93858   0.01267  Uiso   1.00
C39    C     0.49786   0.53263   0.76125   0.01267  Uiso   1.00
C40    C     0.68189   0.76654   0.83067   0.01267  Uiso   1.00
C41    C     0.59983   0.73997   0.78148   0.01267  Uiso   1.00
C42    C     0.68387   0.80028   0.67217   0.01267  Uiso   1.00
C43    C     0.65378   0.72760   0.94506   0.01267  Uiso   1.00
C44    C     0.64535   0.80485   0.58260   0.01267  Uiso   1.00
S3     S     0.04686   0.86536   0.85407   0.01267  Uiso   1.00
S4     S     0.95314   0.13464   0.14593   0.01267  Uiso   1.00
N11    N     0.99177   0.64853   0.95518   0.01267  Uiso   1.00
N12    N     0.77007   0.43072   0.07589   0.01267  Uiso   1.00
N13    N     0.71742   0.47836   0.12566   0.01267  Uiso   1.00
N14    N     0.18981   0.14068   0.34514   0.01267  Uiso   1.00
N15    N     0.19507   0.16285   0.24659   0.01267  Uiso   1.00
N16    N     0.00823   0.35147   0.04482   0.01267  Uiso   1.00
N17    N     0.22993   0.56928   0.92411   0.01267  Uiso   1.00
N18    N     0.28258   0.52164   0.87434   0.01267  Uiso   1.00
N19    N     0.81019   0.85932   0.65486   0.01267  Uiso   1.00
N20    N     0.80493   0.83715   0.75341   0.01267  Uiso   1.00
Fe3    Fe    0.00000   0.00000   0.50000   0.01267  Uiso   1.00
H57    H     0.88920   0.12240   0.34160   0.01267  Uiso   1.00
H58    H     0.78730   0.01690   0.68910   0.01267  Uiso   1.00
H59    H     0.63860   0.01990   0.70920   0.01267  Uiso   1.00
H60    H     0.76550   0.12160   0.67800   0.01267  Uiso   1.00
H61    H     0.79440   0.23080   0.23730   0.01267  Uiso   1.00
H62    H     0.77030   0.31380   0.27290   0.01267  Uiso   1.00
H63    H     0.64410   0.21030   0.30680   0.01267  Uiso   1.00
H64    H     0.31250   0.04750   0.71580   0.01267  Uiso   1.00
H65    H     0.44660   0.02410   0.71880   0.01267  Uiso   1.00
H66    H     0.38780   0.01810   0.63300   0.01267  Uiso   1.00
H67    H     0.75980   0.48420   0.36920   0.01267  Uiso   1.00
H68    H     0.79400   0.40920   0.32480   0.01267  Uiso   1.00
H69    H     0.84680   0.41780   0.41230   0.01267  Uiso   1.00
H70    H     0.36000   0.23450   0.63130   0.01267  Uiso   1.00
H71    H     0.11080   0.87760   0.65840   0.01267  Uiso   1.00
H72    H     0.21270   0.98310   0.31090   0.01267  Uiso   1.00
H73    H     0.36140   0.98010   0.29080   0.01267  Uiso   1.00
H74    H     0.23450   0.87840   0.32200   0.01267  Uiso   1.00
H75    H     0.20560   0.76920   0.76270   0.01267  Uiso   1.00
H76    H     0.22970   0.68620   0.72710   0.01267  Uiso   1.00
H77    H     0.35590   0.78970   0.69320   0.01267  Uiso   1.00
H78    H     0.68750   0.95250   0.28420   0.01267  Uiso   1.00
H79    H     0.55340   0.97590   0.28120   0.01267  Uiso   1.00
H80    H     0.61220   0.98190   0.36700   0.01267  Uiso   1.00
H81    H     0.24020   0.51580   0.63080   0.01267  Uiso   1.00
H82    H     0.20600   0.59080   0.67520   0.01267  Uiso   1.00
H83    H     0.15320   0.58220   0.58770   0.01267  Uiso   1.00
H84    H     0.64000   0.76550   0.36870   0.01267  Uiso   1.00
C45    C     0.92627   0.91302   0.34831   0.01267  Uiso   1.00
C46    C     0.76342   0.10095   0.55259   0.01267  Uiso   1.00
C47    C     0.70889   0.16804   0.49137   0.01267  Uiso   1.00
C48    C     0.76212   0.18046   0.39150   0.01267  Uiso   1.00
C49    C     0.73639   0.06142   0.66705   0.01267  Uiso   1.00
C50    C     0.74089   0.23875   0.29388   0.01267  Uiso   1.00
C51    C     0.48744   0.16933   0.59721   0.01267  Uiso   1.00
C52    C     0.61869   0.21852   0.52145   0.01267  Uiso   1.00
C53    C     0.64396   0.32783   0.47245   0.01267  Uiso   1.00
C54    C     0.40116   0.05494   0.67266   0.01267  Uiso   1.00
C55    C     0.77205   0.41740   0.38745   0.01267  Uiso   1.00
C56    C     0.07373   0.08698   0.65169   0.01267  Uiso   1.00
C57    C     0.23658   0.89905   0.44741   0.01267  Uiso   1.00
C58    C     0.29111   0.83196   0.50863   0.01267  Uiso   1.00
C59    C     0.23788   0.81954   0.60850   0.01267  Uiso   1.00
C60    C     0.26361   0.93858   0.33295   0.01267  Uiso   1.00
C61    C     0.25911   0.76125   0.70612   0.01267  Uiso   1.00
C62    C     0.51256   0.83067   0.40279   0.01267  Uiso   1.00
C63    C     0.38131   0.78148   0.47855   0.01267  Uiso   1.00
C64    C     0.35604   0.67217   0.52755   0.01267  Uiso   1.00
C65    C     0.59884   0.94506   0.32734   0.01267  Uiso   1.00
C66    C     0.22795   0.58260   0.61255   0.01267  Uiso   1.00
S5     S     0.90093   0.85407   0.28057   0.01267  Uiso   1.00
S6     S     0.09907   0.14593   0.71943   0.01267  Uiso   1.00
N21    N     0.94695   0.95518   0.39629   0.01267  Uiso   1.00
N22    N     0.84596   0.07589   0.49339   0.01267  Uiso   1.00
N23    N     0.84308   0.12566   0.39598   0.01267  Uiso   1.00
N24    N     0.53495   0.34514   0.51418   0.01267  Uiso   1.00
N25    N     0.44166   0.24659   0.59056   0.01267  Uiso   1.00
N26    N     0.05305   0.04482   0.60371   0.01267  Uiso   1.00
N27    N     0.15404   0.92411   0.50661   0.01267  Uiso   1.00
N28    N     0.15692   0.87434   0.60402   0.01267  Uiso   1.00
N29    N     0.46505   0.65486   0.48582   0.01267  Uiso   1.00
N30    N     0.55834   0.75341   0.40944   0.01267  Uiso   1.00
