data_HAJMAH_clean
_audit_creation_date              2014-07-02
_audit_creation_method            'Materials Studio'
_symmetry_space_group_name_H-M    'P1'
_symmetry_Int_Tables_number       1
_symmetry_cell_setting            triclinic
loop_
_symmetry_equiv_pos_as_xyz
  x,y,z
_cell_length_a                    11.0385
_cell_length_b                    15.1758
_cell_length_c                    15.1758
_cell_angle_alpha                 65.6807
_cell_angle_beta                  75.9684
_cell_angle_gamma                 104.0320
loop_
_atom_site_label
_atom_site_type_symbol
_atom_site_fract_x
_atom_site_fract_y
_atom_site_fract_z
_atom_site_U_iso_or_equiv
_atom_site_adp_type
_atom_site_occupancy
Fe1    Fe    0.50000   0.50000   0.50000   0.01267  Uiso   1.00
H1     H     0.23320   0.34450   0.53170   0.01267  Uiso   1.00
H2     H     0.47660   0.68680   0.29170   0.01267  Uiso   1.00
H3     H     0.35210   0.70690   0.26830   0.01267  Uiso   1.00
H4     H     0.44460   0.67520   0.20090   0.01267  Uiso   1.00
H5     H     0.03430   0.24240   0.52920   0.01267  Uiso   1.00
H6     H     0.04360   0.27610   0.41440   0.01267  Uiso   1.00
H7     H     0.95580   0.31040   0.48170   0.01267  Uiso   1.00
H8     H     0.02690   0.71080   0.24130   0.01267  Uiso   1.00
H9     H     0.15980   0.71360   0.26210   0.01267  Uiso   1.00
H10    H     0.01900   0.62950   0.35020   0.01267  Uiso   1.00
H11    H     0.13540   0.37520   0.14480   0.01267  Uiso   1.00
H12    H     0.12810   0.33120   0.26010   0.01267  Uiso   1.00
H13    H     0.26260   0.41870   0.16610   0.01267  Uiso   1.00
H14    H     0.99160   0.62870   0.13940   0.01267  Uiso   1.00
H15    H     0.76680   0.65550   0.46830   0.01267  Uiso   1.00
H16    H     0.52340   0.31320   0.70830   0.01267  Uiso   1.00
H17    H     0.64790   0.29310   0.73170   0.01267  Uiso   1.00
H18    H     0.55540   0.32480   0.79910   0.01267  Uiso   1.00
H19    H     0.96570   0.75760   0.47080   0.01267  Uiso   1.00
H20    H     0.95640   0.72390   0.58560   0.01267  Uiso   1.00
H21    H     0.04420   0.68960   0.51830   0.01267  Uiso   1.00
H22    H     0.97310   0.28920   0.75870   0.01267  Uiso   1.00
H23    H     0.84020   0.28640   0.73790   0.01267  Uiso   1.00
H24    H     0.98100   0.37050   0.64980   0.01267  Uiso   1.00
H25    H     0.86460   0.62480   0.85520   0.01267  Uiso   1.00
H26    H     0.87190   0.66880   0.73990   0.01267  Uiso   1.00
H27    H     0.73740   0.58130   0.83390   0.01267  Uiso   1.00
H28    H     0.00840   0.37130   0.86060   0.01267  Uiso   1.00
C1     C     0.27599   0.34928   0.73571   0.01267  Uiso   1.00
C2     C     0.31848   0.55295   0.34451   0.01267  Uiso   1.00
C3     C     0.20277   0.49266   0.33945   0.01267  Uiso   1.00
C4     C     0.15580   0.39390   0.42600   0.01267  Uiso   1.00
C5     C     0.40570   0.66540   0.26970   0.01267  Uiso   1.00
C6     C     0.03690   0.29720   0.46640   0.01267  Uiso   1.00
C7     C     0.08370   0.59520   0.23610   0.01267  Uiso   1.00
C8     C     0.14181   0.52195   0.26062   0.01267  Uiso   1.00
C9     C     0.11964   0.47464   0.19942   0.01267  Uiso   1.00
C10    C     0.07130   0.66890   0.27590   0.01267  Uiso   1.00
C11    C     0.16550   0.39270   0.19200   0.01267  Uiso   1.00
C12    C     0.72401   0.65072   0.26429   0.01267  Uiso   1.00
C13    C     0.68152   0.44705   0.65549   0.01267  Uiso   1.00
C14    C     0.79723   0.50734   0.66055   0.01267  Uiso   1.00
C15    C     0.84420   0.60610   0.57400   0.01267  Uiso   1.00
C16    C     0.59430   0.33460   0.73030   0.01267  Uiso   1.00
C17    C     0.96310   0.70280   0.53360   0.01267  Uiso   1.00
C18    C     0.91630   0.40480   0.76390   0.01267  Uiso   1.00
C19    C     0.85819   0.47805   0.73938   0.01267  Uiso   1.00
C20    C     0.88036   0.52536   0.80058   0.01267  Uiso   1.00
C21    C     0.92870   0.33110   0.72410   0.01267  Uiso   1.00
C22    C     0.83450   0.60730   0.80800   0.01267  Uiso   1.00
S1     S     0.18444   0.28277   0.86066   0.01267  Uiso   1.00
S2     S     0.81556   0.71723   0.13934   0.01267  Uiso   1.00
N1     N     0.34368   0.39636   0.64662   0.01267  Uiso   1.00
N2     N     0.34138   0.49398   0.42834   0.01267  Uiso   1.00
N3     N     0.24130   0.39756   0.47586   0.01267  Uiso   1.00
N4     N     0.05068   0.51500   0.14246   0.01267  Uiso   1.00
N5     N     0.03215   0.58952   0.16637   0.01267  Uiso   1.00
N6     N     0.65632   0.60364   0.35338   0.01267  Uiso   1.00
N7     N     0.65862   0.50602   0.57166   0.01267  Uiso   1.00
N8     N     0.75870   0.60244   0.52414   0.01267  Uiso   1.00
N9     N     0.94932   0.48500   0.85754   0.01267  Uiso   1.00
N10    N     0.96785   0.41048   0.83363   0.01267  Uiso   1.00
Fe2    Fe    0.00000   0.50000   0.00000   0.01267  Uiso   1.00
H29    H     0.76490   0.53170   0.12380   0.01267  Uiso   1.00
H30    H     0.76830   0.29170   0.02150   0.01267  Uiso   1.00
H31    H     0.62040   0.26830   0.02480   0.01267  Uiso   1.00
H32    H     0.64550   0.20090   0.12390   0.01267  Uiso   1.00
H33    H     0.56350   0.52920   0.22840   0.01267  Uiso   1.00
H34    H     0.45800   0.41440   0.30950   0.01267  Uiso   1.00
H35    H     0.43750   0.48170   0.20790   0.01267  Uiso   1.00
H36    H     0.26820   0.24130   0.04790   0.01267  Uiso   1.00
H37    H     0.42190   0.26210   0.02430   0.01267  Uiso   1.00
H38    H     0.36920   0.35020   0.02030   0.01267  Uiso   1.00
H39    H     0.28020   0.14480   0.48000   0.01267  Uiso   1.00
H40    H     0.38820   0.26010   0.40870   0.01267  Uiso   1.00
H41    H     0.42870   0.16610   0.41520   0.01267  Uiso   1.00
H42    H     0.13100   0.13940   0.23190   0.01267  Uiso   1.00
H43    H     0.23510   0.46830   0.87620   0.01267  Uiso   1.00
H44    H     0.23170   0.70830   0.97850   0.01267  Uiso   1.00
H45    H     0.37960   0.73170   0.97520   0.01267  Uiso   1.00
H46    H     0.35450   0.79910   0.87610   0.01267  Uiso   1.00
H47    H     0.43650   0.47080   0.77160   0.01267  Uiso   1.00
H48    H     0.54200   0.58560   0.69050   0.01267  Uiso   1.00
H49    H     0.56250   0.51830   0.79210   0.01267  Uiso   1.00
H50    H     0.73180   0.75870   0.95210   0.01267  Uiso   1.00
H51    H     0.57810   0.73790   0.97570   0.01267  Uiso   1.00
H52    H     0.63080   0.64980   0.97970   0.01267  Uiso   1.00
H53    H     0.71980   0.85520   0.52000   0.01267  Uiso   1.00
H54    H     0.61180   0.73990   0.59130   0.01267  Uiso   1.00
H55    H     0.57130   0.83390   0.58480   0.01267  Uiso   1.00
H56    H     0.86900   0.86060   0.76810   0.01267  Uiso   1.00
C23    C     0.01170   0.73571   0.91501   0.01267  Uiso   1.00
C24    C     0.66299   0.34451   0.10254   0.01267  Uiso   1.00
C25    C     0.54222   0.33945   0.16789   0.01267  Uiso   1.00
C26    C     0.58180   0.42600   0.18010   0.01267  Uiso   1.00
C27    C     0.67540   0.26970   0.06490   0.01267  Uiso   1.00
C28    C     0.50330   0.46640   0.23640   0.01267  Uiso   1.00
C29    C     0.31980   0.23610   0.16870   0.01267  Uiso   1.00
C30    C     0.40243   0.26062   0.21743   0.01267  Uiso   1.00
C31    C     0.31906   0.19942   0.32594   0.01267  Uiso   1.00
C32    C     0.34720   0.27590   0.05520   0.01267  Uiso   1.00
C33    C     0.35750   0.19200   0.41530   0.01267  Uiso   1.00
C34    C     0.98830   0.26429   0.08499   0.01267  Uiso   1.00
C35    C     0.33701   0.65549   0.89746   0.01267  Uiso   1.00
C36    C     0.45778   0.66055   0.83211   0.01267  Uiso   1.00
C37    C     0.41820   0.57400   0.81990   0.01267  Uiso   1.00
C38    C     0.32460   0.73030   0.93510   0.01267  Uiso   1.00
C39    C     0.49670   0.53360   0.76360   0.01267  Uiso   1.00
C40    C     0.68020   0.76390   0.83130   0.01267  Uiso   1.00
C41    C     0.59757   0.73938   0.78257   0.01267  Uiso   1.00
C42    C     0.68094   0.80058   0.67406   0.01267  Uiso   1.00
C43    C     0.65280   0.72410   0.94480   0.01267  Uiso   1.00
C44    C     0.64250   0.80800   0.58470   0.01267  Uiso   1.00
S3     S     0.04510   0.86066   0.85657   0.01267  Uiso   1.00
S4     S     0.95490   0.13934   0.14343   0.01267  Uiso   1.00
N11    N     0.99030   0.64662   0.95702   0.01267  Uiso   1.00
N12    N     0.76972   0.42834   0.07768   0.01267  Uiso   1.00
N13    N     0.71716   0.47586   0.12658   0.01267  Uiso   1.00
N14    N     0.19314   0.14246   0.34254   0.01267  Uiso   1.00
N15    N     0.19852   0.16637   0.24411   0.01267  Uiso   1.00
N16    N     0.00970   0.35338   0.04298   0.01267  Uiso   1.00
N17    N     0.23028   0.57166   0.92232   0.01267  Uiso   1.00
N18    N     0.28284   0.52414   0.87342   0.01267  Uiso   1.00
N19    N     0.80686   0.85754   0.65746   0.01267  Uiso   1.00
N20    N     0.80148   0.83363   0.75589   0.01267  Uiso   1.00
Fe3    Fe    0.00000   0.00000   0.50000   0.01267  Uiso   1.00
H57    H     0.88870   0.12380   0.34450   0.01267  Uiso   1.00
H58    H     0.78980   0.02150   0.68680   0.01267  Uiso   1.00
H59    H     0.64520   0.02480   0.70690   0.01267  Uiso   1.00
H60    H     0.76940   0.12390   0.67520   0.01267  Uiso   1.00
H61    H     0.79190   0.22840   0.24240   0.01267  Uiso   1.00
H62    H     0.76750   0.30950   0.27610   0.01267  Uiso   1.00
H63    H     0.64540   0.20790   0.31040   0.01267  Uiso   1.00
H64    H     0.31610   0.04790   0.71080   0.01267  Uiso   1.00
H65    H     0.44620   0.02430   0.71360   0.01267  Uiso   1.00
H66    H     0.38950   0.02030   0.62950   0.01267  Uiso   1.00
H67    H     0.76020   0.48000   0.37520   0.01267  Uiso   1.00
H68    H     0.79690   0.40870   0.33120   0.01267  Uiso   1.00
H69    H     0.84390   0.41520   0.41870   0.01267  Uiso   1.00
H70    H     0.36290   0.23190   0.62870   0.01267  Uiso   1.00
H71    H     0.11130   0.87620   0.65550   0.01267  Uiso   1.00
H72    H     0.21020   0.97850   0.31320   0.01267  Uiso   1.00
H73    H     0.35480   0.97520   0.29310   0.01267  Uiso   1.00
H74    H     0.23060   0.87610   0.32480   0.01267  Uiso   1.00
H75    H     0.20810   0.77160   0.75760   0.01267  Uiso   1.00
H76    H     0.23250   0.69050   0.72390   0.01267  Uiso   1.00
H77    H     0.35460   0.79210   0.68960   0.01267  Uiso   1.00
H78    H     0.68390   0.95210   0.28920   0.01267  Uiso   1.00
H79    H     0.55380   0.97570   0.28640   0.01267  Uiso   1.00
H80    H     0.61050   0.97970   0.37050   0.01267  Uiso   1.00
H81    H     0.23980   0.52000   0.62480   0.01267  Uiso   1.00
H82    H     0.20310   0.59130   0.66880   0.01267  Uiso   1.00
H83    H     0.15610   0.58480   0.58130   0.01267  Uiso   1.00
H84    H     0.63710   0.76810   0.37130   0.01267  Uiso   1.00
C45    C     0.92671   0.91501   0.34928   0.01267  Uiso   1.00
C46    C     0.76553   0.10254   0.55295   0.01267  Uiso   1.00
C47    C     0.71011   0.16789   0.49266   0.01267  Uiso   1.00
C48    C     0.76190   0.18010   0.39390   0.01267  Uiso   1.00
C49    C     0.74030   0.06490   0.66540   0.01267  Uiso   1.00
C50    C     0.73970   0.23640   0.29720   0.01267  Uiso   1.00
C51    C     0.48850   0.16870   0.59520   0.01267  Uiso   1.00
C52    C     0.61986   0.21743   0.52195   0.01267  Uiso   1.00
C53    C     0.64500   0.32594   0.47464   0.01267  Uiso   1.00
C54    C     0.40240   0.05520   0.66890   0.01267  Uiso   1.00
C55    C     0.77280   0.41530   0.39270   0.01267  Uiso   1.00
C56    C     0.07329   0.08499   0.65072   0.01267  Uiso   1.00
C57    C     0.23447   0.89746   0.44705   0.01267  Uiso   1.00
C58    C     0.28989   0.83211   0.50734   0.01267  Uiso   1.00
C59    C     0.23810   0.81990   0.60610   0.01267  Uiso   1.00
C60    C     0.25970   0.93510   0.33460   0.01267  Uiso   1.00
C61    C     0.26030   0.76360   0.70280   0.01267  Uiso   1.00
C62    C     0.51150   0.83130   0.40480   0.01267  Uiso   1.00
C63    C     0.38014   0.78257   0.47805   0.01267  Uiso   1.00
C64    C     0.35500   0.67406   0.52536   0.01267  Uiso   1.00
C65    C     0.59760   0.94480   0.33110   0.01267  Uiso   1.00
C66    C     0.22720   0.58470   0.60730   0.01267  Uiso   1.00
S5     S     0.90167   0.85657   0.28277   0.01267  Uiso   1.00
S6     S     0.09833   0.14343   0.71723   0.01267  Uiso   1.00
N21    N     0.94732   0.95702   0.39636   0.01267  Uiso   1.00
N22    N     0.84740   0.07768   0.49398   0.01267  Uiso   1.00
N23    N     0.84374   0.12658   0.39756   0.01267  Uiso   1.00
N24    N     0.53568   0.34254   0.51500   0.01267  Uiso   1.00
N25    N     0.44263   0.24411   0.58952   0.01267  Uiso   1.00
N26    N     0.05268   0.04298   0.60364   0.01267  Uiso   1.00
N27    N     0.15260   0.92232   0.50602   0.01267  Uiso   1.00
N28    N     0.15626   0.87342   0.60244   0.01267  Uiso   1.00
N29    N     0.46432   0.65746   0.48500   0.01267  Uiso   1.00
N30    N     0.55737   0.75589   0.41048   0.01267  Uiso   1.00
