data_image0
_cell_length_a       10.282
_cell_length_b       11.261
_cell_length_c       12.171
_cell_angle_alpha    92.575
_cell_angle_beta     109.114
_cell_angle_gamma    109.752

_symmetry_space_group_name_H-M    "P 1"
_symmetry_int_tables_number       1

loop_
  _symmetry_equiv_pos_as_xyz
  'x, y, z'

loop_
  _atom_site_label
  _atom_site_occupancy
  _atom_site_fract_x
  _atom_site_fract_y
  _atom_site_fract_z
  _atom_site_thermal_displace_type
  _atom_site_B_iso_or_equiv
  _atom_site_type_symbol
  O1       1.0000 0.58960  0.68760  0.56220  Biso   1.000  O
  O2       1.0000 0.69700  0.48320  0.51930  Biso   1.000  O
  O3       1.0000 0.56550  0.46230  0.68210  Biso   1.000  O
  C1       1.0000 0.71170  0.75240  0.64250  Biso   1.000  C
  Ni1      1.0000 0.79181  0.52637  0.70290  Biso   1.000  Ni
  H1       1.0000 0.72360  0.41930  0.52650  Biso   1.000  H
  H2       1.0000 0.73790  0.52780  0.47670  Biso   1.000  H
  C2       1.0000 0.74620  0.89340  0.67240  Biso   1.000  C
  O4       1.0000 0.80840  0.71120  0.69810  Biso   1.000  O
  O5       1.0000 0.86780  0.58130  0.88550  Biso   1.000  O
  O6       1.0000 0.78480  0.34680  0.70030  Biso   1.000  O
  O7       1.0000 0.00680  0.58550  0.70670  Biso   1.000  O
  C3       1.0000 0.88790  0.97970  0.68960  Biso   1.000  C
  C4       1.0000 0.64000  0.93960  0.68530  Biso   1.000  C
  H3       1.0000 0.92360  0.64880  0.93650  Biso   1.000  H
  H4       1.0000 0.78040  0.56190  0.88550  Biso   1.000  H
  C5       1.0000 0.93180  0.11200  0.72130  Biso   1.000  C
  H5       1.0000 0.95650  0.94780  0.67940  Biso   1.000  H
  C6       1.0000 0.68250  0.07090  0.71520  Biso   1.000  C
  C7       1.0000 0.48730  0.85600  0.67030  Biso   1.000  C
  O8       1.0000 0.92650  0.33990  0.88160  Biso   1.000  O
  C8       1.0000 0.08400  0.19800  0.73300  Biso   1.000  C
  C9       1.0000 0.82390  0.15660  0.73590  Biso   1.000  C
  H6       1.0000 0.61220  0.10270  0.72160  Biso   1.000  H
  C10      1.0000 0.45730  0.76270  0.73760  Biso   1.000  C
  C11      1.0000 0.36880  0.87460  0.58680  Biso   1.000  C
  C12      1.0000 0.17670  0.29520  0.83230  Biso   1.000  C
  C13      1.0000 0.14210  0.18330  0.64720  Biso   1.000  C
  C14      1.0000 0.85020  0.29460  0.77520  Biso   1.000  C
  H7       1.0000 0.53550  0.74950  0.79360  Biso   1.000  H
  C15      1.0000 0.31180  0.68760  0.72340  Biso   1.000  C
  H8       1.0000 0.38730  0.93860  0.54190  Biso   1.000  H
  C16      1.0000 0.22440  0.79910  0.57020  Biso   1.000  C
  C17      1.0000 0.31460  0.37420  0.84180  Biso   1.000  C
  H9       1.0000 0.14260  0.30550  0.89270  Biso   1.000  H
  C18      1.0000 0.28130  0.26480  0.65600  Biso   1.000  C
  H10      1.0000 0.08600  0.11730  0.58250  Biso   1.000  H
  H11      1.0000 0.29320  0.62490  0.76940  Biso   1.000  H
  C19      1.0000 0.19420  0.70760  0.63920  Biso   1.000  C
  H12      1.0000 0.14650  0.81010  0.51170  Biso   1.000  H
  C20      1.0000 0.36890  0.36140  0.75180  Biso   1.000  C
  H13      1.0000 0.37350  0.43720  0.90840  Biso   1.000  H
  H14      1.0000 0.31630  0.25430  0.59620  Biso   1.000  H
  C21      1.0000 0.03710  0.63030  0.62200  Biso   1.000  C
  C22      1.0000 0.52220  0.44880  0.76880  Biso   1.000  C
  O9       1.0000 0.94080  0.61750  0.51990  Biso   1.000  O
  O10      1.0000 0.60620  0.50190  0.87200  Biso   1.000  O
  O11      1.0000 0.41040  0.31240  0.43780  Biso   1.000  O
  O12      1.0000 0.30300  0.51680  0.48070  Biso   1.000  O
  O13      1.0000 0.43450  0.53770  0.31790  Biso   1.000  O
  C23      1.0000 0.28830  0.24760  0.35750  Biso   1.000  C
  Ni2      1.0000 0.20819  0.47363  0.29710  Biso   1.000  Ni
  H15      1.0000 0.27640  0.58070  0.47350  Biso   1.000  H
  H16      1.0000 0.26210  0.47220  0.52330  Biso   1.000  H
  C24      1.0000 0.25380  0.10660  0.32760  Biso   1.000  C
  O14      1.0000 0.19160  0.28880  0.30190  Biso   1.000  O
  O15      1.0000 0.13220  0.41870  0.11450  Biso   1.000  O
  O16      1.0000 0.21520  0.65320  0.29970  Biso   1.000  O
  O17      1.0000 0.99320  0.41450  0.29330  Biso   1.000  O
  C25      1.0000 0.11210  0.02030  0.31040  Biso   1.000  C
  C26      1.0000 0.36000  0.06040  0.31470  Biso   1.000  C
  H17      1.0000 0.07640  0.35120  0.06350  Biso   1.000  H
  H18      1.0000 0.21960  0.43810  0.11450  Biso   1.000  H
  C27      1.0000 0.06820  0.88800  0.27870  Biso   1.000  C
  H19      1.0000 0.04350  0.05220  0.32060  Biso   1.000  H
  C28      1.0000 0.31750  0.92910  0.28480  Biso   1.000  C
  C29      1.0000 0.51270  0.14400  0.32970  Biso   1.000  C
  O18      1.0000 0.07350  0.66010  0.11840  Biso   1.000  O
  C30      1.0000 0.91600  0.80200  0.26700  Biso   1.000  C
  C31      1.0000 0.17610  0.84340  0.26410  Biso   1.000  C
  H20      1.0000 0.38780  0.89730  0.27840  Biso   1.000  H
  C32      1.0000 0.54270  0.23730  0.26240  Biso   1.000  C
  C33      1.0000 0.63120  0.12540  0.41320  Biso   1.000  C
  C34      1.0000 0.82330  0.70480  0.16770  Biso   1.000  C
  C35      1.0000 0.85790  0.81670  0.35280  Biso   1.000  C
  C36      1.0000 0.14980  0.70540  0.22480  Biso   1.000  C
  H21      1.0000 0.46450  0.25050  0.20640  Biso   1.000  H
  C37      1.0000 0.68820  0.31240  0.27660  Biso   1.000  C
  H22      1.0000 0.61270  0.06140  0.45810  Biso   1.000  H
  C38      1.0000 0.77560  0.20090  0.42980  Biso   1.000  C
  C39      1.0000 0.68540  0.62580  0.15820  Biso   1.000  C
  H23      1.0000 0.85740  0.69450  0.10730  Biso   1.000  H
  C40      1.0000 0.71870  0.73520  0.34400  Biso   1.000  C
  H24      1.0000 0.91400  0.88270  0.41750  Biso   1.000  H
  H25      1.0000 0.70680  0.37510  0.23060  Biso   1.000  H
  C41      1.0000 0.80580  0.29240  0.36080  Biso   1.000  C
  H26      1.0000 0.85350  0.18990  0.48830  Biso   1.000  H
  C42      1.0000 0.63110  0.63860  0.24820  Biso   1.000  C
  H27      1.0000 0.62650  0.56280  0.09160  Biso   1.000  H
  H28      1.0000 0.68370  0.74570  0.40380  Biso   1.000  H
  C43      1.0000 0.96290  0.36970  0.37800  Biso   1.000  C
  C44      1.0000 0.47780  0.55120  0.23120  Biso   1.000  C
  O19      1.0000 0.05920  0.38250  0.48010  Biso   1.000  O
  O20      1.0000 0.39380  0.49810  0.12800  Biso   1.000  O
  Ni3      1.0000 0.50000  0.50000  0.50000  Biso   1.000  Ni
  Ni4      1.0000 0.00000  0.50000  0.00000  Biso   1.000  Ni
