data_HAKCAZ_clean
_audit_creation_date              2014-07-02
_audit_creation_method            'Materials Studio'
_symmetry_space_group_name_H-M    'P1'
_symmetry_Int_Tables_number       1
_symmetry_cell_setting            triclinic
loop_
_symmetry_equiv_pos_as_xyz
  x,y,z
_cell_length_a                    16.7295
_cell_length_b                    18.1404
_cell_length_c                    33.4739
_cell_angle_alpha                 90.0000
_cell_angle_beta                  90.0000
_cell_angle_gamma                 117.4590
loop_
_atom_site_label
_atom_site_type_symbol
_atom_site_fract_x
_atom_site_fract_y
_atom_site_fract_z
_atom_site_U_iso_or_equiv
_atom_site_adp_type
_atom_site_occupancy
Dy1    Dy    0.73307   0.46615   0.25000   0.01267  Uiso   1.00
Dy2    Dy    0.26693   0.53385   0.25000   0.01267  Uiso   1.00
Dy3    Dy    0.26693   0.53385   0.75000   0.01267  Uiso   1.00
Dy4    Dy    0.73307   0.46615   0.75000   0.01267  Uiso   1.00
Dy5    Dy    0.00000   0.50000   0.28377   0.01267  Uiso   1.00
Dy6    Dy    0.50000   0.50000   0.21623   0.01267  Uiso   1.00
Dy7    Dy    0.00000   0.50000   0.71623   0.01267  Uiso   1.00
Dy8    Dy    0.50000   0.50000   0.78377   0.01267  Uiso   1.00
Zn1    Zn    0.64490   0.05994   0.00000   0.01267  Uiso   1.00
Zn2    Zn    0.35510   0.94006   0.00000   0.01267  Uiso   1.00
Zn3    Zn    0.41504   0.05994   0.50000   0.01267  Uiso   1.00
Zn4    Zn    0.58496   0.94006   0.50000   0.01267  Uiso   1.00
Zn5    Zn    0.00000   0.00000   0.50000   0.01267  Uiso   1.00
Zn6    Zn    0.00000   0.00000   0.00000   0.01267  Uiso   1.00
H1     H     0.82070   0.36460   0.03660   0.01267  Uiso   1.00
H2     H     0.72490   0.12960   0.14660   0.01267  Uiso   1.00
H3     H     0.63290   0.97960   0.14570   0.01267  Uiso   1.00
H4     H     0.43740   0.75960   0.03540   0.01267  Uiso   1.00
H5     H     0.88260   0.23600   0.11670   0.01267  Uiso   1.00
H6     H     0.94520   0.32240   0.17110   0.01267  Uiso   1.00
H7     H     0.76860   0.41000   0.15900   0.01267  Uiso   1.00
H8     H     0.71270   0.33180   0.10110   0.01267  Uiso   1.00
H9     H     0.45160   0.88260   0.13620   0.01267  Uiso   1.00
H10    H     0.39890   0.77260   0.18230   0.01267  Uiso   1.00
H11    H     0.54200   0.67740   0.12720   0.01267  Uiso   1.00
H12    H     0.59290   0.78600   0.08090   0.01267  Uiso   1.00
H13    H     0.90160   0.69880   0.46320   0.01267  Uiso   1.00
H14    H     0.98000   0.92660   0.35260   0.01267  Uiso   1.00
H15    H     0.76470   0.62980   0.35320   0.01267  Uiso   1.00
H16    H     0.79100   0.72780   0.40300   0.01267  Uiso   1.00
H17    H     0.02190   0.70640   0.33740   0.01267  Uiso   1.00
H18    H     0.05380   0.81580   0.38150   0.01267  Uiso   1.00
H19    H     0.17930   0.63540   0.03660   0.01267  Uiso   1.00
H20    H     0.27510   0.87040   0.14660   0.01267  Uiso   1.00
H21    H     0.36710   0.02040   0.14570   0.01267  Uiso   1.00
H22    H     0.56260   0.24040   0.03540   0.01267  Uiso   1.00
H23    H     0.11740   0.76400   0.11670   0.01267  Uiso   1.00
H24    H     0.05480   0.67760   0.17110   0.01267  Uiso   1.00
H25    H     0.23140   0.59000   0.15900   0.01267  Uiso   1.00
H26    H     0.28730   0.66820   0.10110   0.01267  Uiso   1.00
H27    H     0.54840   0.11740   0.13620   0.01267  Uiso   1.00
H28    H     0.60110   0.22740   0.18230   0.01267  Uiso   1.00
H29    H     0.45800   0.32260   0.12720   0.01267  Uiso   1.00
H30    H     0.40710   0.21400   0.08090   0.01267  Uiso   1.00
H31    H     0.09840   0.30120   0.46320   0.01267  Uiso   1.00
H32    H     0.02000   0.07340   0.35260   0.01267  Uiso   1.00
H33    H     0.23530   0.37020   0.35320   0.01267  Uiso   1.00
H34    H     0.20900   0.27220   0.40300   0.01267  Uiso   1.00
H35    H     0.97810   0.29360   0.33740   0.01267  Uiso   1.00
H36    H     0.94620   0.18420   0.38150   0.01267  Uiso   1.00
H37    H     0.54390   0.36460   0.46340   0.01267  Uiso   1.00
H38    H     0.40470   0.12960   0.35340   0.01267  Uiso   1.00
H39    H     0.34670   0.97960   0.35430   0.01267  Uiso   1.00
H40    H     0.32220   0.75960   0.46460   0.01267  Uiso   1.00
H41    H     0.35340   0.23600   0.38330   0.01267  Uiso   1.00
H42    H     0.37720   0.32240   0.32890   0.01267  Uiso   1.00
H43    H     0.64140   0.41000   0.34100   0.01267  Uiso   1.00
H44    H     0.61910   0.33180   0.39890   0.01267  Uiso   1.00
H45    H     0.43100   0.88260   0.36380   0.01267  Uiso   1.00
H46    H     0.37370   0.77260   0.31770   0.01267  Uiso   1.00
H47    H     0.13540   0.67740   0.37280   0.01267  Uiso   1.00
H48    H     0.19310   0.78600   0.41910   0.01267  Uiso   1.00
H49    H     0.79720   0.69880   0.03680   0.01267  Uiso   1.00
H50    H     0.94660   0.92660   0.14740   0.01267  Uiso   1.00
H51    H     0.86510   0.62980   0.14680   0.01267  Uiso   1.00
H52    H     0.93680   0.72780   0.09700   0.01267  Uiso   1.00
H53    H     0.68450   0.70640   0.16260   0.01267  Uiso   1.00
H54    H     0.76200   0.81580   0.11850   0.01267  Uiso   1.00
H55    H     0.45610   0.63540   0.46340   0.01267  Uiso   1.00
H56    H     0.59530   0.87040   0.35340   0.01267  Uiso   1.00
H57    H     0.65330   0.02040   0.35430   0.01267  Uiso   1.00
H58    H     0.67780   0.24040   0.46460   0.01267  Uiso   1.00
H59    H     0.64660   0.76400   0.38330   0.01267  Uiso   1.00
H60    H     0.62280   0.67760   0.32890   0.01267  Uiso   1.00
H61    H     0.35860   0.59000   0.34100   0.01267  Uiso   1.00
H62    H     0.38090   0.66820   0.39890   0.01267  Uiso   1.00
H63    H     0.56900   0.11740   0.36380   0.01267  Uiso   1.00
H64    H     0.62630   0.22740   0.31770   0.01267  Uiso   1.00
H65    H     0.86460   0.32260   0.37280   0.01267  Uiso   1.00
H66    H     0.80690   0.21400   0.41910   0.01267  Uiso   1.00
H67    H     0.20280   0.30120   0.03680   0.01267  Uiso   1.00
H68    H     0.05340   0.07340   0.14740   0.01267  Uiso   1.00
H69    H     0.13490   0.37020   0.14680   0.01267  Uiso   1.00
H70    H     0.06320   0.27220   0.09700   0.01267  Uiso   1.00
H71    H     0.31550   0.29360   0.16260   0.01267  Uiso   1.00
H72    H     0.23800   0.18420   0.11850   0.01267  Uiso   1.00
H73    H     0.17930   0.63540   0.96340   0.01267  Uiso   1.00
H74    H     0.27510   0.87040   0.85340   0.01267  Uiso   1.00
H75    H     0.36710   0.02040   0.85430   0.01267  Uiso   1.00
H76    H     0.56260   0.24040   0.96460   0.01267  Uiso   1.00
H77    H     0.11740   0.76400   0.88330   0.01267  Uiso   1.00
H78    H     0.05480   0.67760   0.82890   0.01267  Uiso   1.00
H79    H     0.23140   0.59000   0.84100   0.01267  Uiso   1.00
H80    H     0.28730   0.66820   0.89890   0.01267  Uiso   1.00
H81    H     0.54840   0.11740   0.86380   0.01267  Uiso   1.00
H82    H     0.60110   0.22740   0.81770   0.01267  Uiso   1.00
H83    H     0.45800   0.32260   0.87280   0.01267  Uiso   1.00
H84    H     0.40710   0.21400   0.91910   0.01267  Uiso   1.00
H85    H     0.09840   0.30120   0.53680   0.01267  Uiso   1.00
H86    H     0.02000   0.07340   0.64740   0.01267  Uiso   1.00
H87    H     0.23530   0.37020   0.64680   0.01267  Uiso   1.00
H88    H     0.20900   0.27220   0.59700   0.01267  Uiso   1.00
H89    H     0.97810   0.29360   0.66260   0.01267  Uiso   1.00
H90    H     0.94620   0.18420   0.61850   0.01267  Uiso   1.00
H91    H     0.82070   0.36460   0.96340   0.01267  Uiso   1.00
H92    H     0.72490   0.12960   0.85340   0.01267  Uiso   1.00
H93    H     0.63290   0.97960   0.85430   0.01267  Uiso   1.00
H94    H     0.43740   0.75960   0.96460   0.01267  Uiso   1.00
H95    H     0.88260   0.23600   0.88330   0.01267  Uiso   1.00
H96    H     0.94520   0.32240   0.82890   0.01267  Uiso   1.00
H97    H     0.76860   0.41000   0.84100   0.01267  Uiso   1.00
H98    H     0.71270   0.33180   0.89890   0.01267  Uiso   1.00
H99    H     0.45160   0.88260   0.86380   0.01267  Uiso   1.00
H100   H     0.39890   0.77260   0.81770   0.01267  Uiso   1.00
H101   H     0.54200   0.67740   0.87280   0.01267  Uiso   1.00
H102   H     0.59290   0.78600   0.91910   0.01267  Uiso   1.00
H103   H     0.90160   0.69880   0.53680   0.01267  Uiso   1.00
H104   H     0.98000   0.92660   0.64740   0.01267  Uiso   1.00
H105   H     0.76470   0.62980   0.64680   0.01267  Uiso   1.00
H106   H     0.79100   0.72780   0.59700   0.01267  Uiso   1.00
H107   H     0.02190   0.70640   0.66260   0.01267  Uiso   1.00
H108   H     0.05380   0.81580   0.61850   0.01267  Uiso   1.00
H109   H     0.45610   0.63540   0.53660   0.01267  Uiso   1.00
H110   H     0.59530   0.87040   0.64660   0.01267  Uiso   1.00
H111   H     0.65330   0.02040   0.64570   0.01267  Uiso   1.00
H112   H     0.67780   0.24040   0.53540   0.01267  Uiso   1.00
H113   H     0.64660   0.76400   0.61670   0.01267  Uiso   1.00
H114   H     0.62280   0.67760   0.67110   0.01267  Uiso   1.00
H115   H     0.35860   0.59000   0.65900   0.01267  Uiso   1.00
H116   H     0.38090   0.66820   0.60110   0.01267  Uiso   1.00
H117   H     0.56900   0.11740   0.63620   0.01267  Uiso   1.00
H118   H     0.62630   0.22740   0.68230   0.01267  Uiso   1.00
H119   H     0.86460   0.32260   0.62720   0.01267  Uiso   1.00
H120   H     0.80690   0.21400   0.58090   0.01267  Uiso   1.00
H121   H     0.20280   0.30120   0.96320   0.01267  Uiso   1.00
H122   H     0.05340   0.07340   0.85260   0.01267  Uiso   1.00
H123   H     0.13490   0.37020   0.85320   0.01267  Uiso   1.00
H124   H     0.06320   0.27220   0.90300   0.01267  Uiso   1.00
H125   H     0.31550   0.29360   0.83740   0.01267  Uiso   1.00
H126   H     0.23800   0.18420   0.88150   0.01267  Uiso   1.00
H127   H     0.54390   0.36460   0.53660   0.01267  Uiso   1.00
H128   H     0.40470   0.12960   0.64660   0.01267  Uiso   1.00
H129   H     0.34670   0.97960   0.64570   0.01267  Uiso   1.00
H130   H     0.32220   0.75960   0.53540   0.01267  Uiso   1.00
H131   H     0.35340   0.23600   0.61670   0.01267  Uiso   1.00
H132   H     0.37720   0.32240   0.67110   0.01267  Uiso   1.00
H133   H     0.64140   0.41000   0.65900   0.01267  Uiso   1.00
H134   H     0.61910   0.33180   0.60110   0.01267  Uiso   1.00
H135   H     0.43100   0.88260   0.63620   0.01267  Uiso   1.00
H136   H     0.37370   0.77260   0.68230   0.01267  Uiso   1.00
H137   H     0.13540   0.67740   0.62720   0.01267  Uiso   1.00
H138   H     0.19310   0.78600   0.58090   0.01267  Uiso   1.00
H139   H     0.79720   0.69880   0.96320   0.01267  Uiso   1.00
H140   H     0.94660   0.92660   0.85260   0.01267  Uiso   1.00
H141   H     0.86510   0.62980   0.85320   0.01267  Uiso   1.00
H142   H     0.93680   0.72780   0.90300   0.01267  Uiso   1.00
H143   H     0.68450   0.70640   0.83740   0.01267  Uiso   1.00
H144   H     0.76200   0.81580   0.88150   0.01267  Uiso   1.00
C1     C     0.79426   0.31852   0.01995   0.01267  Uiso   1.00
C2     C     0.74611   0.23442   0.03273   0.01267  Uiso   1.00
C3     C     0.74166   0.20752   0.07212   0.01267  Uiso   1.00
C4     C     0.69972   0.12624   0.08356   0.01267  Uiso   1.00
C5     C     0.69720   0.09720   0.12430   0.01267  Uiso   1.00
C6     C     0.64550   0.01460   0.12380   0.01267  Uiso   1.00
C7     C     0.61384   0.99068   0.08360   0.01267  Uiso   1.00
C8     C     0.55780   0.91020   0.07170   0.01267  Uiso   1.00
C9     C     0.53360   0.88560   0.03210   0.01267  Uiso   1.00
C10    C     0.47291   0.80402   0.01890   0.01267  Uiso   1.00
C11    C     0.78940   0.27160   0.10422   0.01267  Uiso   1.00
C12    C     0.86030   0.27200   0.12450   0.01267  Uiso   1.00
C13    C     0.89550   0.32100   0.15810   0.01267  Uiso   1.00
C14    C     0.85960   0.37140   0.17110   0.01267  Uiso   1.00
C15    C     0.79200   0.37540   0.15007   0.01267  Uiso   1.00
C16    C     0.75677   0.32694   0.11606   0.01267  Uiso   1.00
C17    C     0.88870   0.41500   0.21010   0.01267  Uiso   1.00
C18    C     0.52550   0.84280   0.10410   0.01267  Uiso   1.00
C19    C     0.46940   0.84140   0.13430   0.01267  Uiso   1.00
C20    C     0.43860   0.77580   0.16220   0.01267  Uiso   1.00
C21    C     0.46680   0.71840   0.16030   0.01267  Uiso   1.00
C22    C     0.52550   0.71960   0.12900   0.01267  Uiso   1.00
C23    C     0.55340   0.78260   0.10110   0.01267  Uiso   1.00
C24    C     0.43600   0.64720   0.19100   0.01267  Uiso   1.00
C25    C     0.91550   0.74520   0.48020   0.01267  Uiso   1.00
C26    C     0.93940   0.82560   0.46830   0.01267  Uiso   1.00
C27    C     0.94850   0.85240   0.42740   0.01267  Uiso   1.00
C28    C     0.97650   0.93140   0.41520   0.01267  Uiso   1.00
C29    C     0.98820   0.96000   0.37490   0.01267  Uiso   1.00
C30    C     0.92750   0.78600   0.39680   0.01267  Uiso   1.00
C31    C     0.82370   0.66620   0.36000   0.01267  Uiso   1.00
C32    C     0.83850   0.72800   0.38860   0.01267  Uiso   1.00
C33    C     0.89120   0.65780   0.34210   0.01267  Uiso   1.00
C34    C     0.97540   0.71160   0.35010   0.01267  Uiso   1.00
C35    C     0.99440   0.77660   0.37730   0.01267  Uiso   1.00
C36    C     0.87070   0.58660   0.31320   0.01267  Uiso   1.00
C37    C     0.20574   0.68148   0.01995   0.01267  Uiso   1.00
C38    C     0.25389   0.76558   0.03273   0.01267  Uiso   1.00
C39    C     0.25834   0.79248   0.07212   0.01267  Uiso   1.00
C40    C     0.30028   0.87376   0.08356   0.01267  Uiso   1.00
C41    C     0.30280   0.90280   0.12430   0.01267  Uiso   1.00
C42    C     0.35450   0.98540   0.12380   0.01267  Uiso   1.00
C43    C     0.38616   0.00932   0.08360   0.01267  Uiso   1.00
C44    C     0.44220   0.08980   0.07170   0.01267  Uiso   1.00
C45    C     0.46640   0.11440   0.03210   0.01267  Uiso   1.00
C46    C     0.52709   0.19598   0.01890   0.01267  Uiso   1.00
C47    C     0.21060   0.72840   0.10422   0.01267  Uiso   1.00
C48    C     0.13970   0.72800   0.12450   0.01267  Uiso   1.00
C49    C     0.10450   0.67900   0.15810   0.01267  Uiso   1.00
C50    C     0.14040   0.62860   0.17110   0.01267  Uiso   1.00
C51    C     0.20800   0.62460   0.15007   0.01267  Uiso   1.00
C52    C     0.24323   0.67306   0.11606   0.01267  Uiso   1.00
C53    C     0.11130   0.58500   0.21010   0.01267  Uiso   1.00
C54    C     0.47450   0.15720   0.10410   0.01267  Uiso   1.00
C55    C     0.53060   0.15860   0.13430   0.01267  Uiso   1.00
C56    C     0.56140   0.22420   0.16220   0.01267  Uiso   1.00
C57    C     0.53320   0.28160   0.16030   0.01267  Uiso   1.00
C58    C     0.47450   0.28040   0.12900   0.01267  Uiso   1.00
C59    C     0.44660   0.21740   0.10110   0.01267  Uiso   1.00
C60    C     0.56400   0.35280   0.19100   0.01267  Uiso   1.00
C61    C     0.08450   0.25480   0.48020   0.01267  Uiso   1.00
C62    C     0.06060   0.17440   0.46830   0.01267  Uiso   1.00
C63    C     0.05150   0.14760   0.42740   0.01267  Uiso   1.00
C64    C     0.02350   0.06860   0.41520   0.01267  Uiso   1.00
C65    C     0.01180   0.04000   0.37490   0.01267  Uiso   1.00
C66    C     0.07250   0.21400   0.39680   0.01267  Uiso   1.00
C67    C     0.17630   0.33380   0.36000   0.01267  Uiso   1.00
C68    C     0.16150   0.27200   0.38860   0.01267  Uiso   1.00
C69    C     0.10880   0.34220   0.34210   0.01267  Uiso   1.00
C70    C     0.02460   0.28840   0.35010   0.01267  Uiso   1.00
C71    C     0.00560   0.22340   0.37730   0.01267  Uiso   1.00
C72    C     0.12930   0.41340   0.31320   0.01267  Uiso   1.00
C73    C     0.52426   0.31852   0.48005   0.01267  Uiso   1.00
C74    C     0.48831   0.23442   0.46727   0.01267  Uiso   1.00
C75    C     0.46586   0.20752   0.42788   0.01267  Uiso   1.00
C76    C     0.42652   0.12624   0.41644   0.01267  Uiso   1.00
C77    C     0.40000   0.09720   0.37570   0.01267  Uiso   1.00
C78    C     0.36910   0.01460   0.37620   0.01267  Uiso   1.00
C79    C     0.37684   0.99068   0.41640   0.01267  Uiso   1.00
C80    C     0.35240   0.91020   0.42830   0.01267  Uiso   1.00
C81    C     0.35200   0.88560   0.46790   0.01267  Uiso   1.00
C82    C     0.33111   0.80402   0.48110   0.01267  Uiso   1.00
C83    C     0.48220   0.27160   0.39578   0.01267  Uiso   1.00
C84    C     0.41170   0.27200   0.37550   0.01267  Uiso   1.00
C85    C     0.42550   0.32100   0.34190   0.01267  Uiso   1.00
C86    C     0.51180   0.37140   0.32890   0.01267  Uiso   1.00
C87    C     0.58340   0.37540   0.34993   0.01267  Uiso   1.00
C88    C     0.57017   0.32694   0.38394   0.01267  Uiso   1.00
C89    C     0.52630   0.41500   0.28990   0.01267  Uiso   1.00
C90    C     0.31730   0.84280   0.39590   0.01267  Uiso   1.00
C91    C     0.37200   0.84140   0.36570   0.01267  Uiso   1.00
C92    C     0.33720   0.77580   0.33780   0.01267  Uiso   1.00
C93    C     0.25160   0.71840   0.33970   0.01267  Uiso   1.00
C94    C     0.19410   0.71960   0.37100   0.01267  Uiso   1.00
C95    C     0.22920   0.78260   0.39890   0.01267  Uiso   1.00
C96    C     0.21120   0.64720   0.30900   0.01267  Uiso   1.00
C97    C     0.82970   0.74520   0.01980   0.01267  Uiso   1.00
C98    C     0.88620   0.82560   0.03170   0.01267  Uiso   1.00
C99    C     0.90390   0.85240   0.07260   0.01267  Uiso   1.00
C100   C     0.95490   0.93140   0.08480   0.01267  Uiso   1.00
C101   C     0.97180   0.96000   0.12510   0.01267  Uiso   1.00
C102   C     0.85850   0.78600   0.10320   0.01267  Uiso   1.00
C103   C     0.84250   0.66620   0.14000   0.01267  Uiso   1.00
C104   C     0.88950   0.72800   0.11140   0.01267  Uiso   1.00
C105   C     0.76660   0.65780   0.15790   0.01267  Uiso   1.00
C106   C     0.73620   0.71160   0.14990   0.01267  Uiso   1.00
C107   C     0.78220   0.77660   0.12270   0.01267  Uiso   1.00
C108   C     0.71590   0.58660   0.18680   0.01267  Uiso   1.00
C109   C     0.47574   0.68148   0.48005   0.01267  Uiso   1.00
C110   C     0.51169   0.76558   0.46727   0.01267  Uiso   1.00
C111   C     0.53414   0.79248   0.42788   0.01267  Uiso   1.00
C112   C     0.57348   0.87376   0.41644   0.01267  Uiso   1.00
C113   C     0.60000   0.90280   0.37570   0.01267  Uiso   1.00
C114   C     0.63090   0.98540   0.37620   0.01267  Uiso   1.00
C115   C     0.62316   0.00932   0.41640   0.01267  Uiso   1.00
C116   C     0.64760   0.08980   0.42830   0.01267  Uiso   1.00
C117   C     0.64800   0.11440   0.46790   0.01267  Uiso   1.00
C118   C     0.66889   0.19598   0.48110   0.01267  Uiso   1.00
C119   C     0.51780   0.72840   0.39578   0.01267  Uiso   1.00
C120   C     0.58830   0.72800   0.37550   0.01267  Uiso   1.00
C121   C     0.57450   0.67900   0.34190   0.01267  Uiso   1.00
C122   C     0.48820   0.62860   0.32890   0.01267  Uiso   1.00
C123   C     0.41660   0.62460   0.34993   0.01267  Uiso   1.00
C124   C     0.42983   0.67306   0.38394   0.01267  Uiso   1.00
C125   C     0.47370   0.58500   0.28990   0.01267  Uiso   1.00
C126   C     0.68270   0.15720   0.39590   0.01267  Uiso   1.00
C127   C     0.62800   0.15860   0.36570   0.01267  Uiso   1.00
C128   C     0.66280   0.22420   0.33780   0.01267  Uiso   1.00
C129   C     0.74840   0.28160   0.33970   0.01267  Uiso   1.00
C130   C     0.80590   0.28040   0.37100   0.01267  Uiso   1.00
C131   C     0.77080   0.21740   0.39890   0.01267  Uiso   1.00
C132   C     0.78880   0.35280   0.30900   0.01267  Uiso   1.00
C133   C     0.17030   0.25480   0.01980   0.01267  Uiso   1.00
C134   C     0.11380   0.17440   0.03170   0.01267  Uiso   1.00
C135   C     0.09610   0.14760   0.07260   0.01267  Uiso   1.00
C136   C     0.04510   0.06860   0.08480   0.01267  Uiso   1.00
C137   C     0.02820   0.04000   0.12510   0.01267  Uiso   1.00
C138   C     0.14150   0.21400   0.10320   0.01267  Uiso   1.00
C139   C     0.15750   0.33380   0.14000   0.01267  Uiso   1.00
C140   C     0.11050   0.27200   0.11140   0.01267  Uiso   1.00
C141   C     0.23340   0.34220   0.15790   0.01267  Uiso   1.00
C142   C     0.26380   0.28840   0.14990   0.01267  Uiso   1.00
C143   C     0.21780   0.22340   0.12270   0.01267  Uiso   1.00
C144   C     0.28410   0.41340   0.18680   0.01267  Uiso   1.00
C145   C     0.20574   0.68148   0.98005   0.01267  Uiso   1.00
C146   C     0.25389   0.76558   0.96727   0.01267  Uiso   1.00
C147   C     0.25834   0.79248   0.92788   0.01267  Uiso   1.00
C148   C     0.30028   0.87376   0.91644   0.01267  Uiso   1.00
C149   C     0.30280   0.90280   0.87570   0.01267  Uiso   1.00
C150   C     0.35450   0.98540   0.87620   0.01267  Uiso   1.00
C151   C     0.38616   0.00932   0.91640   0.01267  Uiso   1.00
C152   C     0.44220   0.08980   0.92830   0.01267  Uiso   1.00
C153   C     0.46640   0.11440   0.96790   0.01267  Uiso   1.00
C154   C     0.52709   0.19598   0.98110   0.01267  Uiso   1.00
C155   C     0.21060   0.72840   0.89578   0.01267  Uiso   1.00
C156   C     0.13970   0.72800   0.87550   0.01267  Uiso   1.00
C157   C     0.10450   0.67900   0.84190   0.01267  Uiso   1.00
C158   C     0.14040   0.62860   0.82890   0.01267  Uiso   1.00
C159   C     0.20800   0.62460   0.84993   0.01267  Uiso   1.00
C160   C     0.24323   0.67306   0.88394   0.01267  Uiso   1.00
C161   C     0.11130   0.58500   0.78990   0.01267  Uiso   1.00
C162   C     0.47450   0.15720   0.89590   0.01267  Uiso   1.00
C163   C     0.53060   0.15860   0.86570   0.01267  Uiso   1.00
C164   C     0.56140   0.22420   0.83780   0.01267  Uiso   1.00
C165   C     0.53320   0.28160   0.83970   0.01267  Uiso   1.00
C166   C     0.47450   0.28040   0.87100   0.01267  Uiso   1.00
C167   C     0.44660   0.21740   0.89890   0.01267  Uiso   1.00
C168   C     0.56400   0.35280   0.80900   0.01267  Uiso   1.00
C169   C     0.08450   0.25480   0.51980   0.01267  Uiso   1.00
C170   C     0.06060   0.17440   0.53170   0.01267  Uiso   1.00
C171   C     0.05150   0.14760   0.57260   0.01267  Uiso   1.00
C172   C     0.02350   0.06860   0.58480   0.01267  Uiso   1.00
C173   C     0.01180   0.04000   0.62510   0.01267  Uiso   1.00
C174   C     0.07250   0.21400   0.60320   0.01267  Uiso   1.00
C175   C     0.17630   0.33380   0.64000   0.01267  Uiso   1.00
C176   C     0.16150   0.27200   0.61140   0.01267  Uiso   1.00
C177   C     0.10880   0.34220   0.65790   0.01267  Uiso   1.00
C178   C     0.02460   0.28840   0.64990   0.01267  Uiso   1.00
C179   C     0.00560   0.22340   0.62270   0.01267  Uiso   1.00
C180   C     0.12930   0.41340   0.68680   0.01267  Uiso   1.00
C181   C     0.79426   0.31852   0.98005   0.01267  Uiso   1.00
C182   C     0.74611   0.23442   0.96727   0.01267  Uiso   1.00
C183   C     0.74166   0.20752   0.92788   0.01267  Uiso   1.00
C184   C     0.69972   0.12624   0.91644   0.01267  Uiso   1.00
C185   C     0.69720   0.09720   0.87570   0.01267  Uiso   1.00
C186   C     0.64550   0.01460   0.87620   0.01267  Uiso   1.00
C187   C     0.61384   0.99068   0.91640   0.01267  Uiso   1.00
C188   C     0.55780   0.91020   0.92830   0.01267  Uiso   1.00
C189   C     0.53360   0.88560   0.96790   0.01267  Uiso   1.00
C190   C     0.47291   0.80402   0.98110   0.01267  Uiso   1.00
C191   C     0.78940   0.27160   0.89578   0.01267  Uiso   1.00
C192   C     0.86030   0.27200   0.87550   0.01267  Uiso   1.00
C193   C     0.89550   0.32100   0.84190   0.01267  Uiso   1.00
C194   C     0.85960   0.37140   0.82890   0.01267  Uiso   1.00
C195   C     0.79200   0.37540   0.84993   0.01267  Uiso   1.00
C196   C     0.75677   0.32694   0.88394   0.01267  Uiso   1.00
C197   C     0.88870   0.41500   0.78990   0.01267  Uiso   1.00
C198   C     0.52550   0.84280   0.89590   0.01267  Uiso   1.00
C199   C     0.46940   0.84140   0.86570   0.01267  Uiso   1.00
C200   C     0.43860   0.77580   0.83780   0.01267  Uiso   1.00
C201   C     0.46680   0.71840   0.83970   0.01267  Uiso   1.00
C202   C     0.52550   0.71960   0.87100   0.01267  Uiso   1.00
C203   C     0.55340   0.78260   0.89890   0.01267  Uiso   1.00
C204   C     0.43600   0.64720   0.80900   0.01267  Uiso   1.00
C205   C     0.91550   0.74520   0.51980   0.01267  Uiso   1.00
C206   C     0.93940   0.82560   0.53170   0.01267  Uiso   1.00
C207   C     0.94850   0.85240   0.57260   0.01267  Uiso   1.00
C208   C     0.97650   0.93140   0.58480   0.01267  Uiso   1.00
C209   C     0.98820   0.96000   0.62510   0.01267  Uiso   1.00
C210   C     0.92750   0.78600   0.60320   0.01267  Uiso   1.00
C211   C     0.82370   0.66620   0.64000   0.01267  Uiso   1.00
C212   C     0.83850   0.72800   0.61140   0.01267  Uiso   1.00
C213   C     0.89120   0.65780   0.65790   0.01267  Uiso   1.00
C214   C     0.97540   0.71160   0.64990   0.01267  Uiso   1.00
C215   C     0.99440   0.77660   0.62270   0.01267  Uiso   1.00
C216   C     0.87070   0.58660   0.68680   0.01267  Uiso   1.00
C217   C     0.47574   0.68148   0.51995   0.01267  Uiso   1.00
C218   C     0.51169   0.76558   0.53273   0.01267  Uiso   1.00
C219   C     0.53414   0.79248   0.57212   0.01267  Uiso   1.00
C220   C     0.57348   0.87376   0.58356   0.01267  Uiso   1.00
C221   C     0.60000   0.90280   0.62430   0.01267  Uiso   1.00
C222   C     0.63090   0.98540   0.62380   0.01267  Uiso   1.00
C223   C     0.62316   0.00932   0.58360   0.01267  Uiso   1.00
C224   C     0.64760   0.08980   0.57170   0.01267  Uiso   1.00
C225   C     0.64800   0.11440   0.53210   0.01267  Uiso   1.00
C226   C     0.66889   0.19598   0.51890   0.01267  Uiso   1.00
C227   C     0.51780   0.72840   0.60422   0.01267  Uiso   1.00
C228   C     0.58830   0.72800   0.62450   0.01267  Uiso   1.00
C229   C     0.57450   0.67900   0.65810   0.01267  Uiso   1.00
C230   C     0.48820   0.62860   0.67110   0.01267  Uiso   1.00
C231   C     0.41660   0.62460   0.65007   0.01267  Uiso   1.00
C232   C     0.42983   0.67306   0.61606   0.01267  Uiso   1.00
C233   C     0.47370   0.58500   0.71010   0.01267  Uiso   1.00
C234   C     0.68270   0.15720   0.60410   0.01267  Uiso   1.00
C235   C     0.62800   0.15860   0.63430   0.01267  Uiso   1.00
C236   C     0.66280   0.22420   0.66220   0.01267  Uiso   1.00
C237   C     0.74840   0.28160   0.66030   0.01267  Uiso   1.00
C238   C     0.80590   0.28040   0.62900   0.01267  Uiso   1.00
C239   C     0.77080   0.21740   0.60110   0.01267  Uiso   1.00
C240   C     0.78880   0.35280   0.69100   0.01267  Uiso   1.00
C241   C     0.17030   0.25480   0.98020   0.01267  Uiso   1.00
C242   C     0.11380   0.17440   0.96830   0.01267  Uiso   1.00
C243   C     0.09610   0.14760   0.92740   0.01267  Uiso   1.00
C244   C     0.04510   0.06860   0.91520   0.01267  Uiso   1.00
C245   C     0.02820   0.04000   0.87490   0.01267  Uiso   1.00
C246   C     0.14150   0.21400   0.89680   0.01267  Uiso   1.00
C247   C     0.15750   0.33380   0.86000   0.01267  Uiso   1.00
C248   C     0.11050   0.27200   0.88860   0.01267  Uiso   1.00
C249   C     0.23340   0.34220   0.84210   0.01267  Uiso   1.00
C250   C     0.26380   0.28840   0.85010   0.01267  Uiso   1.00
C251   C     0.21780   0.22340   0.87730   0.01267  Uiso   1.00
C252   C     0.28410   0.41340   0.81320   0.01267  Uiso   1.00
C253   C     0.52426   0.31852   0.51995   0.01267  Uiso   1.00
C254   C     0.48831   0.23442   0.53273   0.01267  Uiso   1.00
C255   C     0.46586   0.20752   0.57212   0.01267  Uiso   1.00
C256   C     0.42652   0.12624   0.58356   0.01267  Uiso   1.00
C257   C     0.40000   0.09720   0.62430   0.01267  Uiso   1.00
C258   C     0.36910   0.01460   0.62380   0.01267  Uiso   1.00
C259   C     0.37684   0.99068   0.58360   0.01267  Uiso   1.00
C260   C     0.35240   0.91020   0.57170   0.01267  Uiso   1.00
C261   C     0.35200   0.88560   0.53210   0.01267  Uiso   1.00
C262   C     0.33111   0.80402   0.51890   0.01267  Uiso   1.00
C263   C     0.48220   0.27160   0.60422   0.01267  Uiso   1.00
C264   C     0.41170   0.27200   0.62450   0.01267  Uiso   1.00
C265   C     0.42550   0.32100   0.65810   0.01267  Uiso   1.00
C266   C     0.51180   0.37140   0.67110   0.01267  Uiso   1.00
C267   C     0.58340   0.37540   0.65007   0.01267  Uiso   1.00
C268   C     0.57017   0.32694   0.61606   0.01267  Uiso   1.00
C269   C     0.52630   0.41500   0.71010   0.01267  Uiso   1.00
C270   C     0.31730   0.84280   0.60410   0.01267  Uiso   1.00
C271   C     0.37200   0.84140   0.63430   0.01267  Uiso   1.00
C272   C     0.33720   0.77580   0.66220   0.01267  Uiso   1.00
C273   C     0.25160   0.71840   0.66030   0.01267  Uiso   1.00
C274   C     0.19410   0.71960   0.62900   0.01267  Uiso   1.00
C275   C     0.22920   0.78260   0.60110   0.01267  Uiso   1.00
C276   C     0.21120   0.64720   0.69100   0.01267  Uiso   1.00
C277   C     0.82970   0.74520   0.98020   0.01267  Uiso   1.00
C278   C     0.88620   0.82560   0.96830   0.01267  Uiso   1.00
C279   C     0.90390   0.85240   0.92740   0.01267  Uiso   1.00
C280   C     0.95490   0.93140   0.91520   0.01267  Uiso   1.00
C281   C     0.97180   0.96000   0.87490   0.01267  Uiso   1.00
C282   C     0.85850   0.78600   0.89680   0.01267  Uiso   1.00
C283   C     0.84250   0.66620   0.86000   0.01267  Uiso   1.00
C284   C     0.88950   0.72800   0.88860   0.01267  Uiso   1.00
C285   C     0.76660   0.65780   0.84210   0.01267  Uiso   1.00
C286   C     0.73620   0.71160   0.85010   0.01267  Uiso   1.00
C287   C     0.78220   0.77660   0.87730   0.01267  Uiso   1.00
C288   C     0.71590   0.58660   0.81320   0.01267  Uiso   1.00
N1     N     0.64907   0.05874   0.05841   0.01267  Uiso   1.00
N2     N     0.35093   0.94126   0.05841   0.01267  Uiso   1.00
N3     N     0.40967   0.05874   0.44159   0.01267  Uiso   1.00
N4     N     0.59033   0.94126   0.44159   0.01267  Uiso   1.00
N5     N     0.35093   0.94126   0.94159   0.01267  Uiso   1.00
N6     N     0.64907   0.05874   0.94159   0.01267  Uiso   1.00
N7     N     0.59033   0.94126   0.55841   0.01267  Uiso   1.00
N8     N     0.40967   0.05874   0.55841   0.01267  Uiso   1.00
N9     N     0.71680   0.18220   0.00000   0.01267  Uiso   1.00
N10    N     0.56790   0.93900   0.00000   0.01267  Uiso   1.00
N11    N     0.28320   0.81780   0.00000   0.01267  Uiso   1.00
N12    N     0.43210   0.06100   0.00000   0.01267  Uiso   1.00
N13    N     0.46540   0.18220   0.50000   0.01267  Uiso   1.00
N14    N     0.37110   0.93900   0.50000   0.01267  Uiso   1.00
N15    N     0.53460   0.81780   0.50000   0.01267  Uiso   1.00
N16    N     0.62890   0.06100   0.50000   0.01267  Uiso   1.00
N17    N     0.95740   0.87740   0.50000   0.01267  Uiso   1.00
N18    N     0.04260   0.12260   0.50000   0.01267  Uiso   1.00
N19    N     0.92000   0.87740   0.00000   0.01267  Uiso   1.00
N20    N     0.08000   0.12260   0.00000   0.01267  Uiso   1.00
N21    N     0.00000   0.00000   0.44030   0.01267  Uiso   1.00
N22    N     0.00000   0.00000   0.05970   0.01267  Uiso   1.00
N23    N     0.00000   0.00000   0.55970   0.01267  Uiso   1.00
N24    N     0.00000   0.00000   0.94030   0.01267  Uiso   1.00
O1     O     0.85351   0.45802   0.22358   0.01267  Uiso   1.00
O2     O     0.95380   0.41080   0.22849   0.01267  Uiso   1.00
O3     O     0.36920   0.63780   0.21220   0.01267  Uiso   1.00
O4     O     0.47975   0.60710   0.19288   0.01267  Uiso   1.00
O5     O     0.93519   0.58018   0.29897   0.01267  Uiso   1.00
O6     O     0.78660   0.55520   0.29700   0.01267  Uiso   1.00
O7     O     0.14649   0.54198   0.22358   0.01267  Uiso   1.00
O8     O     0.04620   0.58920   0.22849   0.01267  Uiso   1.00
O9     O     0.63080   0.36220   0.21220   0.01267  Uiso   1.00
O10    O     0.52025   0.39290   0.19288   0.01267  Uiso   1.00
O11    O     0.06481   0.41982   0.29897   0.01267  Uiso   1.00
O12    O     0.21340   0.44480   0.29700   0.01267  Uiso   1.00
O13    O     0.60451   0.45802   0.27642   0.01267  Uiso   1.00
O14    O     0.45700   0.41080   0.27151   0.01267  Uiso   1.00
O15    O     0.26860   0.63780   0.28780   0.01267  Uiso   1.00
O16    O     0.12735   0.60710   0.30712   0.01267  Uiso   1.00
O17    O     0.64499   0.58018   0.20103   0.01267  Uiso   1.00
O18    O     0.76860   0.55520   0.20300   0.01267  Uiso   1.00
O19    O     0.39549   0.54198   0.27642   0.01267  Uiso   1.00
O20    O     0.54300   0.58920   0.27151   0.01267  Uiso   1.00
O21    O     0.73140   0.36220   0.28780   0.01267  Uiso   1.00
O22    O     0.87265   0.39290   0.30712   0.01267  Uiso   1.00
O23    O     0.35501   0.41982   0.20103   0.01267  Uiso   1.00
O24    O     0.23140   0.44480   0.20300   0.01267  Uiso   1.00
O25    O     0.14649   0.54198   0.77642   0.01267  Uiso   1.00
O26    O     0.04620   0.58920   0.77151   0.01267  Uiso   1.00
O27    O     0.63080   0.36220   0.78780   0.01267  Uiso   1.00
O28    O     0.52025   0.39290   0.80712   0.01267  Uiso   1.00
O29    O     0.06481   0.41982   0.70103   0.01267  Uiso   1.00
O30    O     0.21340   0.44480   0.70300   0.01267  Uiso   1.00
O31    O     0.85351   0.45802   0.77642   0.01267  Uiso   1.00
O32    O     0.95380   0.41080   0.77151   0.01267  Uiso   1.00
O33    O     0.36920   0.63780   0.78780   0.01267  Uiso   1.00
O34    O     0.47975   0.60710   0.80712   0.01267  Uiso   1.00
O35    O     0.93519   0.58018   0.70103   0.01267  Uiso   1.00
O36    O     0.78660   0.55520   0.70300   0.01267  Uiso   1.00
O37    O     0.39549   0.54198   0.72358   0.01267  Uiso   1.00
O38    O     0.54300   0.58920   0.72849   0.01267  Uiso   1.00
O39    O     0.73140   0.36220   0.71220   0.01267  Uiso   1.00
O40    O     0.87265   0.39290   0.69288   0.01267  Uiso   1.00
O41    O     0.35501   0.41982   0.79897   0.01267  Uiso   1.00
O42    O     0.23140   0.44480   0.79700   0.01267  Uiso   1.00
O43    O     0.60451   0.45802   0.72358   0.01267  Uiso   1.00
O44    O     0.45700   0.41080   0.72849   0.01267  Uiso   1.00
O45    O     0.26860   0.63780   0.71220   0.01267  Uiso   1.00
O46    O     0.12735   0.60710   0.69288   0.01267  Uiso   1.00
O47    O     0.64499   0.58018   0.79897   0.01267  Uiso   1.00
O48    O     0.76860   0.55520   0.79700   0.01267  Uiso   1.00
