data_HAKCIG_clean
_audit_creation_date              2014-07-02
_audit_creation_method            'Materials Studio'
_symmetry_space_group_name_H-M    'P1'
_symmetry_Int_Tables_number       1
_symmetry_cell_setting            triclinic
loop_
_symmetry_equiv_pos_as_xyz
  x,y,z
_cell_length_a                    14.6524
_cell_length_b                    15.5911
_cell_length_c                    15.5911
_cell_angle_alpha                 106.1040
_cell_angle_beta                  94.5845
_cell_angle_gamma                 85.4155
loop_
_atom_site_label
_atom_site_type_symbol
_atom_site_fract_x
_atom_site_fract_y
_atom_site_fract_z
_atom_site_U_iso_or_equiv
_atom_site_adp_type
_atom_site_occupancy
Cu1    Cu    0.02188   0.24817   0.64443   0.01267  Uiso   1.00
Cu2    Cu    0.47812   0.64443   0.24817   0.01267  Uiso   1.00
Cu3    Cu    0.97812   0.75183   0.35557   0.01267  Uiso   1.00
Cu4    Cu    0.52188   0.35557   0.75183   0.01267  Uiso   1.00
Cu5    Cu    0.75000   0.14103   0.14103   0.01267  Uiso   1.00
Cu6    Cu    0.25000   0.85897   0.85897   0.01267  Uiso   1.00
H1     H     0.18950   0.49290   0.55890   0.01267  Uiso   1.00
H2     H     0.03190   0.31000   0.27320   0.01267  Uiso   1.00
H3     H     0.93340   0.22630   0.16530   0.01267  Uiso   1.00
H4     H     0.78060   0.19360   0.34800   0.01267  Uiso   1.00
H5     H     0.87350   0.27790   0.46170   0.01267  Uiso   1.00
H6     H     0.06020   0.03570   0.35450   0.01267  Uiso   1.00
H7     H     0.23660   0.19630   0.69510   0.01267  Uiso   1.00
H8     H     0.36260   0.26390   0.77430   0.01267  Uiso   1.00
H9     H     0.44710   0.30890   0.55870   0.01267  Uiso   1.00
H10    H     0.32180   0.24370   0.47350   0.01267  Uiso   1.00
H11    H     0.61980   0.84820   0.01100   0.01267  Uiso   1.00
H12    H     0.58130   0.03000   0.78200   0.01267  Uiso   1.00
H13    H     0.55340   0.14320   0.71160   0.01267  Uiso   1.00
H14    H     0.56690   0.32690   0.94110   0.01267  Uiso   1.00
H15    H     0.59790   0.21990   0.01870   0.01267  Uiso   1.00
H16    H     0.31050   0.55890   0.49290   0.01267  Uiso   1.00
H17    H     0.46810   0.27320   0.31000   0.01267  Uiso   1.00
H18    H     0.56660   0.16530   0.22630   0.01267  Uiso   1.00
H19    H     0.71940   0.34800   0.19360   0.01267  Uiso   1.00
H20    H     0.62650   0.46170   0.27790   0.01267  Uiso   1.00
H21    H     0.43980   0.35450   0.03570   0.01267  Uiso   1.00
H22    H     0.26340   0.69510   0.19630   0.01267  Uiso   1.00
H23    H     0.13740   0.77430   0.26390   0.01267  Uiso   1.00
H24    H     0.05290   0.55870   0.30890   0.01267  Uiso   1.00
H25    H     0.17820   0.47350   0.24370   0.01267  Uiso   1.00
H26    H     0.88020   0.01100   0.84820   0.01267  Uiso   1.00
H27    H     0.91870   0.78200   0.03000   0.01267  Uiso   1.00
H28    H     0.94660   0.71160   0.14320   0.01267  Uiso   1.00
H29    H     0.93310   0.94110   0.32690   0.01267  Uiso   1.00
H30    H     0.90210   0.01870   0.21990   0.01267  Uiso   1.00
H31    H     0.81050   0.50710   0.44110   0.01267  Uiso   1.00
H32    H     0.96810   0.69000   0.72680   0.01267  Uiso   1.00
H33    H     0.06660   0.77370   0.83470   0.01267  Uiso   1.00
H34    H     0.21940   0.80640   0.65200   0.01267  Uiso   1.00
H35    H     0.12650   0.72210   0.53830   0.01267  Uiso   1.00
H36    H     0.93980   0.96430   0.64550   0.01267  Uiso   1.00
H37    H     0.76340   0.80370   0.30490   0.01267  Uiso   1.00
H38    H     0.63740   0.73610   0.22570   0.01267  Uiso   1.00
H39    H     0.55290   0.69110   0.44130   0.01267  Uiso   1.00
H40    H     0.67820   0.75630   0.52650   0.01267  Uiso   1.00
H41    H     0.38020   0.15180   0.98900   0.01267  Uiso   1.00
H42    H     0.41870   0.97000   0.21800   0.01267  Uiso   1.00
H43    H     0.44660   0.85680   0.28840   0.01267  Uiso   1.00
H44    H     0.43310   0.67310   0.05890   0.01267  Uiso   1.00
H45    H     0.40210   0.78010   0.98130   0.01267  Uiso   1.00
H46    H     0.68950   0.44110   0.50710   0.01267  Uiso   1.00
H47    H     0.53190   0.72680   0.69000   0.01267  Uiso   1.00
H48    H     0.43340   0.83470   0.77370   0.01267  Uiso   1.00
H49    H     0.28060   0.65200   0.80640   0.01267  Uiso   1.00
H50    H     0.37350   0.53830   0.72210   0.01267  Uiso   1.00
H51    H     0.56020   0.64550   0.96430   0.01267  Uiso   1.00
H52    H     0.73660   0.30490   0.80370   0.01267  Uiso   1.00
H53    H     0.86260   0.22570   0.73610   0.01267  Uiso   1.00
H54    H     0.94710   0.44130   0.69110   0.01267  Uiso   1.00
H55    H     0.82180   0.52650   0.75630   0.01267  Uiso   1.00
H56    H     0.11980   0.98900   0.15180   0.01267  Uiso   1.00
H57    H     0.08130   0.21800   0.97000   0.01267  Uiso   1.00
H58    H     0.05340   0.28840   0.85680   0.01267  Uiso   1.00
H59    H     0.06690   0.05890   0.67310   0.01267  Uiso   1.00
H60    H     0.09790   0.98130   0.78010   0.01267  Uiso   1.00
C1     C     0.13660   0.40007   0.67293   0.01267  Uiso   1.00
C2     C     0.10670   0.40132   0.57888   0.01267  Uiso   1.00
C3     C     0.14410   0.45128   0.53412   0.01267  Uiso   1.00
C4     C     0.02850   0.35403   0.44977   0.01267  Uiso   1.00
C5     C     0.96510   0.30320   0.38000   0.01267  Uiso   1.00
C6     C     0.98060   0.28683   0.29057   0.01267  Uiso   1.00
C7     C     0.92140   0.23670   0.22650   0.01267  Uiso   1.00
C8     C     0.83250   0.21797   0.33283   0.01267  Uiso   1.00
C9     C     0.88770   0.26771   0.40109   0.01267  Uiso   1.00
C10    C     0.95160   0.11078   0.50402   0.01267  Uiso   1.00
C11    C     0.04820   0.11496   0.48250   0.01267  Uiso   1.00
C12    C     0.08940   0.07387   0.40593   0.01267  Uiso   1.00
C13    C     0.18750   0.16585   0.52171   0.01267  Uiso   1.00
C14    C     0.26530   0.21158   0.57528   0.01267  Uiso   1.00
C15    C     0.27920   0.21919   0.66545   0.01267  Uiso   1.00
C16    C     0.35420   0.25958   0.71226   0.01267  Uiso   1.00
C17    C     0.40310   0.28593   0.58667   0.01267  Uiso   1.00
C18    C     0.32920   0.24672   0.53528   0.01267  Uiso   1.00
C19    C     0.68710   0.98344   0.15976   0.01267  Uiso   1.00
C20    C     0.65090   0.97877   0.06563   0.01267  Uiso   1.00
C21    C     0.62100   0.90618   0.00262   0.01267  Uiso   1.00
C22    C     0.61260   0.04319   0.95621   0.01267  Uiso   1.00
C23    C     0.59370   0.11250   0.90870   0.01267  Uiso   1.00
C24    C     0.57940   0.09077   0.81643   0.01267  Uiso   1.00
C25    C     0.56220   0.15898   0.77502   0.01267  Uiso   1.00
C26    C     0.57040   0.26567   0.90829   0.01267  Uiso   1.00
C27    C     0.58880   0.20222   0.95538   0.01267  Uiso   1.00
C28    C     0.36340   0.67293   0.40007   0.01267  Uiso   1.00
C29    C     0.39330   0.57888   0.40132   0.01267  Uiso   1.00
C30    C     0.35590   0.53412   0.45128   0.01267  Uiso   1.00
C31    C     0.47150   0.44977   0.35403   0.01267  Uiso   1.00
C32    C     0.53490   0.38000   0.30320   0.01267  Uiso   1.00
C33    C     0.51940   0.29057   0.28683   0.01267  Uiso   1.00
C34    C     0.57860   0.22650   0.23670   0.01267  Uiso   1.00
C35    C     0.66750   0.33283   0.21797   0.01267  Uiso   1.00
C36    C     0.61230   0.40109   0.26771   0.01267  Uiso   1.00
C37    C     0.54840   0.50402   0.11078   0.01267  Uiso   1.00
C38    C     0.45180   0.48250   0.11496   0.01267  Uiso   1.00
C39    C     0.41060   0.40593   0.07387   0.01267  Uiso   1.00
C40    C     0.31250   0.52171   0.16585   0.01267  Uiso   1.00
C41    C     0.23470   0.57528   0.21158   0.01267  Uiso   1.00
C42    C     0.22080   0.66545   0.21919   0.01267  Uiso   1.00
C43    C     0.14580   0.71226   0.25958   0.01267  Uiso   1.00
C44    C     0.09690   0.58667   0.28593   0.01267  Uiso   1.00
C45    C     0.17080   0.53528   0.24672   0.01267  Uiso   1.00
C46    C     0.81290   0.15976   0.98344   0.01267  Uiso   1.00
C47    C     0.84910   0.06563   0.97877   0.01267  Uiso   1.00
C48    C     0.87900   0.00262   0.90618   0.01267  Uiso   1.00
C49    C     0.88740   0.95621   0.04319   0.01267  Uiso   1.00
C50    C     0.90630   0.90870   0.11250   0.01267  Uiso   1.00
C51    C     0.92060   0.81643   0.09077   0.01267  Uiso   1.00
C52    C     0.93780   0.77502   0.15898   0.01267  Uiso   1.00
C53    C     0.92960   0.90829   0.26567   0.01267  Uiso   1.00
C54    C     0.91120   0.95538   0.20222   0.01267  Uiso   1.00
C55    C     0.86340   0.59993   0.32707   0.01267  Uiso   1.00
C56    C     0.89330   0.59868   0.42112   0.01267  Uiso   1.00
C57    C     0.85590   0.54872   0.46588   0.01267  Uiso   1.00
C58    C     0.97150   0.64597   0.55023   0.01267  Uiso   1.00
C59    C     0.03490   0.69680   0.62000   0.01267  Uiso   1.00
C60    C     0.01940   0.71317   0.70943   0.01267  Uiso   1.00
C61    C     0.07860   0.76330   0.77350   0.01267  Uiso   1.00
C62    C     0.16750   0.78203   0.66717   0.01267  Uiso   1.00
C63    C     0.11230   0.73229   0.59891   0.01267  Uiso   1.00
C64    C     0.04840   0.88922   0.49598   0.01267  Uiso   1.00
C65    C     0.95180   0.88504   0.51750   0.01267  Uiso   1.00
C66    C     0.91060   0.92613   0.59407   0.01267  Uiso   1.00
C67    C     0.81250   0.83415   0.47829   0.01267  Uiso   1.00
C68    C     0.73470   0.78842   0.42472   0.01267  Uiso   1.00
C69    C     0.72080   0.78081   0.33455   0.01267  Uiso   1.00
C70    C     0.64580   0.74042   0.28774   0.01267  Uiso   1.00
C71    C     0.59690   0.71407   0.41333   0.01267  Uiso   1.00
C72    C     0.67080   0.75328   0.46472   0.01267  Uiso   1.00
C73    C     0.31290   0.01656   0.84024   0.01267  Uiso   1.00
C74    C     0.34910   0.02123   0.93437   0.01267  Uiso   1.00
C75    C     0.37900   0.09382   0.99738   0.01267  Uiso   1.00
C76    C     0.38740   0.95681   0.04379   0.01267  Uiso   1.00
C77    C     0.40630   0.88750   0.09130   0.01267  Uiso   1.00
C78    C     0.42060   0.90923   0.18357   0.01267  Uiso   1.00
C79    C     0.43780   0.84102   0.22498   0.01267  Uiso   1.00
C80    C     0.42960   0.73433   0.09171   0.01267  Uiso   1.00
C81    C     0.41120   0.79778   0.04462   0.01267  Uiso   1.00
C82    C     0.63660   0.32707   0.59993   0.01267  Uiso   1.00
C83    C     0.60670   0.42112   0.59868   0.01267  Uiso   1.00
C84    C     0.64410   0.46588   0.54872   0.01267  Uiso   1.00
C85    C     0.52850   0.55023   0.64597   0.01267  Uiso   1.00
C86    C     0.46510   0.62000   0.69680   0.01267  Uiso   1.00
C87    C     0.48060   0.70943   0.71317   0.01267  Uiso   1.00
C88    C     0.42140   0.77350   0.76330   0.01267  Uiso   1.00
C89    C     0.33250   0.66717   0.78203   0.01267  Uiso   1.00
C90    C     0.38770   0.59891   0.73229   0.01267  Uiso   1.00
C91    C     0.45160   0.49598   0.88922   0.01267  Uiso   1.00
C92    C     0.54820   0.51750   0.88504   0.01267  Uiso   1.00
C93    C     0.58940   0.59407   0.92613   0.01267  Uiso   1.00
C94    C     0.68750   0.47829   0.83415   0.01267  Uiso   1.00
C95    C     0.76530   0.42472   0.78842   0.01267  Uiso   1.00
C96    C     0.77920   0.33455   0.78081   0.01267  Uiso   1.00
C97    C     0.85420   0.28774   0.74042   0.01267  Uiso   1.00
C98    C     0.90310   0.41333   0.71407   0.01267  Uiso   1.00
C99    C     0.82920   0.46472   0.75328   0.01267  Uiso   1.00
C100   C     0.18710   0.84024   0.01656   0.01267  Uiso   1.00
C101   C     0.15090   0.93437   0.02123   0.01267  Uiso   1.00
C102   C     0.12100   0.99738   0.09382   0.01267  Uiso   1.00
C103   C     0.11260   0.04379   0.95681   0.01267  Uiso   1.00
C104   C     0.09370   0.09130   0.88750   0.01267  Uiso   1.00
C105   C     0.07940   0.18357   0.90923   0.01267  Uiso   1.00
C106   C     0.06220   0.22498   0.84102   0.01267  Uiso   1.00
C107   C     0.07040   0.09171   0.73433   0.01267  Uiso   1.00
C108   C     0.08880   0.04462   0.79778   0.01267  Uiso   1.00
S1     S     0.09842   0.42912   0.42726   0.01267  Uiso   1.00
S2     S     0.20063   0.10003   0.41435   0.01267  Uiso   1.00
S3     S     0.58597   0.93384   0.90652   0.01267  Uiso   1.00
S4     S     0.40158   0.42726   0.42912   0.01267  Uiso   1.00
S5     S     0.29937   0.41435   0.10003   0.01267  Uiso   1.00
S6     S     0.91403   0.90652   0.93384   0.01267  Uiso   1.00
S7     S     0.90158   0.57088   0.57274   0.01267  Uiso   1.00
S8     S     0.79937   0.89997   0.58565   0.01267  Uiso   1.00
S9     S     0.41403   0.06616   0.09348   0.01267  Uiso   1.00
S10    S     0.59842   0.57274   0.57088   0.01267  Uiso   1.00
S11    S     0.70063   0.58565   0.89997   0.01267  Uiso   1.00
S12    S     0.08597   0.09348   0.06616   0.01267  Uiso   1.00
N1     N     0.03950   0.34731   0.53091   0.01267  Uiso   1.00
N2     N     0.84800   0.20206   0.24608   0.01267  Uiso   1.00
N3     N     0.10390   0.16749   0.54851   0.01267  Uiso   1.00
N4     N     0.41610   0.29315   0.67469   0.01267  Uiso   1.00
N5     N     0.64600   0.05630   0.03926   0.01267  Uiso   1.00
N6     N     0.55727   0.24552   0.81936   0.01267  Uiso   1.00
N7     N     0.46050   0.53091   0.34731   0.01267  Uiso   1.00
N8     N     0.65200   0.24608   0.20206   0.01267  Uiso   1.00
N9     N     0.39610   0.54851   0.16749   0.01267  Uiso   1.00
N10    N     0.08390   0.67469   0.29315   0.01267  Uiso   1.00
N11    N     0.85400   0.03926   0.05630   0.01267  Uiso   1.00
N12    N     0.94273   0.81936   0.24552   0.01267  Uiso   1.00
N13    N     0.96050   0.65269   0.46909   0.01267  Uiso   1.00
N14    N     0.15200   0.79794   0.75392   0.01267  Uiso   1.00
N15    N     0.89610   0.83251   0.45149   0.01267  Uiso   1.00
N16    N     0.58390   0.70685   0.32531   0.01267  Uiso   1.00
N17    N     0.35400   0.94370   0.96074   0.01267  Uiso   1.00
N18    N     0.44273   0.75448   0.18064   0.01267  Uiso   1.00
N19    N     0.53950   0.46909   0.65269   0.01267  Uiso   1.00
N20    N     0.34800   0.75392   0.79794   0.01267  Uiso   1.00
N21    N     0.60390   0.45149   0.83251   0.01267  Uiso   1.00
N22    N     0.91610   0.32531   0.70685   0.01267  Uiso   1.00
N23    N     0.14600   0.96074   0.94370   0.01267  Uiso   1.00
N24    N     0.05727   0.18064   0.75448   0.01267  Uiso   1.00
O1     O     0.10610   0.34169   0.70329   0.01267  Uiso   1.00
O2     O     0.19096   0.45543   0.71443   0.01267  Uiso   1.00
O3     O     0.93042   0.16337   0.57939   0.01267  Uiso   1.00
O4     O     0.89991   0.06026   0.45098   0.01267  Uiso   1.00
O5     O     0.71830   0.05801   0.20449   0.01267  Uiso   1.00
O6     O     0.68473   0.91757   0.18927   0.01267  Uiso   1.00
O7     O     0.39390   0.70329   0.34169   0.01267  Uiso   1.00
O8     O     0.30904   0.71443   0.45543   0.01267  Uiso   1.00
O9     O     0.56958   0.57939   0.16337   0.01267  Uiso   1.00
O10    O     0.60009   0.45098   0.06026   0.01267  Uiso   1.00
O11    O     0.78170   0.20449   0.05801   0.01267  Uiso   1.00
O12    O     0.81527   0.18927   0.91757   0.01267  Uiso   1.00
O13    O     0.89390   0.65831   0.29671   0.01267  Uiso   1.00
O14    O     0.80904   0.54457   0.28557   0.01267  Uiso   1.00
O15    O     0.06958   0.83663   0.42061   0.01267  Uiso   1.00
O16    O     0.10009   0.93974   0.54902   0.01267  Uiso   1.00
O17    O     0.28170   0.94199   0.79551   0.01267  Uiso   1.00
O18    O     0.31527   0.08243   0.81073   0.01267  Uiso   1.00
O19    O     0.60610   0.29671   0.65831   0.01267  Uiso   1.00
O20    O     0.69096   0.28557   0.54457   0.01267  Uiso   1.00
O21    O     0.43042   0.42061   0.83663   0.01267  Uiso   1.00
O22    O     0.39991   0.54902   0.93974   0.01267  Uiso   1.00
O23    O     0.21830   0.79551   0.94199   0.01267  Uiso   1.00
O24    O     0.18473   0.81073   0.08243   0.01267  Uiso   1.00
