data_image0
_cell_length_a       13.81
_cell_length_b       13.81
_cell_length_c       18.33
_cell_angle_alpha    90
_cell_angle_beta     90
_cell_angle_gamma    120

_symmetry_space_group_name_H-M    "P 1"
_symmetry_int_tables_number       1

loop_
  _symmetry_equiv_pos_as_xyz
  'x, y, z'

loop_
  _atom_site_label
  _atom_site_occupancy
  _atom_site_fract_x
  _atom_site_fract_y
  _atom_site_fract_z
  _atom_site_thermal_displace_type
  _atom_site_B_iso_or_equiv
  _atom_site_type_symbol
  O1       1.0000 0.64900  0.13650  0.66450  Biso   1.000  O
  C1       1.0000 0.59910  0.02600  0.53360  Biso   1.000  C
  H1       1.0000 0.66540  0.04210  0.55670  Biso   1.000  H
  O2       1.0000 0.86350  0.51250  0.66450  Biso   1.000  O
  C2       1.0000 0.97400  0.57310  0.53360  Biso   1.000  C
  H2       1.0000 0.95790  0.62330  0.55670  Biso   1.000  H
  O3       1.0000 0.48750  0.35100  0.66450  Biso   1.000  O
  C3       1.0000 0.42690  0.40090  0.53360  Biso   1.000  C
  H3       1.0000 0.37670  0.33460  0.55670  Biso   1.000  H
  O4       1.0000 0.35100  0.86350  0.16450  Biso   1.000  O
  C4       1.0000 0.40090  0.97400  0.03360  Biso   1.000  C
  H4       1.0000 0.33460  0.95790  0.05670  Biso   1.000  H
  O5       1.0000 0.13650  0.48750  0.16450  Biso   1.000  O
  C5       1.0000 0.02600  0.42690  0.03360  Biso   1.000  C
  H5       1.0000 0.04210  0.37670  0.05670  Biso   1.000  H
  O6       1.0000 0.51250  0.64900  0.16450  Biso   1.000  O
  C6       1.0000 0.57310  0.59910  0.03360  Biso   1.000  C
  H6       1.0000 0.62330  0.66540  0.05670  Biso   1.000  H
  O7       1.0000 0.13650  0.64900  0.33550  Biso   1.000  O
  C7       1.0000 0.02600  0.59910  0.46640  Biso   1.000  C
  H7       1.0000 0.04210  0.66540  0.44330  Biso   1.000  H
  O8       1.0000 0.51250  0.86350  0.33550  Biso   1.000  O
  C8       1.0000 0.57310  0.97400  0.46640  Biso   1.000  C
  H8       1.0000 0.62330  0.95790  0.44330  Biso   1.000  H
  O9       1.0000 0.35100  0.48750  0.33550  Biso   1.000  O
  C9       1.0000 0.40090  0.42690  0.46640  Biso   1.000  C
  H9       1.0000 0.33460  0.37670  0.44330  Biso   1.000  H
  O10      1.0000 0.86350  0.35100  0.83550  Biso   1.000  O
  C10      1.0000 0.97400  0.40090  0.96640  Biso   1.000  C
  H10      1.0000 0.95790  0.33460  0.94330  Biso   1.000  H
  O11      1.0000 0.48750  0.13650  0.83550  Biso   1.000  O
  C11      1.0000 0.42690  0.02600  0.96640  Biso   1.000  C
  H11      1.0000 0.37670  0.04210  0.94330  Biso   1.000  H
  O12      1.0000 0.64900  0.51250  0.83550  Biso   1.000  O
  C12      1.0000 0.59910  0.57310  0.96640  Biso   1.000  C
  H12      1.0000 0.66540  0.62330  0.94330  Biso   1.000  H
  O13      1.0000 0.35100  0.86350  0.33550  Biso   1.000  O
  C13      1.0000 0.40090  0.97400  0.46640  Biso   1.000  C
  H13      1.0000 0.33460  0.95790  0.44330  Biso   1.000  H
  O14      1.0000 0.13650  0.48750  0.33550  Biso   1.000  O
  C14      1.0000 0.02600  0.42690  0.46640  Biso   1.000  C
  H14      1.0000 0.04210  0.37670  0.44330  Biso   1.000  H
  O15      1.0000 0.51250  0.64900  0.33550  Biso   1.000  O
  C15      1.0000 0.57310  0.59910  0.46640  Biso   1.000  C
  H15      1.0000 0.62330  0.66540  0.44330  Biso   1.000  H
  O16      1.0000 0.64900  0.13650  0.83550  Biso   1.000  O
  C16      1.0000 0.59910  0.02600  0.96640  Biso   1.000  C
  H16      1.0000 0.66540  0.04210  0.94330  Biso   1.000  H
  O17      1.0000 0.86350  0.51250  0.83550  Biso   1.000  O
  C17      1.0000 0.97400  0.57310  0.96640  Biso   1.000  C
  H17      1.0000 0.95790  0.62330  0.94330  Biso   1.000  H
  O18      1.0000 0.48750  0.35100  0.83550  Biso   1.000  O
  C18      1.0000 0.42690  0.40090  0.96640  Biso   1.000  C
  H18      1.0000 0.37670  0.33460  0.94330  Biso   1.000  H
  O19      1.0000 0.86350  0.35100  0.66450  Biso   1.000  O
  C19      1.0000 0.97400  0.40090  0.53360  Biso   1.000  C
  H19      1.0000 0.95790  0.33460  0.55670  Biso   1.000  H
  O20      1.0000 0.48750  0.13650  0.66450  Biso   1.000  O
  C20      1.0000 0.42690  0.02600  0.53360  Biso   1.000  C
  H20      1.0000 0.37670  0.04210  0.55670  Biso   1.000  H
  O21      1.0000 0.64900  0.51250  0.66450  Biso   1.000  O
  C21      1.0000 0.59910  0.57310  0.53360  Biso   1.000  C
  H21      1.0000 0.66540  0.62330  0.55670  Biso   1.000  H
  O22      1.0000 0.13650  0.64900  0.16450  Biso   1.000  O
  C22      1.0000 0.02600  0.59910  0.03360  Biso   1.000  C
  H22      1.0000 0.04210  0.66540  0.05670  Biso   1.000  H
  O23      1.0000 0.51250  0.86350  0.16450  Biso   1.000  O
  C23      1.0000 0.57310  0.97400  0.03360  Biso   1.000  C
  H23      1.0000 0.62330  0.95790  0.05670  Biso   1.000  H
  O24      1.0000 0.35100  0.48750  0.16450  Biso   1.000  O
  C24      1.0000 0.40090  0.42690  0.03360  Biso   1.000  C
  H24      1.0000 0.33460  0.37670  0.05670  Biso   1.000  H
  In1      1.0000 0.75119  0.24881  0.75000  Biso   1.000  In
  N1       1.0000 0.84080  0.15920  0.75000  Biso   1.000  N
  In2      1.0000 0.75119  0.50238  0.75000  Biso   1.000  In
  N2       1.0000 0.84080  0.68160  0.75000  Biso   1.000  N
  In3      1.0000 0.49762  0.24881  0.75000  Biso   1.000  In
  N3       1.0000 0.31840  0.15920  0.75000  Biso   1.000  N
  In4      1.0000 0.24881  0.75119  0.25000  Biso   1.000  In
  N4       1.0000 0.15920  0.84080  0.25000  Biso   1.000  N
  In5      1.0000 0.24881  0.49762  0.25000  Biso   1.000  In
  N5       1.0000 0.15920  0.31840  0.25000  Biso   1.000  N
  In6      1.0000 0.50238  0.75119  0.25000  Biso   1.000  In
  N6       1.0000 0.68160  0.84080  0.25000  Biso   1.000  N
  O25      1.0000 0.66667  0.33333  0.75000  Biso   1.000  O
  O26      1.0000 0.33333  0.66667  0.25000  Biso   1.000  O
  C25      1.0000 0.55710  0.11420  0.63780  Biso   1.000  C
  C26      1.0000 0.52700  0.05400  0.56630  Biso   1.000  C
  C27      1.0000 0.88580  0.44290  0.63780  Biso   1.000  C
  C28      1.0000 0.94600  0.47300  0.56630  Biso   1.000  C
  C29      1.0000 0.55710  0.44290  0.63780  Biso   1.000  C
  C30      1.0000 0.52700  0.47300  0.56630  Biso   1.000  C
  C31      1.0000 0.44290  0.88580  0.13780  Biso   1.000  C
  C32      1.0000 0.47300  0.94600  0.06630  Biso   1.000  C
  C33      1.0000 0.11420  0.55710  0.13780  Biso   1.000  C
  C34      1.0000 0.05400  0.52700  0.06630  Biso   1.000  C
  C35      1.0000 0.44290  0.55710  0.13780  Biso   1.000  C
  C36      1.0000 0.47300  0.52700  0.06630  Biso   1.000  C
  C37      1.0000 0.11420  0.55710  0.36220  Biso   1.000  C
  C38      1.0000 0.05400  0.52700  0.43370  Biso   1.000  C
  C39      1.0000 0.44290  0.88580  0.36220  Biso   1.000  C
  C40      1.0000 0.47300  0.94600  0.43370  Biso   1.000  C
  C41      1.0000 0.44290  0.55710  0.36220  Biso   1.000  C
  C42      1.0000 0.47300  0.52700  0.43370  Biso   1.000  C
  C43      1.0000 0.88580  0.44290  0.86220  Biso   1.000  C
  C44      1.0000 0.94600  0.47300  0.93370  Biso   1.000  C
  C45      1.0000 0.55710  0.11420  0.86220  Biso   1.000  C
  C46      1.0000 0.52700  0.05400  0.93370  Biso   1.000  C
  C47      1.0000 0.55710  0.44290  0.86220  Biso   1.000  C
  C48      1.0000 0.52700  0.47300  0.93370  Biso   1.000  C
  C49      1.0000 0.87360  0.12640  0.69620  Biso   1.000  C
  N7       1.0000 0.92730  0.07270  0.71240  Biso   1.000  N
  H25      1.0000 0.86080  0.13920  0.64830  Biso   1.000  H
  C50      1.0000 0.87360  0.74720  0.69620  Biso   1.000  C
  N8       1.0000 0.92730  0.85460  0.71240  Biso   1.000  N
  H26      1.0000 0.86080  0.72160  0.64830  Biso   1.000  H
  C51      1.0000 0.25280  0.12640  0.69620  Biso   1.000  C
  N9       1.0000 0.14540  0.07270  0.71240  Biso   1.000  N
  H27      1.0000 0.27840  0.13920  0.64830  Biso   1.000  H
  C52      1.0000 0.12640  0.87360  0.19620  Biso   1.000  C
  N10      1.0000 0.07270  0.92730  0.21240  Biso   1.000  N
  H28      1.0000 0.13920  0.86080  0.14830  Biso   1.000  H
  C53      1.0000 0.12640  0.25280  0.19620  Biso   1.000  C
  N11      1.0000 0.07270  0.14540  0.21240  Biso   1.000  N
  H29      1.0000 0.13920  0.27840  0.14830  Biso   1.000  H
  C54      1.0000 0.74720  0.87360  0.19620  Biso   1.000  C
  N12      1.0000 0.85460  0.92730  0.21240  Biso   1.000  N
  H30      1.0000 0.72160  0.86080  0.14830  Biso   1.000  H
  C55      1.0000 0.12640  0.87360  0.30380  Biso   1.000  C
  N13      1.0000 0.07270  0.92730  0.28760  Biso   1.000  N
  H31      1.0000 0.13920  0.86080  0.35170  Biso   1.000  H
  C56      1.0000 0.74720  0.87360  0.30380  Biso   1.000  C
  N14      1.0000 0.85460  0.92730  0.28760  Biso   1.000  N
  H32      1.0000 0.72160  0.86080  0.35170  Biso   1.000  H
  C57      1.0000 0.12640  0.25280  0.30380  Biso   1.000  C
  N15      1.0000 0.07270  0.14540  0.28760  Biso   1.000  N
  H33      1.0000 0.13920  0.27840  0.35170  Biso   1.000  H
  C58      1.0000 0.87360  0.12640  0.80380  Biso   1.000  C
  N16      1.0000 0.92730  0.07270  0.78760  Biso   1.000  N
  H34      1.0000 0.86080  0.13920  0.85170  Biso   1.000  H
  C59      1.0000 0.25280  0.12640  0.80380  Biso   1.000  C
  N17      1.0000 0.14540  0.07270  0.78760  Biso   1.000  N
  H35      1.0000 0.27840  0.13920  0.85170  Biso   1.000  H
  C60      1.0000 0.87360  0.74720  0.80380  Biso   1.000  C
  N18      1.0000 0.92730  0.85460  0.78760  Biso   1.000  N
  H36      1.0000 0.86080  0.72160  0.85170  Biso   1.000  H
