data_image0
_cell_length_a       13.857
_cell_length_b       13.857
_cell_length_c       17.925
_cell_angle_alpha    90
_cell_angle_beta     90
_cell_angle_gamma    120

_symmetry_space_group_name_H-M    "P 1"
_symmetry_int_tables_number       1

loop_
  _symmetry_equiv_pos_as_xyz
  'x, y, z'

loop_
  _atom_site_label
  _atom_site_occupancy
  _atom_site_fract_x
  _atom_site_fract_y
  _atom_site_fract_z
  _atom_site_thermal_displace_type
  _atom_site_B_iso_or_equiv
  _atom_site_type_symbol
  O1       1.0000 0.64970  0.50590  0.33240  Biso   1.000  O
  C1       1.0000 0.59870  0.56980  0.46600  Biso   1.000  C
  H1       1.0000 0.66610  0.61880  0.44330  Biso   1.000  H
  O2       1.0000 0.49410  0.14380  0.33240  Biso   1.000  O
  C2       1.0000 0.43020  0.02890  0.46600  Biso   1.000  C
  H2       1.0000 0.38120  0.04730  0.44330  Biso   1.000  H
  O3       1.0000 0.85620  0.35030  0.33240  Biso   1.000  O
  C3       1.0000 0.97110  0.40130  0.46600  Biso   1.000  C
  H3       1.0000 0.95270  0.33390  0.44330  Biso   1.000  H
  O4       1.0000 0.35030  0.49410  0.83240  Biso   1.000  O
  C4       1.0000 0.40130  0.43020  0.96600  Biso   1.000  C
  H4       1.0000 0.33390  0.38120  0.94330  Biso   1.000  H
  O5       1.0000 0.50590  0.85620  0.83240  Biso   1.000  O
  C5       1.0000 0.56980  0.97110  0.96600  Biso   1.000  C
  H5       1.0000 0.61880  0.95270  0.94330  Biso   1.000  H
  O6       1.0000 0.14380  0.64970  0.83240  Biso   1.000  O
  C6       1.0000 0.02890  0.59870  0.96600  Biso   1.000  C
  H6       1.0000 0.04730  0.66610  0.94330  Biso   1.000  H
  O7       1.0000 0.50590  0.64970  0.66760  Biso   1.000  O
  C7       1.0000 0.56980  0.59870  0.53400  Biso   1.000  C
  H7       1.0000 0.61880  0.66610  0.55670  Biso   1.000  H
  O8       1.0000 0.14380  0.49410  0.66760  Biso   1.000  O
  C8       1.0000 0.02890  0.43020  0.53400  Biso   1.000  C
  H8       1.0000 0.04730  0.38120  0.55670  Biso   1.000  H
  O9       1.0000 0.35030  0.85620  0.66760  Biso   1.000  O
  C9       1.0000 0.40130  0.97110  0.53400  Biso   1.000  C
  H9       1.0000 0.33390  0.95270  0.55670  Biso   1.000  H
  O10      1.0000 0.49410  0.35030  0.16760  Biso   1.000  O
  C10      1.0000 0.43020  0.40130  0.03400  Biso   1.000  C
  H10      1.0000 0.38120  0.33390  0.05670  Biso   1.000  H
  O11      1.0000 0.85620  0.50590  0.16760  Biso   1.000  O
  C11      1.0000 0.97110  0.56980  0.03400  Biso   1.000  C
  H11      1.0000 0.95270  0.61880  0.05670  Biso   1.000  H
  O12      1.0000 0.64970  0.14380  0.16760  Biso   1.000  O
  C12      1.0000 0.59870  0.02890  0.03400  Biso   1.000  C
  H12      1.0000 0.66610  0.04730  0.05670  Biso   1.000  H
  O13      1.0000 0.35030  0.49410  0.66760  Biso   1.000  O
  C13      1.0000 0.40130  0.43020  0.53400  Biso   1.000  C
  H13      1.0000 0.33390  0.38120  0.55670  Biso   1.000  H
  O14      1.0000 0.50590  0.85620  0.66760  Biso   1.000  O
  C14      1.0000 0.56980  0.97110  0.53400  Biso   1.000  C
  H14      1.0000 0.61880  0.95270  0.55670  Biso   1.000  H
  O15      1.0000 0.14380  0.64970  0.66760  Biso   1.000  O
  C15      1.0000 0.02890  0.59870  0.53400  Biso   1.000  C
  H15      1.0000 0.04730  0.66610  0.55670  Biso   1.000  H
  O16      1.0000 0.64970  0.50590  0.16760  Biso   1.000  O
  C16      1.0000 0.59870  0.56980  0.03400  Biso   1.000  C
  H16      1.0000 0.66610  0.61880  0.05670  Biso   1.000  H
  O17      1.0000 0.49410  0.14380  0.16760  Biso   1.000  O
  C17      1.0000 0.43020  0.02890  0.03400  Biso   1.000  C
  H17      1.0000 0.38120  0.04730  0.05670  Biso   1.000  H
  O18      1.0000 0.85620  0.35030  0.16760  Biso   1.000  O
  C18      1.0000 0.97110  0.40130  0.03400  Biso   1.000  C
  H18      1.0000 0.95270  0.33390  0.05670  Biso   1.000  H
  O19      1.0000 0.49410  0.35030  0.33240  Biso   1.000  O
  C19      1.0000 0.43020  0.40130  0.46600  Biso   1.000  C
  H19      1.0000 0.38120  0.33390  0.44330  Biso   1.000  H
  O20      1.0000 0.85620  0.50590  0.33240  Biso   1.000  O
  C20      1.0000 0.97110  0.56980  0.46600  Biso   1.000  C
  H20      1.0000 0.95270  0.61880  0.44330  Biso   1.000  H
  O21      1.0000 0.64970  0.14380  0.33240  Biso   1.000  O
  C21      1.0000 0.59870  0.02890  0.46600  Biso   1.000  C
  H21      1.0000 0.66610  0.04730  0.44330  Biso   1.000  H
  O22      1.0000 0.50590  0.64970  0.83240  Biso   1.000  O
  C22      1.0000 0.56980  0.59870  0.96600  Biso   1.000  C
  H22      1.0000 0.61880  0.66610  0.94330  Biso   1.000  H
  O23      1.0000 0.14380  0.49410  0.83240  Biso   1.000  O
  C23      1.0000 0.02890  0.43020  0.96600  Biso   1.000  C
  H23      1.0000 0.04730  0.38120  0.94330  Biso   1.000  H
  O24      1.0000 0.35030  0.85620  0.83240  Biso   1.000  O
  C24      1.0000 0.40130  0.97110  0.96600  Biso   1.000  C
  H24      1.0000 0.33390  0.95270  0.94330  Biso   1.000  H
  Fe1      1.0000 0.74670  0.49340  0.25000  Biso   1.000  Fe
  N1       1.0000 0.83705  0.67410  0.25000  Biso   1.000  N
  Fe2      1.0000 0.50660  0.25330  0.25000  Biso   1.000  Fe
  N2       1.0000 0.32590  0.16295  0.25000  Biso   1.000  N
  Fe3      1.0000 0.74670  0.25330  0.25000  Biso   1.000  Fe
  N3       1.0000 0.83705  0.16295  0.25000  Biso   1.000  N
  Fe4      1.0000 0.25330  0.50660  0.75000  Biso   1.000  Fe
  N4       1.0000 0.16295  0.32590  0.75000  Biso   1.000  N
  Fe5      1.0000 0.49340  0.74670  0.75000  Biso   1.000  Fe
  N5       1.0000 0.67410  0.83705  0.75000  Biso   1.000  N
  Fe6      1.0000 0.25330  0.74670  0.75000  Biso   1.000  Fe
  N6       1.0000 0.16295  0.83705  0.75000  Biso   1.000  N
  O25      1.0000 0.66667  0.33333  0.25000  Biso   1.000  O
  O26      1.0000 0.33333  0.66667  0.75000  Biso   1.000  O
  C25      1.0000 0.56160  0.43840  0.35910  Biso   1.000  C
  C26      1.0000 0.52890  0.47110  0.43310  Biso   1.000  C
  C27      1.0000 0.56160  0.12320  0.35910  Biso   1.000  C
  C28      1.0000 0.52890  0.05780  0.43310  Biso   1.000  C
  C29      1.0000 0.87680  0.43840  0.35910  Biso   1.000  C
  C30      1.0000 0.94220  0.47110  0.43310  Biso   1.000  C
  C31      1.0000 0.43840  0.56160  0.85910  Biso   1.000  C
  C32      1.0000 0.47110  0.52890  0.93310  Biso   1.000  C
  C33      1.0000 0.43840  0.87680  0.85910  Biso   1.000  C
  C34      1.0000 0.47110  0.94220  0.93310  Biso   1.000  C
  C35      1.0000 0.12320  0.56160  0.85910  Biso   1.000  C
  C36      1.0000 0.05780  0.52890  0.93310  Biso   1.000  C
  C37      1.0000 0.43840  0.56160  0.64090  Biso   1.000  C
  C38      1.0000 0.47110  0.52890  0.56690  Biso   1.000  C
  C39      1.0000 0.12320  0.56160  0.64090  Biso   1.000  C
  C40      1.0000 0.05780  0.52890  0.56690  Biso   1.000  C
  C41      1.0000 0.43840  0.87680  0.64090  Biso   1.000  C
  C42      1.0000 0.47110  0.94220  0.56690  Biso   1.000  C
  C43      1.0000 0.56160  0.43840  0.14090  Biso   1.000  C
  C44      1.0000 0.52890  0.47110  0.06690  Biso   1.000  C
  C45      1.0000 0.87680  0.43840  0.14090  Biso   1.000  C
  C46      1.0000 0.94220  0.47110  0.06690  Biso   1.000  C
  C47      1.0000 0.56160  0.12320  0.14090  Biso   1.000  C
  C48      1.0000 0.52890  0.05780  0.06690  Biso   1.000  C
  C49      1.0000 0.87060  0.74120  0.30610  Biso   1.000  C
  N7       1.0000 0.92730  0.85460  0.29100  Biso   1.000  N
  H25      1.0000 0.85735  0.71470  0.35490  Biso   1.000  H
  C50      1.0000 0.25880  0.12940  0.30610  Biso   1.000  C
  N8       1.0000 0.14540  0.07270  0.29100  Biso   1.000  N
  H26      1.0000 0.28530  0.14265  0.35490  Biso   1.000  H
  C51      1.0000 0.87060  0.12940  0.30610  Biso   1.000  C
  N9       1.0000 0.92730  0.07270  0.29100  Biso   1.000  N
  H27      1.0000 0.85735  0.14265  0.35490  Biso   1.000  H
  C52      1.0000 0.12940  0.25880  0.80610  Biso   1.000  C
  N10      1.0000 0.07270  0.14540  0.79100  Biso   1.000  N
  H28      1.0000 0.14265  0.28530  0.85490  Biso   1.000  H
  C53      1.0000 0.74120  0.87060  0.80610  Biso   1.000  C
  N11      1.0000 0.85460  0.92730  0.79100  Biso   1.000  N
  H29      1.0000 0.71470  0.85735  0.85490  Biso   1.000  H
  C54      1.0000 0.12940  0.87060  0.80610  Biso   1.000  C
  N12      1.0000 0.07270  0.92730  0.79100  Biso   1.000  N
  H30      1.0000 0.14265  0.85735  0.85490  Biso   1.000  H
  C55      1.0000 0.74120  0.87060  0.69390  Biso   1.000  C
  N13      1.0000 0.85460  0.92730  0.70900  Biso   1.000  N
  H31      1.0000 0.71470  0.85735  0.64510  Biso   1.000  H
  C56      1.0000 0.12940  0.25880  0.69390  Biso   1.000  C
  N14      1.0000 0.07270  0.14540  0.70900  Biso   1.000  N
  H32      1.0000 0.14265  0.28530  0.64510  Biso   1.000  H
  C57      1.0000 0.12940  0.87060  0.69390  Biso   1.000  C
  N15      1.0000 0.07270  0.92730  0.70900  Biso   1.000  N
  H33      1.0000 0.14265  0.85735  0.64510  Biso   1.000  H
  C58      1.0000 0.25880  0.12940  0.19390  Biso   1.000  C
  N16      1.0000 0.14540  0.07270  0.20900  Biso   1.000  N
  H34      1.0000 0.28530  0.14265  0.14510  Biso   1.000  H
  C59      1.0000 0.87060  0.74120  0.19390  Biso   1.000  C
  N17      1.0000 0.92730  0.85460  0.20900  Biso   1.000  N
  H35      1.0000 0.85735  0.71470  0.14510  Biso   1.000  H
  C60      1.0000 0.87060  0.12940  0.19390  Biso   1.000  C
  N18      1.0000 0.92730  0.07270  0.20900  Biso   1.000  N
  H36      1.0000 0.85735  0.14265  0.14510  Biso   1.000  H
  Mg1      1.0000 0.00000  0.00000  0.35520  Biso   1.000  Mg
  Mg2      1.0000 0.00000  0.00000  0.85520  Biso   1.000  Mg
  Mg3      1.0000 0.00000  0.00000  0.64480  Biso   1.000  Mg
  Mg4      1.0000 0.00000  0.00000  0.14480  Biso   1.000  Mg
