data_image0
_cell_length_a       13.873
_cell_length_b       13.873
_cell_length_c       18.455
_cell_angle_alpha    90
_cell_angle_beta     90
_cell_angle_gamma    120

_symmetry_space_group_name_H-M    "P 1"
_symmetry_int_tables_number       1

loop_
  _symmetry_equiv_pos_as_xyz
  'x, y, z'

loop_
  _atom_site_label
  _atom_site_occupancy
  _atom_site_fract_x
  _atom_site_fract_y
  _atom_site_fract_z
  _atom_site_thermal_displace_type
  _atom_site_B_iso_or_equiv
  _atom_site_type_symbol
  O1       1.0000 0.34890  0.48790  0.33630  Biso   1.000  O
  C1       1.0000 0.39660  0.42540  0.46610  Biso   1.000  C
  H1       1.0000 0.32870  0.37770  0.44420  Biso   1.000  H
  O2       1.0000 0.51210  0.86100  0.33630  Biso   1.000  O
  C2       1.0000 0.57460  0.97120  0.46610  Biso   1.000  C
  H2       1.0000 0.62230  0.95100  0.44420  Biso   1.000  H
  O3       1.0000 0.13900  0.65110  0.33630  Biso   1.000  O
  C3       1.0000 0.02880  0.60340  0.46610  Biso   1.000  C
  H3       1.0000 0.04900  0.67130  0.44420  Biso   1.000  H
  O4       1.0000 0.65110  0.51210  0.83630  Biso   1.000  O
  C4       1.0000 0.60340  0.57460  0.96610  Biso   1.000  C
  H4       1.0000 0.67130  0.62230  0.94420  Biso   1.000  H
  O5       1.0000 0.48790  0.13900  0.83630  Biso   1.000  O
  C5       1.0000 0.42540  0.02880  0.96610  Biso   1.000  C
  H5       1.0000 0.37770  0.04900  0.94420  Biso   1.000  H
  O6       1.0000 0.86100  0.34890  0.83630  Biso   1.000  O
  C6       1.0000 0.97120  0.39660  0.96610  Biso   1.000  C
  H6       1.0000 0.95100  0.32870  0.94420  Biso   1.000  H
  O7       1.0000 0.48790  0.34890  0.66370  Biso   1.000  O
  C7       1.0000 0.42540  0.39660  0.53390  Biso   1.000  C
  H7       1.0000 0.37770  0.32870  0.55580  Biso   1.000  H
  O8       1.0000 0.86100  0.51210  0.66370  Biso   1.000  O
  C8       1.0000 0.97120  0.57460  0.53390  Biso   1.000  C
  H8       1.0000 0.95100  0.62230  0.55580  Biso   1.000  H
  O9       1.0000 0.65110  0.13900  0.66370  Biso   1.000  O
  C9       1.0000 0.60340  0.02880  0.53390  Biso   1.000  C
  H9       1.0000 0.67130  0.04900  0.55580  Biso   1.000  H
  O10      1.0000 0.51210  0.65110  0.16370  Biso   1.000  O
  C10      1.0000 0.57460  0.60340  0.03390  Biso   1.000  C
  H10      1.0000 0.62230  0.67130  0.05580  Biso   1.000  H
  O11      1.0000 0.13900  0.48790  0.16370  Biso   1.000  O
  C11      1.0000 0.02880  0.42540  0.03390  Biso   1.000  C
  H11      1.0000 0.04900  0.37770  0.05580  Biso   1.000  H
  O12      1.0000 0.34890  0.86100  0.16370  Biso   1.000  O
  C12      1.0000 0.39660  0.97120  0.03390  Biso   1.000  C
  H12      1.0000 0.32870  0.95100  0.05580  Biso   1.000  H
  O13      1.0000 0.65110  0.51210  0.66370  Biso   1.000  O
  C13      1.0000 0.60340  0.57460  0.53390  Biso   1.000  C
  H13      1.0000 0.67130  0.62230  0.55580  Biso   1.000  H
  O14      1.0000 0.48790  0.13900  0.66370  Biso   1.000  O
  C14      1.0000 0.42540  0.02880  0.53390  Biso   1.000  C
  H14      1.0000 0.37770  0.04900  0.55580  Biso   1.000  H
  O15      1.0000 0.86100  0.34890  0.66370  Biso   1.000  O
  C15      1.0000 0.97120  0.39660  0.53390  Biso   1.000  C
  H15      1.0000 0.95100  0.32870  0.55580  Biso   1.000  H
  O16      1.0000 0.34890  0.48790  0.16370  Biso   1.000  O
  C16      1.0000 0.39660  0.42540  0.03390  Biso   1.000  C
  H16      1.0000 0.32870  0.37770  0.05580  Biso   1.000  H
  O17      1.0000 0.51210  0.86100  0.16370  Biso   1.000  O
  C17      1.0000 0.57460  0.97120  0.03390  Biso   1.000  C
  H17      1.0000 0.62230  0.95100  0.05580  Biso   1.000  H
  O18      1.0000 0.13900  0.65110  0.16370  Biso   1.000  O
  C18      1.0000 0.02880  0.60340  0.03390  Biso   1.000  C
  H18      1.0000 0.04900  0.67130  0.05580  Biso   1.000  H
  O19      1.0000 0.51210  0.65110  0.33630  Biso   1.000  O
  C19      1.0000 0.57460  0.60340  0.46610  Biso   1.000  C
  H19      1.0000 0.62230  0.67130  0.44420  Biso   1.000  H
  O20      1.0000 0.13900  0.48790  0.33630  Biso   1.000  O
  C20      1.0000 0.02880  0.42540  0.46610  Biso   1.000  C
  H20      1.0000 0.04900  0.37770  0.44420  Biso   1.000  H
  O21      1.0000 0.34890  0.86100  0.33630  Biso   1.000  O
  C21      1.0000 0.39660  0.97120  0.46610  Biso   1.000  C
  H21      1.0000 0.32870  0.95100  0.44420  Biso   1.000  H
  O22      1.0000 0.48790  0.34890  0.83630  Biso   1.000  O
  C22      1.0000 0.42540  0.39660  0.96610  Biso   1.000  C
  H22      1.0000 0.37770  0.32870  0.94420  Biso   1.000  H
  O23      1.0000 0.86100  0.51210  0.83630  Biso   1.000  O
  C23      1.0000 0.97120  0.57460  0.96610  Biso   1.000  C
  H23      1.0000 0.95100  0.62230  0.94420  Biso   1.000  H
  O24      1.0000 0.65110  0.13900  0.83630  Biso   1.000  O
  C24      1.0000 0.60340  0.02880  0.96610  Biso   1.000  C
  H24      1.0000 0.67130  0.04900  0.94420  Biso   1.000  H
  In1      1.0000 0.24877  0.49754  0.25000  Biso   1.000  In
  N1       1.0000 0.15830  0.31660  0.25000  Biso   1.000  N
  In2      1.0000 0.50246  0.75123  0.25000  Biso   1.000  In
  N2       1.0000 0.68340  0.84170  0.25000  Biso   1.000  N
  In3      1.0000 0.24877  0.75123  0.25000  Biso   1.000  In
  N3       1.0000 0.15830  0.84170  0.25000  Biso   1.000  N
  In4      1.0000 0.75123  0.50246  0.75000  Biso   1.000  In
  N4       1.0000 0.84170  0.68340  0.75000  Biso   1.000  N
  In5      1.0000 0.49754  0.24877  0.75000  Biso   1.000  In
  N5       1.0000 0.31660  0.15830  0.75000  Biso   1.000  N
  In6      1.0000 0.75123  0.24877  0.75000  Biso   1.000  In
  N6       1.0000 0.84170  0.15830  0.75000  Biso   1.000  N
  O25      1.0000 0.33333  0.66667  0.25000  Biso   1.000  O
  O26      1.0000 0.66667  0.33333  0.75000  Biso   1.000  O
  C25      1.0000 0.12450  0.24900  0.19800  Biso   1.000  C
  N7       1.0000 0.07400  0.14800  0.21330  Biso   1.000  N
  H25      1.0000 0.13645  0.27290  0.15040  Biso   1.000  H
  C26      1.0000 0.75100  0.87550  0.19800  Biso   1.000  C
  N8       1.0000 0.85200  0.92600  0.21330  Biso   1.000  N
  H26      1.0000 0.72710  0.86355  0.15040  Biso   1.000  H
  C27      1.0000 0.12450  0.87550  0.19800  Biso   1.000  C
  N9       1.0000 0.07400  0.92600  0.21330  Biso   1.000  N
  H27      1.0000 0.13645  0.86355  0.15040  Biso   1.000  H
  C28      1.0000 0.87550  0.75100  0.69800  Biso   1.000  C
  N10      1.0000 0.92600  0.85200  0.71330  Biso   1.000  N
  H28      1.0000 0.86355  0.72710  0.65040  Biso   1.000  H
  C29      1.0000 0.24900  0.12450  0.69800  Biso   1.000  C
  N11      1.0000 0.14800  0.07400  0.71330  Biso   1.000  N
  H29      1.0000 0.27290  0.13645  0.65040  Biso   1.000  H
  C30      1.0000 0.87550  0.12450  0.69800  Biso   1.000  C
  N12      1.0000 0.92600  0.07400  0.71330  Biso   1.000  N
  H30      1.0000 0.86355  0.13645  0.65040  Biso   1.000  H
  C31      1.0000 0.24900  0.12450  0.80200  Biso   1.000  C
  N13      1.0000 0.14800  0.07400  0.78670  Biso   1.000  N
  H31      1.0000 0.27290  0.13645  0.84960  Biso   1.000  H
  C32      1.0000 0.87550  0.75100  0.80200  Biso   1.000  C
  N14      1.0000 0.92600  0.85200  0.78670  Biso   1.000  N
  H32      1.0000 0.86355  0.72710  0.84960  Biso   1.000  H
  C33      1.0000 0.87550  0.12450  0.80200  Biso   1.000  C
  N15      1.0000 0.92600  0.07400  0.78670  Biso   1.000  N
  H33      1.0000 0.86355  0.13645  0.84960  Biso   1.000  H
  C34      1.0000 0.75100  0.87550  0.30200  Biso   1.000  C
  N16      1.0000 0.85200  0.92600  0.28670  Biso   1.000  N
  H34      1.0000 0.72710  0.86355  0.34960  Biso   1.000  H
  C35      1.0000 0.12450  0.24900  0.30200  Biso   1.000  C
  N17      1.0000 0.07400  0.14800  0.28670  Biso   1.000  N
  H35      1.0000 0.13645  0.27290  0.34960  Biso   1.000  H
  C36      1.0000 0.12450  0.87550  0.30200  Biso   1.000  C
  N18      1.0000 0.07400  0.92600  0.28670  Biso   1.000  N
  H36      1.0000 0.13645  0.86355  0.34960  Biso   1.000  H
  C37      1.0000 0.44140  0.55860  0.36240  Biso   1.000  C
  C38      1.0000 0.47270  0.52730  0.43280  Biso   1.000  C
  C39      1.0000 0.44140  0.88280  0.36240  Biso   1.000  C
  C40      1.0000 0.47270  0.94540  0.43280  Biso   1.000  C
  C41      1.0000 0.11720  0.55860  0.36240  Biso   1.000  C
  C42      1.0000 0.05460  0.52730  0.43280  Biso   1.000  C
  C43      1.0000 0.55860  0.44140  0.86240  Biso   1.000  C
  C44      1.0000 0.52730  0.47270  0.93280  Biso   1.000  C
  C45      1.0000 0.55860  0.11720  0.86240  Biso   1.000  C
  C46      1.0000 0.52730  0.05460  0.93280  Biso   1.000  C
  C47      1.0000 0.88280  0.44140  0.86240  Biso   1.000  C
  C48      1.0000 0.94540  0.47270  0.93280  Biso   1.000  C
  C49      1.0000 0.55860  0.44140  0.63760  Biso   1.000  C
  C50      1.0000 0.52730  0.47270  0.56720  Biso   1.000  C
  C51      1.0000 0.88280  0.44140  0.63760  Biso   1.000  C
  C52      1.0000 0.94540  0.47270  0.56720  Biso   1.000  C
  C53      1.0000 0.55860  0.11720  0.63760  Biso   1.000  C
  C54      1.0000 0.52730  0.05460  0.56720  Biso   1.000  C
  C55      1.0000 0.44140  0.55860  0.13760  Biso   1.000  C
  C56      1.0000 0.47270  0.52730  0.06720  Biso   1.000  C
  C57      1.0000 0.11720  0.55860  0.13760  Biso   1.000  C
  C58      1.0000 0.05460  0.52730  0.06720  Biso   1.000  C
  C59      1.0000 0.44140  0.88280  0.13760  Biso   1.000  C
  C60      1.0000 0.47270  0.94540  0.06720  Biso   1.000  C
  In7      1.0000 0.00000  0.00000  0.13390  Biso   1.000  In
  In8      1.0000 0.00000  0.00000  0.63390  Biso   1.000  In
  In9      1.0000 0.00000  0.00000  0.86610  Biso   1.000  In
  In10     1.0000 0.00000  0.00000  0.36610  Biso   1.000  In
