data_image0
_cell_length_a       13.905
_cell_length_b       13.905
_cell_length_c       18.4663
_cell_angle_alpha    90
_cell_angle_beta     90
_cell_angle_gamma    120

_symmetry_space_group_name_H-M    "P 1"
_symmetry_int_tables_number       1

loop_
  _symmetry_equiv_pos_as_xyz
  'x, y, z'

loop_
  _atom_site_label
  _atom_site_occupancy
  _atom_site_fract_x
  _atom_site_fract_y
  _atom_site_fract_z
  _atom_site_thermal_displace_type
  _atom_site_B_iso_or_equiv
  _atom_site_type_symbol
  O1       1.0000 0.86320  0.35150  0.33547  Biso   1.000  O
  C1       1.0000 0.97290  0.57130  0.46680  Biso   1.000  C
  H1       1.0000 0.95490  0.62040  0.44480  Biso   1.000  H
  O2       1.0000 0.64850  0.51170  0.33547  Biso   1.000  O
  C2       1.0000 0.42870  0.40160  0.46680  Biso   1.000  C
  H2       1.0000 0.37960  0.33450  0.44480  Biso   1.000  H
  O3       1.0000 0.48830  0.13680  0.33547  Biso   1.000  O
  C3       1.0000 0.59840  0.02710  0.46680  Biso   1.000  C
  H3       1.0000 0.66550  0.04510  0.44480  Biso   1.000  H
  O4       1.0000 0.13680  0.64850  0.83547  Biso   1.000  O
  C4       1.0000 0.02710  0.42870  0.96680  Biso   1.000  C
  H4       1.0000 0.04510  0.37960  0.94480  Biso   1.000  H
  O5       1.0000 0.35150  0.48830  0.83547  Biso   1.000  O
  C5       1.0000 0.57130  0.59840  0.96680  Biso   1.000  C
  H5       1.0000 0.62040  0.66550  0.94480  Biso   1.000  H
  O6       1.0000 0.51170  0.86320  0.83547  Biso   1.000  O
  C6       1.0000 0.40160  0.97290  0.96680  Biso   1.000  C
  H6       1.0000 0.33450  0.95490  0.94480  Biso   1.000  H
  O7       1.0000 0.35150  0.86320  0.66453  Biso   1.000  O
  C7       1.0000 0.57130  0.97290  0.53320  Biso   1.000  C
  H7       1.0000 0.62040  0.95490  0.55520  Biso   1.000  H
  O8       1.0000 0.51170  0.64850  0.66453  Biso   1.000  O
  C8       1.0000 0.40160  0.42870  0.53320  Biso   1.000  C
  H8       1.0000 0.33450  0.37960  0.55520  Biso   1.000  H
  O9       1.0000 0.13680  0.48830  0.66453  Biso   1.000  O
  C9       1.0000 0.02710  0.59840  0.53320  Biso   1.000  C
  H9       1.0000 0.04510  0.66550  0.55520  Biso   1.000  H
  O10      1.0000 0.64850  0.13680  0.16453  Biso   1.000  O
  C10      1.0000 0.42870  0.02710  0.03320  Biso   1.000  C
  H10      1.0000 0.37960  0.04510  0.05520  Biso   1.000  H
  O11      1.0000 0.48830  0.35150  0.16453  Biso   1.000  O
  C11      1.0000 0.59840  0.57130  0.03320  Biso   1.000  C
  H11      1.0000 0.66550  0.62040  0.05520  Biso   1.000  H
  O12      1.0000 0.86320  0.51170  0.16453  Biso   1.000  O
  C12      1.0000 0.97290  0.40160  0.03320  Biso   1.000  C
  H12      1.0000 0.95490  0.33450  0.05520  Biso   1.000  H
  O13      1.0000 0.13680  0.64850  0.66453  Biso   1.000  O
  C13      1.0000 0.02710  0.42870  0.53320  Biso   1.000  C
  H13      1.0000 0.04510  0.37960  0.55520  Biso   1.000  H
  O14      1.0000 0.35150  0.48830  0.66453  Biso   1.000  O
  C14      1.0000 0.57130  0.59840  0.53320  Biso   1.000  C
  H14      1.0000 0.62040  0.66550  0.55520  Biso   1.000  H
  O15      1.0000 0.51170  0.86320  0.66453  Biso   1.000  O
  C15      1.0000 0.40160  0.97290  0.53320  Biso   1.000  C
  H15      1.0000 0.33450  0.95490  0.55520  Biso   1.000  H
  O16      1.0000 0.86320  0.35150  0.16453  Biso   1.000  O
  C16      1.0000 0.97290  0.57130  0.03320  Biso   1.000  C
  H16      1.0000 0.95490  0.62040  0.05520  Biso   1.000  H
  O17      1.0000 0.64850  0.51170  0.16453  Biso   1.000  O
  C17      1.0000 0.42870  0.40160  0.03320  Biso   1.000  C
  H17      1.0000 0.37960  0.33450  0.05520  Biso   1.000  H
  O18      1.0000 0.48830  0.13680  0.16453  Biso   1.000  O
  C18      1.0000 0.59840  0.02710  0.03320  Biso   1.000  C
  H18      1.0000 0.66550  0.04510  0.05520  Biso   1.000  H
  O19      1.0000 0.64850  0.13680  0.33547  Biso   1.000  O
  C19      1.0000 0.42870  0.02710  0.46680  Biso   1.000  C
  H19      1.0000 0.37960  0.04510  0.44480  Biso   1.000  H
  O20      1.0000 0.48830  0.35150  0.33547  Biso   1.000  O
  C20      1.0000 0.59840  0.57130  0.46680  Biso   1.000  C
  H20      1.0000 0.66550  0.62040  0.44480  Biso   1.000  H
  O21      1.0000 0.86320  0.51170  0.33547  Biso   1.000  O
  C21      1.0000 0.97290  0.40160  0.46680  Biso   1.000  C
  H21      1.0000 0.95490  0.33450  0.44480  Biso   1.000  H
  O22      1.0000 0.35150  0.86320  0.83547  Biso   1.000  O
  C22      1.0000 0.57130  0.97290  0.96680  Biso   1.000  C
  H22      1.0000 0.62040  0.95490  0.94480  Biso   1.000  H
  O23      1.0000 0.51170  0.64850  0.83547  Biso   1.000  O
  C23      1.0000 0.40160  0.42870  0.96680  Biso   1.000  C
  H23      1.0000 0.33450  0.37960  0.94480  Biso   1.000  H
  O24      1.0000 0.13680  0.48830  0.83547  Biso   1.000  O
  C24      1.0000 0.02710  0.59840  0.96680  Biso   1.000  C
  H24      1.0000 0.04510  0.66550  0.94480  Biso   1.000  H
  In1      1.0000 0.75095  0.24905  0.25000  Biso   1.000  In
  N1       1.0000 0.84070  0.15930  0.25000  Biso   1.000  N
  In2      1.0000 0.75095  0.50190  0.25000  Biso   1.000  In
  N2       1.0000 0.84070  0.68140  0.25000  Biso   1.000  N
  In3      1.0000 0.49810  0.24905  0.25000  Biso   1.000  In
  N3       1.0000 0.31860  0.15930  0.25000  Biso   1.000  N
  In4      1.0000 0.24905  0.75095  0.75000  Biso   1.000  In
  N4       1.0000 0.15930  0.84070  0.75000  Biso   1.000  N
  In5      1.0000 0.24905  0.49810  0.75000  Biso   1.000  In
  N5       1.0000 0.15930  0.31860  0.75000  Biso   1.000  N
  In6      1.0000 0.50190  0.75095  0.75000  Biso   1.000  In
  N6       1.0000 0.68140  0.84070  0.75000  Biso   1.000  N
  O25      1.0000 0.66667  0.33333  0.25000  Biso   1.000  O
  O26      1.0000 0.33333  0.66667  0.75000  Biso   1.000  O
  C25      1.0000 0.88610  0.44305  0.36220  Biso   1.000  C
  C26      1.0000 0.94580  0.47290  0.43340  Biso   1.000  C
  C27      1.0000 0.55695  0.44305  0.36220  Biso   1.000  C
  C28      1.0000 0.52710  0.47290  0.43340  Biso   1.000  C
  C29      1.0000 0.55695  0.11390  0.36220  Biso   1.000  C
  C30      1.0000 0.52710  0.05420  0.43340  Biso   1.000  C
  C31      1.0000 0.11390  0.55695  0.86220  Biso   1.000  C
  C32      1.0000 0.05420  0.52710  0.93340  Biso   1.000  C
  C33      1.0000 0.44305  0.55695  0.86220  Biso   1.000  C
  C34      1.0000 0.47290  0.52710  0.93340  Biso   1.000  C
  C35      1.0000 0.44305  0.88610  0.86220  Biso   1.000  C
  C36      1.0000 0.47290  0.94580  0.93340  Biso   1.000  C
  C37      1.0000 0.44305  0.88610  0.63780  Biso   1.000  C
  C38      1.0000 0.47290  0.94580  0.56660  Biso   1.000  C
  C39      1.0000 0.44305  0.55695  0.63780  Biso   1.000  C
  C40      1.0000 0.47290  0.52710  0.56660  Biso   1.000  C
  C41      1.0000 0.11390  0.55695  0.63780  Biso   1.000  C
  C42      1.0000 0.05420  0.52710  0.56660  Biso   1.000  C
  C43      1.0000 0.55695  0.11390  0.13780  Biso   1.000  C
  C44      1.0000 0.52710  0.05420  0.06660  Biso   1.000  C
  C45      1.0000 0.55695  0.44305  0.13780  Biso   1.000  C
  C46      1.0000 0.52710  0.47290  0.06660  Biso   1.000  C
  C47      1.0000 0.88610  0.44305  0.13780  Biso   1.000  C
  C48      1.0000 0.94580  0.47290  0.06660  Biso   1.000  C
  C49      1.0000 0.87490  0.12510  0.30680  Biso   1.000  C
  H25      1.0000 0.86300  0.13700  0.35470  Biso   1.000  H
  N7       1.0000 0.92751  0.07249  0.28740  Biso   1.000  N
  C50      1.0000 0.87490  0.74980  0.30680  Biso   1.000  C
  H26      1.0000 0.86300  0.72600  0.35470  Biso   1.000  H
  N8       1.0000 0.92751  0.85502  0.28740  Biso   1.000  N
  C51      1.0000 0.25020  0.12510  0.30680  Biso   1.000  C
  H27      1.0000 0.27400  0.13700  0.35470  Biso   1.000  H
  N9       1.0000 0.14498  0.07249  0.28740  Biso   1.000  N
  C52      1.0000 0.12510  0.87490  0.80680  Biso   1.000  C
  H28      1.0000 0.13700  0.86300  0.85470  Biso   1.000  H
  N10      1.0000 0.07249  0.92751  0.78740  Biso   1.000  N
  C53      1.0000 0.12510  0.25020  0.80680  Biso   1.000  C
  H29      1.0000 0.13700  0.27400  0.85470  Biso   1.000  H
  N11      1.0000 0.07249  0.14498  0.78740  Biso   1.000  N
  C54      1.0000 0.74980  0.87490  0.80680  Biso   1.000  C
  H30      1.0000 0.72600  0.86300  0.85470  Biso   1.000  H
  N12      1.0000 0.85502  0.92751  0.78740  Biso   1.000  N
  C55      1.0000 0.12510  0.87490  0.69320  Biso   1.000  C
  H31      1.0000 0.13700  0.86300  0.64530  Biso   1.000  H
  N13      1.0000 0.07249  0.92751  0.71260  Biso   1.000  N
  C56      1.0000 0.74980  0.87490  0.69320  Biso   1.000  C
  H32      1.0000 0.72600  0.86300  0.64530  Biso   1.000  H
  N14      1.0000 0.85502  0.92751  0.71260  Biso   1.000  N
  C57      1.0000 0.12510  0.25020  0.69320  Biso   1.000  C
  H33      1.0000 0.13700  0.27400  0.64530  Biso   1.000  H
  N15      1.0000 0.07249  0.14498  0.71260  Biso   1.000  N
  C58      1.0000 0.87490  0.12510  0.19320  Biso   1.000  C
  H34      1.0000 0.86300  0.13700  0.14530  Biso   1.000  H
  N16      1.0000 0.92751  0.07249  0.21260  Biso   1.000  N
  C59      1.0000 0.25020  0.12510  0.19320  Biso   1.000  C
  H35      1.0000 0.27400  0.13700  0.14530  Biso   1.000  H
  N17      1.0000 0.14498  0.07249  0.21260  Biso   1.000  N
  C60      1.0000 0.87490  0.74980  0.19320  Biso   1.000  C
  H36      1.0000 0.86300  0.72600  0.14530  Biso   1.000  H
  N18      1.0000 0.92751  0.85502  0.21260  Biso   1.000  N
  Co1      1.0000 0.00000  0.00000  0.35738  Biso   1.000  Co
  Co2      1.0000 0.00000  0.00000  0.85738  Biso   1.000  Co
  Co3      1.0000 0.00000  0.00000  0.64262  Biso   1.000  Co
  Co4      1.0000 0.00000  0.00000  0.14262  Biso   1.000  Co
