data_image0
_cell_length_a       13.893
_cell_length_b       13.893
_cell_length_c       18.368
_cell_angle_alpha    90
_cell_angle_beta     90
_cell_angle_gamma    120

_symmetry_space_group_name_H-M    "P 1"
_symmetry_int_tables_number       1

loop_
  _symmetry_equiv_pos_as_xyz
  'x, y, z'

loop_
  _atom_site_label
  _atom_site_occupancy
  _atom_site_fract_x
  _atom_site_fract_y
  _atom_site_fract_z
  _atom_site_thermal_displace_type
  _atom_site_B_iso_or_equiv
  _atom_site_type_symbol
  O1       1.0000 0.86100  0.34990  0.33470  Biso   1.000  O
  C1       1.0000 0.97160  0.57130  0.46590  Biso   1.000  C
  O2       1.0000 0.94400  0.64100  0.44220  Biso   1.000  O
  O3       1.0000 0.65010  0.51110  0.33470  Biso   1.000  O
  C2       1.0000 0.42870  0.40030  0.46590  Biso   1.000  C
  O4       1.0000 0.35900  0.30300  0.44220  Biso   1.000  O
  O5       1.0000 0.48890  0.13900  0.33470  Biso   1.000  O
  C3       1.0000 0.59970  0.02840  0.46590  Biso   1.000  C
  O6       1.0000 0.69700  0.05600  0.44220  Biso   1.000  O
  O7       1.0000 0.13900  0.65010  0.83470  Biso   1.000  O
  C4       1.0000 0.02840  0.42870  0.96590  Biso   1.000  C
  O8       1.0000 0.05600  0.35900  0.94220  Biso   1.000  O
  O9       1.0000 0.34990  0.48890  0.83470  Biso   1.000  O
  C5       1.0000 0.57130  0.59970  0.96590  Biso   1.000  C
  O10      1.0000 0.64100  0.69700  0.94220  Biso   1.000  O
  O11      1.0000 0.51110  0.86100  0.83470  Biso   1.000  O
  C6       1.0000 0.40030  0.97160  0.96590  Biso   1.000  C
  O12      1.0000 0.30300  0.94400  0.94220  Biso   1.000  O
  O13      1.0000 0.34990  0.86100  0.66530  Biso   1.000  O
  C7       1.0000 0.57130  0.97160  0.53410  Biso   1.000  C
  O14      1.0000 0.64100  0.94400  0.55780  Biso   1.000  O
  O15      1.0000 0.51110  0.65010  0.66530  Biso   1.000  O
  C8       1.0000 0.40030  0.42870  0.53410  Biso   1.000  C
  O16      1.0000 0.30300  0.35900  0.55780  Biso   1.000  O
  O17      1.0000 0.13900  0.48890  0.66530  Biso   1.000  O
  C9       1.0000 0.02840  0.59970  0.53410  Biso   1.000  C
  O18      1.0000 0.05600  0.69700  0.55780  Biso   1.000  O
  O19      1.0000 0.65010  0.13900  0.16530  Biso   1.000  O
  C10      1.0000 0.42870  0.02840  0.03410  Biso   1.000  C
  O20      1.0000 0.35900  0.05600  0.05780  Biso   1.000  O
  O21      1.0000 0.48890  0.34990  0.16530  Biso   1.000  O
  C11      1.0000 0.59970  0.57130  0.03410  Biso   1.000  C
  O22      1.0000 0.69700  0.64100  0.05780  Biso   1.000  O
  O23      1.0000 0.86100  0.51110  0.16530  Biso   1.000  O
  C12      1.0000 0.97160  0.40030  0.03410  Biso   1.000  C
  O24      1.0000 0.94400  0.30300  0.05780  Biso   1.000  O
  O25      1.0000 0.13900  0.65010  0.66530  Biso   1.000  O
  C13      1.0000 0.02840  0.42870  0.53410  Biso   1.000  C
  O26      1.0000 0.05600  0.35900  0.55780  Biso   1.000  O
  O27      1.0000 0.34990  0.48890  0.66530  Biso   1.000  O
  C14      1.0000 0.57130  0.59970  0.53410  Biso   1.000  C
  O28      1.0000 0.64100  0.69700  0.55780  Biso   1.000  O
  O29      1.0000 0.51110  0.86100  0.66530  Biso   1.000  O
  C15      1.0000 0.40030  0.97160  0.53410  Biso   1.000  C
  O30      1.0000 0.30300  0.94400  0.55780  Biso   1.000  O
  O31      1.0000 0.86100  0.34990  0.16530  Biso   1.000  O
  C16      1.0000 0.97160  0.57130  0.03410  Biso   1.000  C
  O32      1.0000 0.94400  0.64100  0.05780  Biso   1.000  O
  O33      1.0000 0.65010  0.51110  0.16530  Biso   1.000  O
  C17      1.0000 0.42870  0.40030  0.03410  Biso   1.000  C
  O34      1.0000 0.35900  0.30300  0.05780  Biso   1.000  O
  O35      1.0000 0.48890  0.13900  0.16530  Biso   1.000  O
  C18      1.0000 0.59970  0.02840  0.03410  Biso   1.000  C
  O36      1.0000 0.69700  0.05600  0.05780  Biso   1.000  O
  O37      1.0000 0.65010  0.13900  0.33470  Biso   1.000  O
  C19      1.0000 0.42870  0.02840  0.46590  Biso   1.000  C
  O38      1.0000 0.35900  0.05600  0.44220  Biso   1.000  O
  O39      1.0000 0.48890  0.34990  0.33470  Biso   1.000  O
  C20      1.0000 0.59970  0.57130  0.46590  Biso   1.000  C
  O40      1.0000 0.69700  0.64100  0.44220  Biso   1.000  O
  O41      1.0000 0.86100  0.51110  0.33470  Biso   1.000  O
  C21      1.0000 0.97160  0.40030  0.46590  Biso   1.000  C
  O42      1.0000 0.94400  0.30300  0.44220  Biso   1.000  O
  O43      1.0000 0.34990  0.86100  0.83470  Biso   1.000  O
  C22      1.0000 0.57130  0.97160  0.96590  Biso   1.000  C
  O44      1.0000 0.64100  0.94400  0.94220  Biso   1.000  O
  O45      1.0000 0.51110  0.65010  0.83470  Biso   1.000  O
  C23      1.0000 0.40030  0.42870  0.96590  Biso   1.000  C
  O46      1.0000 0.30300  0.35900  0.94220  Biso   1.000  O
  O47      1.0000 0.13900  0.48890  0.83470  Biso   1.000  O
  C24      1.0000 0.02840  0.59970  0.96590  Biso   1.000  C
  O48      1.0000 0.05600  0.69700  0.94220  Biso   1.000  O
  In1      1.0000 0.75152  0.24848  0.25000  Biso   1.000  In
  N1       1.0000 0.84100  0.15900  0.25000  Biso   1.000  N
  In2      1.0000 0.75152  0.50304  0.25000  Biso   1.000  In
  N2       1.0000 0.84100  0.68200  0.25000  Biso   1.000  N
  In3      1.0000 0.49696  0.24848  0.25000  Biso   1.000  In
  N3       1.0000 0.31800  0.15900  0.25000  Biso   1.000  N
  In4      1.0000 0.24848  0.75152  0.75000  Biso   1.000  In
  N4       1.0000 0.15900  0.84100  0.75000  Biso   1.000  N
  In5      1.0000 0.24848  0.49696  0.75000  Biso   1.000  In
  N5       1.0000 0.15900  0.31800  0.75000  Biso   1.000  N
  In6      1.0000 0.50304  0.75152  0.75000  Biso   1.000  In
  N6       1.0000 0.68200  0.84100  0.75000  Biso   1.000  N
  O49      1.0000 0.66667  0.33333  0.25000  Biso   1.000  O
  O50      1.0000 0.33333  0.66667  0.75000  Biso   1.000  O
  C25      1.0000 0.88540  0.44270  0.36160  Biso   1.000  C
  C26      1.0000 0.94490  0.47245  0.43240  Biso   1.000  C
  C27      1.0000 0.55730  0.44270  0.36160  Biso   1.000  C
  C28      1.0000 0.52755  0.47245  0.43240  Biso   1.000  C
  C29      1.0000 0.55730  0.11460  0.36160  Biso   1.000  C
  C30      1.0000 0.52755  0.05510  0.43240  Biso   1.000  C
  C31      1.0000 0.11460  0.55730  0.86160  Biso   1.000  C
  C32      1.0000 0.05510  0.52755  0.93240  Biso   1.000  C
  C33      1.0000 0.44270  0.55730  0.86160  Biso   1.000  C
  C34      1.0000 0.47245  0.52755  0.93240  Biso   1.000  C
  C35      1.0000 0.44270  0.88540  0.86160  Biso   1.000  C
  C36      1.0000 0.47245  0.94490  0.93240  Biso   1.000  C
  C37      1.0000 0.44270  0.88540  0.63840  Biso   1.000  C
  C38      1.0000 0.47245  0.94490  0.56760  Biso   1.000  C
  C39      1.0000 0.44270  0.55730  0.63840  Biso   1.000  C
  C40      1.0000 0.47245  0.52755  0.56760  Biso   1.000  C
  C41      1.0000 0.11460  0.55730  0.63840  Biso   1.000  C
  C42      1.0000 0.05510  0.52755  0.56760  Biso   1.000  C
  C43      1.0000 0.55730  0.11460  0.13840  Biso   1.000  C
  C44      1.0000 0.52755  0.05510  0.06760  Biso   1.000  C
  C45      1.0000 0.55730  0.44270  0.13840  Biso   1.000  C
  C46      1.0000 0.52755  0.47245  0.06760  Biso   1.000  C
  C47      1.0000 0.88540  0.44270  0.13840  Biso   1.000  C
  C48      1.0000 0.94490  0.47245  0.06760  Biso   1.000  C
  C49      1.0000 0.87370  0.12630  0.30330  Biso   1.000  C
  H1       1.0000 0.86070  0.13930  0.35090  Biso   1.000  H
  N7       1.0000 0.92760  0.07240  0.28840  Biso   1.000  N
  C50      1.0000 0.87370  0.74740  0.30330  Biso   1.000  C
  H2       1.0000 0.86070  0.72140  0.35090  Biso   1.000  H
  N8       1.0000 0.92760  0.85520  0.28840  Biso   1.000  N
  C51      1.0000 0.25260  0.12630  0.30330  Biso   1.000  C
  H3       1.0000 0.27860  0.13930  0.35090  Biso   1.000  H
  N9       1.0000 0.14480  0.07240  0.28840  Biso   1.000  N
  C52      1.0000 0.12630  0.87370  0.80330  Biso   1.000  C
  H4       1.0000 0.13930  0.86070  0.85090  Biso   1.000  H
  N10      1.0000 0.07240  0.92760  0.78840  Biso   1.000  N
  C53      1.0000 0.12630  0.25260  0.80330  Biso   1.000  C
  H5       1.0000 0.13930  0.27860  0.85090  Biso   1.000  H
  N11      1.0000 0.07240  0.14480  0.78840  Biso   1.000  N
  C54      1.0000 0.74740  0.87370  0.80330  Biso   1.000  C
  H6       1.0000 0.72140  0.86070  0.85090  Biso   1.000  H
  N12      1.0000 0.85520  0.92760  0.78840  Biso   1.000  N
  C55      1.0000 0.12630  0.87370  0.69670  Biso   1.000  C
  H7       1.0000 0.13930  0.86070  0.64910  Biso   1.000  H
  N13      1.0000 0.07240  0.92760  0.71160  Biso   1.000  N
  C56      1.0000 0.74740  0.87370  0.69670  Biso   1.000  C
  H8       1.0000 0.72140  0.86070  0.64910  Biso   1.000  H
  N14      1.0000 0.85520  0.92760  0.71160  Biso   1.000  N
  C57      1.0000 0.12630  0.25260  0.69670  Biso   1.000  C
  H9       1.0000 0.13930  0.27860  0.64910  Biso   1.000  H
  N15      1.0000 0.07240  0.14480  0.71160  Biso   1.000  N
  C58      1.0000 0.87370  0.12630  0.19670  Biso   1.000  C
  H10      1.0000 0.86070  0.13930  0.14910  Biso   1.000  H
  N16      1.0000 0.92760  0.07240  0.21160  Biso   1.000  N
  C59      1.0000 0.25260  0.12630  0.19670  Biso   1.000  C
  H11      1.0000 0.27860  0.13930  0.14910  Biso   1.000  H
  N17      1.0000 0.14480  0.07240  0.21160  Biso   1.000  N
  C60      1.0000 0.87370  0.74740  0.19670  Biso   1.000  C
  H12      1.0000 0.86070  0.72140  0.14910  Biso   1.000  H
  N18      1.0000 0.92760  0.85520  0.21160  Biso   1.000  N
  Co1      1.0000 0.00000  0.00000  0.35323  Biso   1.000  Co
  Co2      1.0000 0.00000  0.00000  0.85323  Biso   1.000  Co
  Co3      1.0000 0.00000  0.00000  0.64677  Biso   1.000  Co
  Co4      1.0000 0.00000  0.00000  0.14677  Biso   1.000  Co
