data_image0
_cell_length_a       15.7672
_cell_length_b       15.7672
_cell_length_c       16.6814
_cell_angle_alpha    90
_cell_angle_beta     90
_cell_angle_gamma    120

_symmetry_space_group_name_H-M    "P 1"
_symmetry_int_tables_number       1

loop_
  _symmetry_equiv_pos_as_xyz
  'x, y, z'

loop_
  _atom_site_label
  _atom_site_occupancy
  _atom_site_fract_x
  _atom_site_fract_y
  _atom_site_fract_z
  _atom_site_thermal_displace_type
  _atom_site_B_iso_or_equiv
  _atom_site_type_symbol
  O1       1.0000 0.83700  0.48830  0.65960  Biso   1.000  O
  C1       1.0000 0.96960  0.56070  0.53270  Biso   1.000  C
  O2       1.0000 0.93400  0.62010  0.56040  Biso   1.000  O
  O3       1.0000 0.51170  0.34870  0.65960  Biso   1.000  O
  C2       1.0000 0.43930  0.40890  0.53270  Biso   1.000  C
  O4       1.0000 0.37990  0.31390  0.56040  Biso   1.000  O
  O5       1.0000 0.65130  0.16300  0.65960  Biso   1.000  O
  C3       1.0000 0.59110  0.03040  0.53270  Biso   1.000  C
  O6       1.0000 0.68610  0.06600  0.56040  Biso   1.000  O
  O7       1.0000 0.16300  0.51170  0.15960  Biso   1.000  O
  C4       1.0000 0.03040  0.43930  0.03270  Biso   1.000  C
  O8       1.0000 0.06600  0.37990  0.06040  Biso   1.000  O
  O9       1.0000 0.48830  0.65130  0.15960  Biso   1.000  O
  C5       1.0000 0.56070  0.59110  0.03270  Biso   1.000  C
  O10      1.0000 0.62010  0.68610  0.06040  Biso   1.000  O
  O11      1.0000 0.34870  0.83700  0.15960  Biso   1.000  O
  C6       1.0000 0.40890  0.96960  0.03270  Biso   1.000  C
  O12      1.0000 0.31390  0.93400  0.06040  Biso   1.000  O
  O13      1.0000 0.48830  0.83700  0.34040  Biso   1.000  O
  C7       1.0000 0.56070  0.96960  0.46730  Biso   1.000  C
  O14      1.0000 0.62010  0.93400  0.43960  Biso   1.000  O
  O15      1.0000 0.34870  0.51170  0.34040  Biso   1.000  O
  C8       1.0000 0.40890  0.43930  0.46730  Biso   1.000  C
  O16      1.0000 0.31390  0.37990  0.43960  Biso   1.000  O
  O17      1.0000 0.16300  0.65130  0.34040  Biso   1.000  O
  C9       1.0000 0.03040  0.59110  0.46730  Biso   1.000  C
  O18      1.0000 0.06600  0.68610  0.43960  Biso   1.000  O
  O19      1.0000 0.51170  0.16300  0.84040  Biso   1.000  O
  C10      1.0000 0.43930  0.03040  0.96730  Biso   1.000  C
  O20      1.0000 0.37990  0.06600  0.93960  Biso   1.000  O
  O21      1.0000 0.65130  0.48830  0.84040  Biso   1.000  O
  C11      1.0000 0.59110  0.56070  0.96730  Biso   1.000  C
  O22      1.0000 0.68610  0.62010  0.93960  Biso   1.000  O
  O23      1.0000 0.83700  0.34870  0.84040  Biso   1.000  O
  C12      1.0000 0.96960  0.40890  0.96730  Biso   1.000  C
  O24      1.0000 0.93400  0.31390  0.93960  Biso   1.000  O
  O25      1.0000 0.16300  0.51170  0.34040  Biso   1.000  O
  C13      1.0000 0.03040  0.43930  0.46730  Biso   1.000  C
  O26      1.0000 0.06600  0.37990  0.43960  Biso   1.000  O
  O27      1.0000 0.48830  0.65130  0.34040  Biso   1.000  O
  C14      1.0000 0.56070  0.59110  0.46730  Biso   1.000  C
  O28      1.0000 0.62010  0.68610  0.43960  Biso   1.000  O
  O29      1.0000 0.34870  0.83700  0.34040  Biso   1.000  O
  C15      1.0000 0.40890  0.96960  0.46730  Biso   1.000  C
  O30      1.0000 0.31390  0.93400  0.43960  Biso   1.000  O
  O31      1.0000 0.83700  0.48830  0.84040  Biso   1.000  O
  C16      1.0000 0.96960  0.56070  0.96730  Biso   1.000  C
  O32      1.0000 0.93400  0.62010  0.93960  Biso   1.000  O
  O33      1.0000 0.51170  0.34870  0.84040  Biso   1.000  O
  C17      1.0000 0.43930  0.40890  0.96730  Biso   1.000  C
  O34      1.0000 0.37990  0.31390  0.93960  Biso   1.000  O
  O35      1.0000 0.65130  0.16300  0.84040  Biso   1.000  O
  C18      1.0000 0.59110  0.03040  0.96730  Biso   1.000  C
  O36      1.0000 0.68610  0.06600  0.93960  Biso   1.000  O
  O37      1.0000 0.51170  0.16300  0.65960  Biso   1.000  O
  C19      1.0000 0.43930  0.03040  0.53270  Biso   1.000  C
  O38      1.0000 0.37990  0.06600  0.56040  Biso   1.000  O
  O39      1.0000 0.65130  0.48830  0.65960  Biso   1.000  O
  C20      1.0000 0.59110  0.56070  0.53270  Biso   1.000  C
  O40      1.0000 0.68610  0.62010  0.56040  Biso   1.000  O
  O41      1.0000 0.83700  0.34870  0.65960  Biso   1.000  O
  C21      1.0000 0.96960  0.40890  0.53270  Biso   1.000  C
  O42      1.0000 0.93400  0.31390  0.56040  Biso   1.000  O
  O43      1.0000 0.48830  0.83700  0.15960  Biso   1.000  O
  C22      1.0000 0.56070  0.96960  0.03270  Biso   1.000  C
  O44      1.0000 0.62010  0.93400  0.06040  Biso   1.000  O
  O45      1.0000 0.34870  0.51170  0.15960  Biso   1.000  O
  C23      1.0000 0.40890  0.43930  0.03270  Biso   1.000  C
  O46      1.0000 0.31390  0.37990  0.06040  Biso   1.000  O
  O47      1.0000 0.16300  0.65130  0.15960  Biso   1.000  O
  C24      1.0000 0.03040  0.59110  0.03270  Biso   1.000  C
  O48      1.0000 0.06600  0.68610  0.06040  Biso   1.000  O
  Fe1      1.0000 0.74206  0.48411  0.75000  Biso   1.000  Fe
  N1       1.0000 0.82170  0.64340  0.75000  Biso   1.000  N
  Fe2      1.0000 0.51589  0.25794  0.75000  Biso   1.000  Fe
  N2       1.0000 0.35660  0.17830  0.75000  Biso   1.000  N
  Fe3      1.0000 0.74206  0.25794  0.75000  Biso   1.000  Fe
  N3       1.0000 0.82170  0.17830  0.75000  Biso   1.000  N
  Fe4      1.0000 0.25794  0.51589  0.25000  Biso   1.000  Fe
  N4       1.0000 0.17830  0.35660  0.25000  Biso   1.000  N
  Fe5      1.0000 0.48411  0.74206  0.25000  Biso   1.000  Fe
  N5       1.0000 0.64340  0.82170  0.25000  Biso   1.000  N
  Fe6      1.0000 0.25794  0.74206  0.25000  Biso   1.000  Fe
  N6       1.0000 0.17830  0.82170  0.25000  Biso   1.000  N
  O49      1.0000 0.66667  0.33333  0.75000  Biso   1.000  O
  O50      1.0000 0.33333  0.66667  0.25000  Biso   1.000  O
  C25      1.0000 0.86330  0.43165  0.63330  Biso   1.000  C
  C26      1.0000 0.93450  0.46725  0.56440  Biso   1.000  C
  C27      1.0000 0.56835  0.43165  0.63330  Biso   1.000  C
  C28      1.0000 0.53275  0.46725  0.56440  Biso   1.000  C
  C29      1.0000 0.56835  0.13670  0.63330  Biso   1.000  C
  C30      1.0000 0.53275  0.06550  0.56440  Biso   1.000  C
  C31      1.0000 0.13670  0.56835  0.13330  Biso   1.000  C
  C32      1.0000 0.06550  0.53275  0.06440  Biso   1.000  C
  C33      1.0000 0.43165  0.56835  0.13330  Biso   1.000  C
  C34      1.0000 0.46725  0.53275  0.06440  Biso   1.000  C
  C35      1.0000 0.43165  0.86330  0.13330  Biso   1.000  C
  C36      1.0000 0.46725  0.93450  0.06440  Biso   1.000  C
  C37      1.0000 0.43165  0.86330  0.36670  Biso   1.000  C
  C38      1.0000 0.46725  0.93450  0.43560  Biso   1.000  C
  C39      1.0000 0.43165  0.56835  0.36670  Biso   1.000  C
  C40      1.0000 0.46725  0.53275  0.43560  Biso   1.000  C
  C41      1.0000 0.13670  0.56835  0.36670  Biso   1.000  C
  C42      1.0000 0.06550  0.53275  0.43560  Biso   1.000  C
  C43      1.0000 0.56835  0.13670  0.86670  Biso   1.000  C
  C44      1.0000 0.53275  0.06550  0.93560  Biso   1.000  C
  C45      1.0000 0.56835  0.43165  0.86670  Biso   1.000  C
  C46      1.0000 0.53275  0.46725  0.93560  Biso   1.000  C
  C47      1.0000 0.86330  0.43165  0.86670  Biso   1.000  C
  C48      1.0000 0.93450  0.46725  0.93560  Biso   1.000  C
  N7       1.0000 0.94040  0.79450  0.75000  Biso   1.000  N
  C49      1.0000 0.90900  0.70020  0.75000  Biso   1.000  C
  H1       1.0000 0.95310  0.67740  0.75000  Biso   1.000  H
  N8       1.0000 0.20550  0.14590  0.75000  Biso   1.000  N
  C50      1.0000 0.29980  0.20880  0.75000  Biso   1.000  C
  H2       1.0000 0.32260  0.27570  0.75000  Biso   1.000  H
  N9       1.0000 0.85410  0.05960  0.75000  Biso   1.000  N
  C51      1.0000 0.79120  0.09100  0.75000  Biso   1.000  C
  H3       1.0000 0.72430  0.04690  0.75000  Biso   1.000  H
  N10      1.0000 0.05960  0.20550  0.25000  Biso   1.000  N
  C52      1.0000 0.09100  0.29980  0.25000  Biso   1.000  C
  H4       1.0000 0.04690  0.32260  0.25000  Biso   1.000  H
  N11      1.0000 0.79450  0.85410  0.25000  Biso   1.000  N
  C53      1.0000 0.70020  0.79120  0.25000  Biso   1.000  C
  H5       1.0000 0.67740  0.72430  0.25000  Biso   1.000  H
  N12      1.0000 0.14590  0.94040  0.25000  Biso   1.000  N
  C54      1.0000 0.20880  0.90900  0.25000  Biso   1.000  C
  H6       1.0000 0.27570  0.95310  0.25000  Biso   1.000  H
  N13      1.0000 0.79450  0.94040  0.25000  Biso   1.000  N
  C55      1.0000 0.70020  0.90900  0.25000  Biso   1.000  C
  H7       1.0000 0.67740  0.95310  0.25000  Biso   1.000  H
  N14      1.0000 0.14590  0.20550  0.25000  Biso   1.000  N
  C56      1.0000 0.20880  0.29980  0.25000  Biso   1.000  C
  H8       1.0000 0.27570  0.32260  0.25000  Biso   1.000  H
  N15      1.0000 0.05960  0.85410  0.25000  Biso   1.000  N
  C57      1.0000 0.09100  0.79120  0.25000  Biso   1.000  C
  H9       1.0000 0.04690  0.72430  0.25000  Biso   1.000  H
  N16      1.0000 0.20550  0.05960  0.75000  Biso   1.000  N
  C58      1.0000 0.29980  0.09100  0.75000  Biso   1.000  C
  H10      1.0000 0.32260  0.04690  0.75000  Biso   1.000  H
  N17      1.0000 0.85410  0.79450  0.75000  Biso   1.000  N
  C59      1.0000 0.79120  0.70020  0.75000  Biso   1.000  C
  H11      1.0000 0.72430  0.67740  0.75000  Biso   1.000  H
  N18      1.0000 0.94040  0.14590  0.75000  Biso   1.000  N
  C60      1.0000 0.90900  0.20880  0.75000  Biso   1.000  C
  H12      1.0000 0.95310  0.27570  0.75000  Biso   1.000  H
  Cu1      1.0000 0.07467  0.92533  0.75000  Biso   1.000  Cu
  Cu2      1.0000 0.07467  0.14934  0.75000  Biso   1.000  Cu
  Cu3      1.0000 0.85066  0.92533  0.75000  Biso   1.000  Cu
  Cu4      1.0000 0.92533  0.07467  0.25000  Biso   1.000  Cu
  Cu5      1.0000 0.92533  0.85066  0.25000  Biso   1.000  Cu
  Cu6      1.0000 0.14934  0.07467  0.25000  Biso   1.000  Cu
  O51      1.0000 0.00000  0.00000  0.75000  Biso   1.000  O
  O52      1.0000 0.00000  0.00000  0.25000  Biso   1.000  O
