data_image0
_cell_length_a       13.636
_cell_length_b       13.636
_cell_length_c       14.9222
_cell_angle_alpha    90
_cell_angle_beta     90
_cell_angle_gamma    120

_symmetry_space_group_name_H-M    "P 1"
_symmetry_int_tables_number       1

loop_
  _symmetry_equiv_pos_as_xyz
  'x, y, z'

loop_
  _atom_site_label
  _atom_site_occupancy
  _atom_site_fract_x
  _atom_site_fract_y
  _atom_site_fract_z
  _atom_site_thermal_displace_type
  _atom_site_B_iso_or_equiv
  _atom_site_type_symbol
  O1       1.0000 0.88560  0.39780  0.64690  Biso   1.000  O
  O2       1.0000 0.77180  0.20870  0.65150  Biso   1.000  O
  C1       1.0000 0.92880  0.28190  0.55770  Biso   1.000  C
  C2       1.0000 0.85470  0.29680  0.62430  Biso   1.000  C
  C3       1.0000 0.93320  0.18290  0.55490  Biso   1.000  C
  H1       1.0000 0.88660  0.12470  0.59370  Biso   1.000  H
  O3       1.0000 0.60220  0.48780  0.64690  Biso   1.000  O
  O4       1.0000 0.79130  0.56310  0.65150  Biso   1.000  O
  C4       1.0000 0.71810  0.64690  0.55770  Biso   1.000  C
  C5       1.0000 0.70320  0.55790  0.62430  Biso   1.000  C
  C6       1.0000 0.81710  0.75030  0.55490  Biso   1.000  C
  H2       1.0000 0.87530  0.76190  0.59370  Biso   1.000  H
  O5       1.0000 0.51220  0.11440  0.64690  Biso   1.000  O
  O6       1.0000 0.43690  0.22820  0.65150  Biso   1.000  O
  C7       1.0000 0.35310  0.07120  0.55770  Biso   1.000  C
  C8       1.0000 0.44210  0.14530  0.62430  Biso   1.000  C
  C9       1.0000 0.24970  0.06680  0.55490  Biso   1.000  C
  H3       1.0000 0.23810  0.11340  0.59370  Biso   1.000  H
  O7       1.0000 0.88560  0.39780  0.85310  Biso   1.000  O
  O8       1.0000 0.77180  0.20870  0.84850  Biso   1.000  O
  C10      1.0000 0.92880  0.28190  0.94230  Biso   1.000  C
  C11      1.0000 0.85470  0.29680  0.87570  Biso   1.000  C
  C12      1.0000 0.93320  0.18290  0.94510  Biso   1.000  C
  H4       1.0000 0.88660  0.12470  0.90630  Biso   1.000  H
  O9       1.0000 0.60220  0.48780  0.85310  Biso   1.000  O
  O10      1.0000 0.79130  0.56310  0.84850  Biso   1.000  O
  C13      1.0000 0.71810  0.64690  0.94230  Biso   1.000  C
  C14      1.0000 0.70320  0.55790  0.87570  Biso   1.000  C
  C15      1.0000 0.81710  0.75030  0.94510  Biso   1.000  C
  H5       1.0000 0.87530  0.76190  0.90630  Biso   1.000  H
  O11      1.0000 0.51220  0.11440  0.85310  Biso   1.000  O
  O12      1.0000 0.43690  0.22820  0.84850  Biso   1.000  O
  C16      1.0000 0.35310  0.07120  0.94230  Biso   1.000  C
  C17      1.0000 0.44210  0.14530  0.87570  Biso   1.000  C
  C18      1.0000 0.24970  0.06680  0.94510  Biso   1.000  C
  H6       1.0000 0.23810  0.11340  0.90630  Biso   1.000  H
  O13      1.0000 0.39780  0.88560  0.35310  Biso   1.000  O
  O14      1.0000 0.20870  0.77180  0.34850  Biso   1.000  O
  C19      1.0000 0.28190  0.92880  0.44230  Biso   1.000  C
  C20      1.0000 0.29680  0.85470  0.37570  Biso   1.000  C
  C21      1.0000 0.18290  0.93320  0.44510  Biso   1.000  C
  H7       1.0000 0.12470  0.88660  0.40630  Biso   1.000  H
  O15      1.0000 0.48780  0.60220  0.35310  Biso   1.000  O
  O16      1.0000 0.56310  0.79130  0.34850  Biso   1.000  O
  C22      1.0000 0.64690  0.71810  0.44230  Biso   1.000  C
  C23      1.0000 0.55790  0.70320  0.37570  Biso   1.000  C
  C24      1.0000 0.75030  0.81710  0.44510  Biso   1.000  C
  H8       1.0000 0.76190  0.87530  0.40630  Biso   1.000  H
  O17      1.0000 0.11440  0.51220  0.35310  Biso   1.000  O
  O18      1.0000 0.22820  0.43690  0.34850  Biso   1.000  O
  C25      1.0000 0.07120  0.35310  0.44230  Biso   1.000  C
  C26      1.0000 0.14530  0.44210  0.37570  Biso   1.000  C
  C27      1.0000 0.06680  0.24970  0.44510  Biso   1.000  C
  H9       1.0000 0.11340  0.23810  0.40630  Biso   1.000  H
  O19      1.0000 0.39780  0.88560  0.14690  Biso   1.000  O
  O20      1.0000 0.20870  0.77180  0.15150  Biso   1.000  O
  C28      1.0000 0.28190  0.92880  0.05770  Biso   1.000  C
  C29      1.0000 0.29680  0.85470  0.12430  Biso   1.000  C
  C30      1.0000 0.18290  0.93320  0.05490  Biso   1.000  C
  H10      1.0000 0.12470  0.88660  0.09370  Biso   1.000  H
  O21      1.0000 0.48780  0.60220  0.14690  Biso   1.000  O
  O22      1.0000 0.56310  0.79130  0.15150  Biso   1.000  O
  C31      1.0000 0.64690  0.71810  0.05770  Biso   1.000  C
  C32      1.0000 0.55790  0.70320  0.12430  Biso   1.000  C
  C33      1.0000 0.75030  0.81710  0.05490  Biso   1.000  C
  H11      1.0000 0.76190  0.87530  0.09370  Biso   1.000  H
  O23      1.0000 0.11440  0.51220  0.14690  Biso   1.000  O
  O24      1.0000 0.22820  0.43690  0.15150  Biso   1.000  O
  C34      1.0000 0.07120  0.35310  0.05770  Biso   1.000  C
  C35      1.0000 0.14530  0.44210  0.12430  Biso   1.000  C
  C36      1.0000 0.06680  0.24970  0.05490  Biso   1.000  C
  H12      1.0000 0.11340  0.23810  0.09370  Biso   1.000  H
  In1      1.0000 0.64127  0.17267  0.75000  Biso   1.000  In
  In2      1.0000 0.82733  0.46860  0.75000  Biso   1.000  In
  In3      1.0000 0.53140  0.35873  0.75000  Biso   1.000  In
  In4      1.0000 0.17267  0.64127  0.25000  Biso   1.000  In
  In5      1.0000 0.46860  0.82733  0.25000  Biso   1.000  In
  In6      1.0000 0.35873  0.53140  0.25000  Biso   1.000  In
  O25      1.0000 0.66667  0.33333  0.75000  Biso   1.000  O
  O26      1.0000 0.33333  0.66667  0.25000  Biso   1.000  O
  C37      1.0000 0.00000  0.37100  0.50000  Biso   1.000  C
  H13      1.0000 0.00000  0.43920  0.50000  Biso   1.000  H
  N1       1.0000 0.00000  0.16600  0.50000  Biso   1.000  N
  C38      1.0000 0.62900  0.62900  0.50000  Biso   1.000  C
  H14      1.0000 0.56080  0.56080  0.50000  Biso   1.000  H
  N2       1.0000 0.83400  0.83400  0.50000  Biso   1.000  N
  C39      1.0000 0.37100  0.00000  0.50000  Biso   1.000  C
  H15      1.0000 0.43920  0.00000  0.50000  Biso   1.000  H
  N3       1.0000 0.16600  0.00000  0.50000  Biso   1.000  N
  C40      1.0000 0.00000  0.37100  0.00000  Biso   1.000  C
  H16      1.0000 0.00000  0.43920  0.00000  Biso   1.000  H
  N4       1.0000 0.00000  0.16600  0.00000  Biso   1.000  N
  C41      1.0000 0.62900  0.62900  0.00000  Biso   1.000  C
  H17      1.0000 0.56080  0.56080  0.00000  Biso   1.000  H
  N5       1.0000 0.83400  0.83400  0.00000  Biso   1.000  N
  C42      1.0000 0.37100  0.00000  0.00000  Biso   1.000  C
  H18      1.0000 0.43920  0.00000  0.00000  Biso   1.000  H
  N6       1.0000 0.16600  0.00000  0.00000  Biso   1.000  N
  Ag1      1.0000 0.00000  0.00000  0.50000  Biso   1.000  Ag
  Ag2      1.0000 0.00000  0.00000  0.00000  Biso   1.000  Ag
