data_image0
_cell_length_a       13.804
_cell_length_b       13.804
_cell_length_c       18.435
_cell_angle_alpha    90
_cell_angle_beta     90
_cell_angle_gamma    120

_symmetry_space_group_name_H-M    "P 1"
_symmetry_int_tables_number       1

loop_
  _symmetry_equiv_pos_as_xyz
  'x, y, z'

loop_
  _atom_site_label
  _atom_site_occupancy
  _atom_site_fract_x
  _atom_site_fract_y
  _atom_site_fract_z
  _atom_site_thermal_displace_type
  _atom_site_B_iso_or_equiv
  _atom_site_type_symbol
  O1       1.0000 0.48850  0.35030  0.33460  Biso   1.000  O
  C1       1.0000 0.42860  0.40220  0.46620  Biso   1.000  C
  O2       1.0000 0.34970  0.30520  0.43490  Biso   1.000  O
  O3       1.0000 0.64970  0.13820  0.33460  Biso   1.000  O
  C2       1.0000 0.59780  0.02640  0.46620  Biso   1.000  C
  O4       1.0000 0.69480  0.04450  0.43490  Biso   1.000  O
  O5       1.0000 0.86180  0.51150  0.33460  Biso   1.000  O
  C3       1.0000 0.97360  0.57140  0.46620  Biso   1.000  C
  O6       1.0000 0.95550  0.65030  0.43490  Biso   1.000  O
  O7       1.0000 0.51150  0.64970  0.83460  Biso   1.000  O
  C4       1.0000 0.57140  0.59780  0.96620  Biso   1.000  C
  O8       1.0000 0.65030  0.69480  0.93490  Biso   1.000  O
  O9       1.0000 0.35030  0.86180  0.83460  Biso   1.000  O
  C5       1.0000 0.40220  0.97360  0.96620  Biso   1.000  C
  O10      1.0000 0.30520  0.95550  0.93490  Biso   1.000  O
  O11      1.0000 0.13820  0.48850  0.83460  Biso   1.000  O
  C6       1.0000 0.02640  0.42860  0.96620  Biso   1.000  C
  O12      1.0000 0.04450  0.34970  0.93490  Biso   1.000  O
  O13      1.0000 0.35030  0.48850  0.66540  Biso   1.000  O
  C7       1.0000 0.40220  0.42860  0.53380  Biso   1.000  C
  O14      1.0000 0.30520  0.34970  0.56510  Biso   1.000  O
  O15      1.0000 0.13820  0.64970  0.66540  Biso   1.000  O
  C8       1.0000 0.02640  0.59780  0.53380  Biso   1.000  C
  O16      1.0000 0.04450  0.69480  0.56510  Biso   1.000  O
  O17      1.0000 0.51150  0.86180  0.66540  Biso   1.000  O
  C9       1.0000 0.57140  0.97360  0.53380  Biso   1.000  C
  O18      1.0000 0.65030  0.95550  0.56510  Biso   1.000  O
  O19      1.0000 0.64970  0.51150  0.16540  Biso   1.000  O
  C10      1.0000 0.59780  0.57140  0.03380  Biso   1.000  C
  O20      1.0000 0.69480  0.65030  0.06510  Biso   1.000  O
  O21      1.0000 0.86180  0.35030  0.16540  Biso   1.000  O
  C11      1.0000 0.97360  0.40220  0.03380  Biso   1.000  C
  O22      1.0000 0.95550  0.30520  0.06510  Biso   1.000  O
  O23      1.0000 0.48850  0.13820  0.16540  Biso   1.000  O
  C12      1.0000 0.42860  0.02640  0.03380  Biso   1.000  C
  O24      1.0000 0.34970  0.04450  0.06510  Biso   1.000  O
  O25      1.0000 0.51150  0.64970  0.66540  Biso   1.000  O
  C13      1.0000 0.57140  0.59780  0.53380  Biso   1.000  C
  O26      1.0000 0.65030  0.69480  0.56510  Biso   1.000  O
  O27      1.0000 0.35030  0.86180  0.66540  Biso   1.000  O
  C14      1.0000 0.40220  0.97360  0.53380  Biso   1.000  C
  O28      1.0000 0.30520  0.95550  0.56510  Biso   1.000  O
  O29      1.0000 0.13820  0.48850  0.66540  Biso   1.000  O
  C15      1.0000 0.02640  0.42860  0.53380  Biso   1.000  C
  O30      1.0000 0.04450  0.34970  0.56510  Biso   1.000  O
  O31      1.0000 0.48850  0.35030  0.16540  Biso   1.000  O
  C16      1.0000 0.42860  0.40220  0.03380  Biso   1.000  C
  O32      1.0000 0.34970  0.30520  0.06510  Biso   1.000  O
  O33      1.0000 0.64970  0.13820  0.16540  Biso   1.000  O
  C17      1.0000 0.59780  0.02640  0.03380  Biso   1.000  C
  O34      1.0000 0.69480  0.04450  0.06510  Biso   1.000  O
  O35      1.0000 0.86180  0.51150  0.16540  Biso   1.000  O
  C18      1.0000 0.97360  0.57140  0.03380  Biso   1.000  C
  O36      1.0000 0.95550  0.65030  0.06510  Biso   1.000  O
  O37      1.0000 0.64970  0.51150  0.33460  Biso   1.000  O
  C19      1.0000 0.59780  0.57140  0.46620  Biso   1.000  C
  O38      1.0000 0.69480  0.65030  0.43490  Biso   1.000  O
  O39      1.0000 0.86180  0.35030  0.33460  Biso   1.000  O
  C20      1.0000 0.97360  0.40220  0.46620  Biso   1.000  C
  O40      1.0000 0.95550  0.30520  0.43490  Biso   1.000  O
  O41      1.0000 0.48850  0.13820  0.33460  Biso   1.000  O
  C21      1.0000 0.42860  0.02640  0.46620  Biso   1.000  C
  O42      1.0000 0.34970  0.04450  0.43490  Biso   1.000  O
  O43      1.0000 0.35030  0.48850  0.83460  Biso   1.000  O
  C22      1.0000 0.40220  0.42860  0.96620  Biso   1.000  C
  O44      1.0000 0.30520  0.34970  0.93490  Biso   1.000  O
  O45      1.0000 0.13820  0.64970  0.83460  Biso   1.000  O
  C23      1.0000 0.02640  0.59780  0.96620  Biso   1.000  C
  O46      1.0000 0.04450  0.69480  0.93490  Biso   1.000  O
  O47      1.0000 0.51150  0.86180  0.83460  Biso   1.000  O
  C24      1.0000 0.57140  0.97360  0.96620  Biso   1.000  C
  O48      1.0000 0.65030  0.95550  0.93490  Biso   1.000  O
  In1      1.0000 0.49766  0.24883  0.25000  Biso   1.000  In
  N1       1.0000 0.31760  0.15880  0.25000  Biso   1.000  N
  In2      1.0000 0.75117  0.24883  0.25000  Biso   1.000  In
  N2       1.0000 0.84120  0.15880  0.25000  Biso   1.000  N
  In3      1.0000 0.75117  0.50234  0.25000  Biso   1.000  In
  N3       1.0000 0.84120  0.68240  0.25000  Biso   1.000  N
  In4      1.0000 0.50234  0.75117  0.75000  Biso   1.000  In
  N4       1.0000 0.68240  0.84120  0.75000  Biso   1.000  N
  In5      1.0000 0.24883  0.75117  0.75000  Biso   1.000  In
  N5       1.0000 0.15880  0.84120  0.75000  Biso   1.000  N
  In6      1.0000 0.24883  0.49766  0.75000  Biso   1.000  In
  N6       1.0000 0.15880  0.31760  0.75000  Biso   1.000  N
  O49      1.0000 0.66667  0.33333  0.25000  Biso   1.000  O
  O50      1.0000 0.33333  0.66667  0.75000  Biso   1.000  O
  C25      1.0000 0.55700  0.44300  0.36130  Biso   1.000  C
  C26      1.0000 0.52870  0.47130  0.43400  Biso   1.000  C
  C27      1.0000 0.55700  0.11400  0.36130  Biso   1.000  C
  C28      1.0000 0.52870  0.05740  0.43400  Biso   1.000  C
  C29      1.0000 0.88600  0.44300  0.36130  Biso   1.000  C
  C30      1.0000 0.94260  0.47130  0.43400  Biso   1.000  C
  C31      1.0000 0.44300  0.55700  0.86130  Biso   1.000  C
  C32      1.0000 0.47130  0.52870  0.93400  Biso   1.000  C
  C33      1.0000 0.44300  0.88600  0.86130  Biso   1.000  C
  C34      1.0000 0.47130  0.94260  0.93400  Biso   1.000  C
  C35      1.0000 0.11400  0.55700  0.86130  Biso   1.000  C
  C36      1.0000 0.05740  0.52870  0.93400  Biso   1.000  C
  C37      1.0000 0.44300  0.55700  0.63870  Biso   1.000  C
  C38      1.0000 0.47130  0.52870  0.56600  Biso   1.000  C
  C39      1.0000 0.11400  0.55700  0.63870  Biso   1.000  C
  C40      1.0000 0.05740  0.52870  0.56600  Biso   1.000  C
  C41      1.0000 0.44300  0.88600  0.63870  Biso   1.000  C
  C42      1.0000 0.47130  0.94260  0.56600  Biso   1.000  C
  C43      1.0000 0.55700  0.44300  0.13870  Biso   1.000  C
  C44      1.0000 0.52870  0.47130  0.06600  Biso   1.000  C
  C45      1.0000 0.88600  0.44300  0.13870  Biso   1.000  C
  C46      1.0000 0.94260  0.47130  0.06600  Biso   1.000  C
  C47      1.0000 0.55700  0.11400  0.13870  Biso   1.000  C
  C48      1.0000 0.52870  0.05740  0.06600  Biso   1.000  C
  C49      1.0000 0.25210  0.12605  0.30460  Biso   1.000  C
  N7       1.0000 0.14540  0.07270  0.28740  Biso   1.000  N
  H1       1.0000 0.27750  0.13875  0.35220  Biso   1.000  H
  C50      1.0000 0.87395  0.12605  0.30460  Biso   1.000  C
  N8       1.0000 0.92730  0.07270  0.28740  Biso   1.000  N
  H2       1.0000 0.86125  0.13875  0.35220  Biso   1.000  H
  C51      1.0000 0.87395  0.74790  0.30460  Biso   1.000  C
  N9       1.0000 0.92730  0.85460  0.28740  Biso   1.000  N
  H3       1.0000 0.86125  0.72250  0.35220  Biso   1.000  H
  C52      1.0000 0.74790  0.87395  0.80460  Biso   1.000  C
  N10      1.0000 0.85460  0.92730  0.78740  Biso   1.000  N
  H4       1.0000 0.72250  0.86125  0.85220  Biso   1.000  H
  C53      1.0000 0.12605  0.87395  0.80460  Biso   1.000  C
  N11      1.0000 0.07270  0.92730  0.78740  Biso   1.000  N
  H5       1.0000 0.13875  0.86125  0.85220  Biso   1.000  H
  C54      1.0000 0.12605  0.25210  0.80460  Biso   1.000  C
  N12      1.0000 0.07270  0.14540  0.78740  Biso   1.000  N
  H6       1.0000 0.13875  0.27750  0.85220  Biso   1.000  H
  C55      1.0000 0.12605  0.25210  0.69540  Biso   1.000  C
  N13      1.0000 0.07270  0.14540  0.71260  Biso   1.000  N
  H7       1.0000 0.13875  0.27750  0.64780  Biso   1.000  H
  C56      1.0000 0.12605  0.87395  0.69540  Biso   1.000  C
  N14      1.0000 0.07270  0.92730  0.71260  Biso   1.000  N
  H8       1.0000 0.13875  0.86125  0.64780  Biso   1.000  H
  C57      1.0000 0.74790  0.87395  0.69540  Biso   1.000  C
  N15      1.0000 0.85460  0.92730  0.71260  Biso   1.000  N
  H9       1.0000 0.72250  0.86125  0.64780  Biso   1.000  H
  C58      1.0000 0.87395  0.74790  0.19540  Biso   1.000  C
  N16      1.0000 0.92730  0.85460  0.21260  Biso   1.000  N
  H10      1.0000 0.86125  0.72250  0.14780  Biso   1.000  H
  C59      1.0000 0.87395  0.12605  0.19540  Biso   1.000  C
  N17      1.0000 0.92730  0.07270  0.21260  Biso   1.000  N
  H11      1.0000 0.86125  0.13875  0.14780  Biso   1.000  H
  C60      1.0000 0.25210  0.12605  0.19540  Biso   1.000  C
  N18      1.0000 0.14540  0.07270  0.21260  Biso   1.000  N
  H12      1.0000 0.27750  0.13875  0.14780  Biso   1.000  H
  Co1      1.0000 0.00000  0.00000  0.35263  Biso   1.000  Co
  Co2      1.0000 0.00000  0.00000  0.85263  Biso   1.000  Co
  Co3      1.0000 0.00000  0.00000  0.64737  Biso   1.000  Co
  Co4      1.0000 0.00000  0.00000  0.14737  Biso   1.000  Co
