data_image0
_cell_length_a       13.1696
_cell_length_b       13.1696
_cell_length_c       14.7973
_cell_angle_alpha    90
_cell_angle_beta     90
_cell_angle_gamma    120

_symmetry_space_group_name_H-M    "P 1"
_symmetry_int_tables_number       1

loop_
  _symmetry_equiv_pos_as_xyz
  'x, y, z'

loop_
  _atom_site_label
  _atom_site_occupancy
  _atom_site_fract_x
  _atom_site_fract_y
  _atom_site_fract_z
  _atom_site_thermal_displace_type
  _atom_site_B_iso_or_equiv
  _atom_site_type_symbol
  O1       1.0000 0.88220  0.49010  0.64780  Biso   1.000  O
  O2       1.0000 0.76230  0.56510  0.65270  Biso   1.000  O
  C1       1.0000 0.92760  0.75910  0.55430  Biso   1.000  C
  H1       1.0000 0.87500  0.76810  0.59050  Biso   1.000  H
  C2       1.0000 0.92780  0.65420  0.55870  Biso   1.000  C
  C3       1.0000 0.84850  0.56010  0.62600  Biso   1.000  C
  O3       1.0000 0.50990  0.39210  0.64780  Biso   1.000  O
  O4       1.0000 0.43490  0.19720  0.65270  Biso   1.000  O
  C4       1.0000 0.24090  0.16850  0.55430  Biso   1.000  C
  H2       1.0000 0.23190  0.10690  0.59050  Biso   1.000  H
  C5       1.0000 0.34580  0.27360  0.55870  Biso   1.000  C
  C6       1.0000 0.43990  0.28840  0.62600  Biso   1.000  C
  O5       1.0000 0.60790  0.11780  0.64780  Biso   1.000  O
  O6       1.0000 0.80280  0.23770  0.65270  Biso   1.000  O
  C7       1.0000 0.83150  0.07240  0.55430  Biso   1.000  C
  H3       1.0000 0.89310  0.12500  0.59050  Biso   1.000  H
  C8       1.0000 0.72640  0.07220  0.55870  Biso   1.000  C
  C9       1.0000 0.71160  0.15150  0.62600  Biso   1.000  C
  O7       1.0000 0.88220  0.49010  0.85220  Biso   1.000  O
  O8       1.0000 0.76230  0.56510  0.84730  Biso   1.000  O
  C10      1.0000 0.92760  0.75910  0.94570  Biso   1.000  C
  H4       1.0000 0.87500  0.76810  0.90950  Biso   1.000  H
  C11      1.0000 0.92780  0.65420  0.94130  Biso   1.000  C
  C12      1.0000 0.84850  0.56010  0.87400  Biso   1.000  C
  O9       1.0000 0.50990  0.39210  0.85220  Biso   1.000  O
  O10      1.0000 0.43490  0.19720  0.84730  Biso   1.000  O
  C13      1.0000 0.24090  0.16850  0.94570  Biso   1.000  C
  H5       1.0000 0.23190  0.10690  0.90950  Biso   1.000  H
  C14      1.0000 0.34580  0.27360  0.94130  Biso   1.000  C
  C15      1.0000 0.43990  0.28840  0.87400  Biso   1.000  C
  O11      1.0000 0.60790  0.11780  0.85220  Biso   1.000  O
  O12      1.0000 0.80280  0.23770  0.84730  Biso   1.000  O
  C16      1.0000 0.83150  0.07240  0.94570  Biso   1.000  C
  H6       1.0000 0.89310  0.12500  0.90950  Biso   1.000  H
  C17      1.0000 0.72640  0.07220  0.94130  Biso   1.000  C
  C18      1.0000 0.71160  0.15150  0.87400  Biso   1.000  C
  O13      1.0000 0.49010  0.88220  0.35220  Biso   1.000  O
  O14      1.0000 0.56510  0.76230  0.34730  Biso   1.000  O
  C19      1.0000 0.75910  0.92760  0.44570  Biso   1.000  C
  H7       1.0000 0.76810  0.87500  0.40950  Biso   1.000  H
  C20      1.0000 0.65420  0.92780  0.44130  Biso   1.000  C
  C21      1.0000 0.56010  0.84850  0.37400  Biso   1.000  C
  O15      1.0000 0.39210  0.50990  0.35220  Biso   1.000  O
  O16      1.0000 0.19720  0.43490  0.34730  Biso   1.000  O
  C22      1.0000 0.16850  0.24090  0.44570  Biso   1.000  C
  H8       1.0000 0.10690  0.23190  0.40950  Biso   1.000  H
  C23      1.0000 0.27360  0.34580  0.44130  Biso   1.000  C
  C24      1.0000 0.28840  0.43990  0.37400  Biso   1.000  C
  O17      1.0000 0.11780  0.60790  0.35220  Biso   1.000  O
  O18      1.0000 0.23770  0.80280  0.34730  Biso   1.000  O
  C25      1.0000 0.07240  0.83150  0.44570  Biso   1.000  C
  H9       1.0000 0.12500  0.89310  0.40950  Biso   1.000  H
  C26      1.0000 0.07220  0.72640  0.44130  Biso   1.000  C
  C27      1.0000 0.15150  0.71160  0.37400  Biso   1.000  C
  O19      1.0000 0.49010  0.88220  0.14780  Biso   1.000  O
  O20      1.0000 0.56510  0.76230  0.15270  Biso   1.000  O
  C28      1.0000 0.75910  0.92760  0.05430  Biso   1.000  C
  H10      1.0000 0.76810  0.87500  0.09050  Biso   1.000  H
  C29      1.0000 0.65420  0.92780  0.05870  Biso   1.000  C
  C30      1.0000 0.56010  0.84850  0.12600  Biso   1.000  C
  O21      1.0000 0.39210  0.50990  0.14780  Biso   1.000  O
  O22      1.0000 0.19720  0.43490  0.15270  Biso   1.000  O
  C31      1.0000 0.16850  0.24090  0.05430  Biso   1.000  C
  H11      1.0000 0.10690  0.23190  0.09050  Biso   1.000  H
  C32      1.0000 0.27360  0.34580  0.05870  Biso   1.000  C
  C33      1.0000 0.28840  0.43990  0.12600  Biso   1.000  C
  O23      1.0000 0.11780  0.60790  0.14780  Biso   1.000  O
  O24      1.0000 0.23770  0.80280  0.15270  Biso   1.000  O
  C34      1.0000 0.07240  0.83150  0.05430  Biso   1.000  C
  H12      1.0000 0.12500  0.89310  0.09050  Biso   1.000  H
  C35      1.0000 0.07220  0.72640  0.05870  Biso   1.000  C
  C36      1.0000 0.15150  0.71160  0.12600  Biso   1.000  C
  Cu1      1.0000 0.00000  0.00000  0.50000  Biso   1.000  Cu
  Cu2      1.0000 0.00000  0.00000  0.00000  Biso   1.000  Cu
  Mg1      1.0000 0.83400  0.36465  0.75000  Biso   1.000  Mg
  Mg2      1.0000 0.63535  0.46935  0.75000  Biso   1.000  Mg
  Mg3      1.0000 0.53065  0.16600  0.75000  Biso   1.000  Mg
  Mg4      1.0000 0.36465  0.83400  0.25000  Biso   1.000  Mg
  Mg5      1.0000 0.46935  0.63535  0.25000  Biso   1.000  Mg
  Mg6      1.0000 0.16600  0.53065  0.25000  Biso   1.000  Mg
  O25      1.0000 0.66667  0.33333  0.75000  Biso   1.000  O
  O26      1.0000 0.33333  0.66667  0.25000  Biso   1.000  O
  N1       1.0000 0.00000  0.84900  0.50000  Biso   1.000  N
  C37      1.0000 0.00000  0.63680  0.50000  Biso   1.000  C
  H13      1.0000 0.00000  0.56620  0.50000  Biso   1.000  H
  N2       1.0000 0.15100  0.15100  0.50000  Biso   1.000  N
  C38      1.0000 0.36320  0.36320  0.50000  Biso   1.000  C
  H14      1.0000 0.43380  0.43380  0.50000  Biso   1.000  H
  N3       1.0000 0.84900  0.00000  0.50000  Biso   1.000  N
  C39      1.0000 0.63680  0.00000  0.50000  Biso   1.000  C
  H15      1.0000 0.56620  0.00000  0.50000  Biso   1.000  H
  N4       1.0000 0.00000  0.84900  0.00000  Biso   1.000  N
  C40      1.0000 0.00000  0.63680  0.00000  Biso   1.000  C
  H16      1.0000 0.00000  0.56620  0.00000  Biso   1.000  H
  N5       1.0000 0.15100  0.15100  0.00000  Biso   1.000  N
  C41      1.0000 0.36320  0.36320  0.00000  Biso   1.000  C
  H17      1.0000 0.43380  0.43380  0.00000  Biso   1.000  H
  N6       1.0000 0.84900  0.00000  0.00000  Biso   1.000  N
  C42      1.0000 0.63680  0.00000  0.00000  Biso   1.000  C
  H18      1.0000 0.56620  0.00000  0.00000  Biso   1.000  H
