data_HAKWUM_clean
_audit_creation_date              2014-07-02
_audit_creation_method            'Materials Studio'
_symmetry_space_group_name_H-M    'P1'
_symmetry_Int_Tables_number       1
_symmetry_cell_setting            triclinic
loop_
_symmetry_equiv_pos_as_xyz
  x,y,z
_cell_length_a                    5.0432
_cell_length_b                    7.2468
_cell_length_c                    8.3499
_cell_angle_alpha                 107.4890
_cell_angle_beta                  92.4440
_cell_angle_gamma                 109.3380
loop_
_atom_site_label
_atom_site_type_symbol
_atom_site_fract_x
_atom_site_fract_y
_atom_site_fract_z
_atom_site_U_iso_or_equiv
_atom_site_adp_type
_atom_site_occupancy
Ga1    Ga    0.00000   0.50000   0.00000   0.01267  Uiso   1.00
Ga2    Ga    0.50000   0.00000  -0.00000   0.01267  Uiso   1.00
P1     P     0.51270   0.54637   0.77603   0.01267  Uiso   1.00
P2     P     0.48730   0.45363   0.22397   0.01267  Uiso   1.00
H1     H     0.21960   0.47900   0.52980   0.01267  Uiso   1.00
H2     H     0.34300   0.30260   0.50840   0.01267  Uiso   1.00
H3     H     0.78040   0.52100   0.47020   0.01267  Uiso   1.00
H4     H     0.65700   0.69740   0.49160   0.01267  Uiso   1.00
C1     C     0.39160   0.45170   0.55030   0.01267  Uiso   1.00
C2     C     0.60840   0.54830   0.44970   0.01267  Uiso   1.00
O1     O     0.26900   0.43360   0.85570   0.01267  Uiso   1.00
O2     O     0.59310   0.78140   0.83680   0.01267  Uiso   1.00
O3     O     0.77440   0.49030   0.79950   0.01267  Uiso   1.00
O4     O     0.73100   0.56640   0.14430   0.01267  Uiso   1.00
O5     O     0.40690   0.21860   0.16320   0.01267  Uiso   1.00
O6     O     0.22560   0.50970   0.20050   0.01267  Uiso   1.00
F1     F     0.19470   0.79720   0.05890   0.01267  Uiso   1.00
F2     F     0.80530   0.20280   0.94110   0.01267  Uiso   1.00
