data_image0
_cell_length_a       10.07
_cell_length_b       13.107
_cell_length_c       15.216
_cell_angle_alpha    78.42
_cell_angle_beta     76.527
_cell_angle_gamma    68.204

_symmetry_space_group_name_H-M    "P 1"
_symmetry_int_tables_number       1

loop_
  _symmetry_equiv_pos_as_xyz
  'x, y, z'

loop_
  _atom_site_label
  _atom_site_occupancy
  _atom_site_fract_x
  _atom_site_fract_y
  _atom_site_fract_z
  _atom_site_thermal_displace_type
  _atom_site_B_iso_or_equiv
  _atom_site_type_symbol
  Ni1      1.0000 0.01571  0.57777  0.34037  Biso   1.000  Ni
  Ni2      1.0000 0.73771  0.80245  0.26034  Biso   1.000  Ni
  C1       1.0000 0.24800  0.62920  0.20360  Biso   1.000  C
  C2       1.0000 0.40480  0.59990  0.16120  Biso   1.000  C
  C3       1.0000 0.44530  0.62710  0.06920  Biso   1.000  C
  H1       1.0000 0.37450  0.66270  0.03290  Biso   1.000  H
  C4       1.0000 0.59020  0.60210  0.03050  Biso   1.000  C
  H2       1.0000 0.61580  0.61970  0.96800  Biso   1.000  H
  C5       1.0000 0.51090  0.54650  0.21340  Biso   1.000  C
  H3       1.0000 0.48490  0.52510  0.27510  Biso   1.000  H
  C6       1.0000 0.65510  0.52430  0.17550  Biso   1.000  C
  H4       1.0000 0.72550  0.49050  0.21240  Biso   1.000  H
  C7       1.0000 0.69700  0.55180  0.08236  Biso   1.000  C
  C8       1.0000 0.85240  0.52770  0.04055  Biso   1.000  C
  C9       1.0000 0.90490  0.48070  0.95986  Biso   1.000  C
  H5       1.0000 0.84090  0.46730  0.93210  Biso   1.000  H
  C10      1.0000 0.95030  0.54670  0.08057  Biso   1.000  C
  C11      1.0000 0.90650  0.60010  0.16613  Biso   1.000  C
  C12      1.0000 0.69710  0.61730  0.40770  Biso   1.000  C
  C13      1.0000 0.59370  0.55940  0.45945  Biso   1.000  C
  C14      1.0000 0.63000  0.44970  0.44842  Biso   1.000  C
  H6       1.0000 0.71920  0.41530  0.41350  Biso   1.000  H
  C15      1.0000 0.53940  0.38840  0.48709  Biso   1.000  C
  C16      1.0000 0.58560  0.27240  0.46698  Biso   1.000  C
  C17      1.0000 0.72970  0.20410  0.46650  Biso   1.000  C
  H7       1.0000 0.79430  0.22970  0.48270  Biso   1.000  H
  C18      1.0000 0.77700  0.09920  0.44240  Biso   1.000  C
  H8       1.0000 0.87330  0.05430  0.44290  Biso   1.000  H
  C19      1.0000 0.49230  0.23120  0.44440  Biso   1.000  C
  H9       1.0000 0.39510  0.27480  0.44600  Biso   1.000  H
  C20      1.0000 0.54100  0.12590  0.41950  Biso   1.000  C
  H10      1.0000 0.47670  0.09950  0.40390  Biso   1.000  H
  C21      1.0000 0.68480  0.05970  0.41750  Biso   1.000  C
  C22      1.0000 0.74180  0.94840  0.38340  Biso   1.000  C
  O1       1.0000 0.15840  0.71055  0.16631  Biso   1.000  O
  O2       1.0000 0.21800  0.56941  0.27525  Biso   1.000  O
  O3       1.0000 0.81250  0.69541  0.16506  Biso   1.000  O
  O4       1.0000 0.97070  0.54418  0.22986  Biso   1.000  O
  O5       1.0000 0.82650  0.56983  0.41990  Biso   1.000  O
  O6       1.0000 0.64990  0.70293  0.35602  Biso   1.000  O
  O7       1.0000 0.86690  0.88792  0.39769  Biso   1.000  O
  O8       1.0000 0.66420  0.92624  0.34258  Biso   1.000  O
  O9       1.0000 0.93637  0.74297  0.29644  Biso   1.000  O
  H11      1.0000 0.01360  0.74450  0.25970  Biso   1.000  H
  H12      1.0000 0.92900  0.77550  0.34130  Biso   1.000  H
  O10      1.0000 0.81120  0.91610  0.15849  Biso   1.000  O
  H13      1.0000 0.73070  0.90530  0.16730  Biso   1.000  H
  H14      1.0000 0.82820  0.91820  0.21010  Biso   1.000  H
  Ni3      1.0000 0.98429  0.42223  0.65963  Biso   1.000  Ni
  Ni4      1.0000 0.26229  0.19755  0.73966  Biso   1.000  Ni
  C23      1.0000 0.75200  0.37080  0.79640  Biso   1.000  C
  C24      1.0000 0.59520  0.40010  0.83880  Biso   1.000  C
  C25      1.0000 0.55470  0.37290  0.93080  Biso   1.000  C
  H15      1.0000 0.62550  0.33730  0.96710  Biso   1.000  H
  C26      1.0000 0.40980  0.39790  0.96950  Biso   1.000  C
  H16      1.0000 0.38420  0.38030  0.03200  Biso   1.000  H
  C27      1.0000 0.48910  0.45350  0.78660  Biso   1.000  C
  H17      1.0000 0.51510  0.47490  0.72490  Biso   1.000  H
  C28      1.0000 0.34490  0.47570  0.82450  Biso   1.000  C
  H18      1.0000 0.27450  0.50950  0.78760  Biso   1.000  H
  C29      1.0000 0.30300  0.44820  0.91764  Biso   1.000  C
  C30      1.0000 0.14760  0.47230  0.95945  Biso   1.000  C
  C31      1.0000 0.09510  0.51930  0.04014  Biso   1.000  C
  H19      1.0000 0.15910  0.53270  0.06790  Biso   1.000  H
  C32      1.0000 0.04970  0.45330  0.91943  Biso   1.000  C
  C33      1.0000 0.09350  0.39990  0.83387  Biso   1.000  C
  C34      1.0000 0.30290  0.38270  0.59230  Biso   1.000  C
  C35      1.0000 0.40630  0.44060  0.54055  Biso   1.000  C
  C36      1.0000 0.37000  0.55030  0.55158  Biso   1.000  C
  H20      1.0000 0.28080  0.58470  0.58650  Biso   1.000  H
  C37      1.0000 0.46060  0.61160  0.51291  Biso   1.000  C
  C38      1.0000 0.41440  0.72760  0.53302  Biso   1.000  C
  C39      1.0000 0.27030  0.79590  0.53350  Biso   1.000  C
  H21      1.0000 0.20570  0.77030  0.51730  Biso   1.000  H
  C40      1.0000 0.22300  0.90080  0.55760  Biso   1.000  C
  H22      1.0000 0.12670  0.94570  0.55710  Biso   1.000  H
  C41      1.0000 0.50770  0.76880  0.55560  Biso   1.000  C
  H23      1.0000 0.60490  0.72520  0.55400  Biso   1.000  H
  C42      1.0000 0.45900  0.87410  0.58050  Biso   1.000  C
  H24      1.0000 0.52330  0.90050  0.59610  Biso   1.000  H
  C43      1.0000 0.31520  0.94030  0.58250  Biso   1.000  C
  C44      1.0000 0.25820  0.05160  0.61660  Biso   1.000  C
  O11      1.0000 0.84160  0.28945  0.83369  Biso   1.000  O
  O12      1.0000 0.78200  0.43059  0.72475  Biso   1.000  O
  O13      1.0000 0.18750  0.30459  0.83494  Biso   1.000  O
  O14      1.0000 0.02930  0.45582  0.77014  Biso   1.000  O
  O15      1.0000 0.17350  0.43017  0.58010  Biso   1.000  O
  O16      1.0000 0.35010  0.29707  0.64398  Biso   1.000  O
  O17      1.0000 0.13310  0.11208  0.60231  Biso   1.000  O
  O18      1.0000 0.33580  0.07376  0.65742  Biso   1.000  O
  O19      1.0000 0.06363  0.25703  0.70356  Biso   1.000  O
  H25      1.0000 0.98640  0.25550  0.74030  Biso   1.000  H
  H26      1.0000 0.07100  0.22450  0.65870  Biso   1.000  H
  O20      1.0000 0.18880  0.08390  0.84151  Biso   1.000  O
  H27      1.0000 0.26930  0.09470  0.83270  Biso   1.000  H
  H28      1.0000 0.17180  0.08180  0.78990  Biso   1.000  H
