data_HAMJOW_clean
_audit_creation_date              2014-07-02
_audit_creation_method            'Materials Studio'
_symmetry_space_group_name_H-M    'P1'
_symmetry_Int_Tables_number       1
_symmetry_cell_setting            triclinic
loop_
_symmetry_equiv_pos_as_xyz
  x,y,z
_cell_length_a                    13.7490
_cell_length_b                    13.9900
_cell_length_c                    14.0730
_cell_angle_alpha                 110.5380
_cell_angle_beta                  90.0000
_cell_angle_gamma                 90.0000
loop_
_atom_site_label
_atom_site_type_symbol
_atom_site_fract_x
_atom_site_fract_y
_atom_site_fract_z
_atom_site_U_iso_or_equiv
_atom_site_adp_type
_atom_site_occupancy
Zn1    Zn    0.05830   0.90492   0.95727   0.01267  Uiso   1.00
Zn2    Zn    0.55830   0.09508   0.54273   0.01267  Uiso   1.00
Zn3    Zn    0.94170   0.09508   0.04273   0.01267  Uiso   1.00
Zn4    Zn    0.44170   0.90492   0.45727   0.01267  Uiso   1.00
H1     H     0.89460   0.60220   0.16660   0.01267  Uiso   1.00
H2     H     0.91640   0.74450   0.11930   0.01267  Uiso   1.00
H3     H     0.76750   0.00390   0.26850   0.01267  Uiso   1.00
H4     H     0.70060   0.74010   0.31460   0.01267  Uiso   1.00
H5     H     0.02120   0.30670   0.11660   0.01267  Uiso   1.00
H6     H     0.96970   0.47420   0.17730   0.01267  Uiso   1.00
H7     H     0.69180   0.37380   0.15930   0.01267  Uiso   1.00
H8     H     0.74970   0.20700   0.09620   0.01267  Uiso   1.00
H9     H     0.39460   0.39780   0.33340   0.01267  Uiso   1.00
H10    H     0.41640   0.25550   0.38070   0.01267  Uiso   1.00
H11    H     0.26750   0.99610   0.23150   0.01267  Uiso   1.00
H12    H     0.20060   0.25990   0.18540   0.01267  Uiso   1.00
H13    H     0.52120   0.69330   0.38340   0.01267  Uiso   1.00
H14    H     0.46970   0.52580   0.32270   0.01267  Uiso   1.00
H15    H     0.19180   0.62620   0.34070   0.01267  Uiso   1.00
H16    H     0.24970   0.79300   0.40380   0.01267  Uiso   1.00
H17    H     0.10540   0.39780   0.83340   0.01267  Uiso   1.00
H18    H     0.08360   0.25550   0.88070   0.01267  Uiso   1.00
H19    H     0.23250   0.99610   0.73150   0.01267  Uiso   1.00
H20    H     0.29940   0.25990   0.68540   0.01267  Uiso   1.00
H21    H     0.97880   0.69330   0.88340   0.01267  Uiso   1.00
H22    H     0.03030   0.52580   0.82270   0.01267  Uiso   1.00
H23    H     0.30820   0.62620   0.84070   0.01267  Uiso   1.00
H24    H     0.25030   0.79300   0.90380   0.01267  Uiso   1.00
H25    H     0.60540   0.60220   0.66660   0.01267  Uiso   1.00
H26    H     0.58360   0.74450   0.61930   0.01267  Uiso   1.00
H27    H     0.73250   0.00390   0.76850   0.01267  Uiso   1.00
H28    H     0.79940   0.74010   0.81460   0.01267  Uiso   1.00
H29    H     0.47880   0.30670   0.61660   0.01267  Uiso   1.00
H30    H     0.53030   0.47420   0.67730   0.01267  Uiso   1.00
H31    H     0.80820   0.37380   0.65930   0.01267  Uiso   1.00
H32    H     0.75030   0.20700   0.59620   0.01267  Uiso   1.00
C1     C     0.81330   0.72660   0.21520   0.01267  Uiso   1.00
C2     C     0.86690   0.77900   0.16570   0.01267  Uiso   1.00
C3     C     0.84880   0.88200   0.18350   0.01267  Uiso   1.00
C4     C     0.77790   0.93300   0.25330   0.01267  Uiso   1.00
C5     C     0.72200   0.87960   0.30090   0.01267  Uiso   1.00
C6     C     0.73900   0.77620   0.28220   0.01267  Uiso   1.00
C7     C     0.78180   0.54920   0.21120   0.01267  Uiso   1.00
C8     C     0.95350   0.32050   0.12510   0.01267  Uiso   1.00
C9     C     0.92340   0.42050   0.16130   0.01267  Uiso   1.00
C10    C     0.82500   0.44240   0.17440   0.01267  Uiso   1.00
C11    C     0.75970   0.36130   0.15040   0.01267  Uiso   1.00
C12    C     0.79470   0.26200   0.11330   0.01267  Uiso   1.00
C13    C     0.90550   0.93570   0.12420   0.01267  Uiso   1.00
C14    C     0.64300   0.93330   0.37510   0.01267  Uiso   1.00
C15    C     0.31330   0.27340   0.28480   0.01267  Uiso   1.00
C16    C     0.36690   0.22100   0.33430   0.01267  Uiso   1.00
C17    C     0.34880   0.11800   0.31650   0.01267  Uiso   1.00
C18    C     0.27790   0.06700   0.24670   0.01267  Uiso   1.00
C19    C     0.22200   0.12040   0.19910   0.01267  Uiso   1.00
C20    C     0.23900   0.22380   0.21780   0.01267  Uiso   1.00
C21    C     0.28180   0.45080   0.28880   0.01267  Uiso   1.00
C22    C     0.45350   0.67950   0.37490   0.01267  Uiso   1.00
C23    C     0.42340   0.57950   0.33870   0.01267  Uiso   1.00
C24    C     0.32500   0.55760   0.32560   0.01267  Uiso   1.00
C25    C     0.25970   0.63870   0.34960   0.01267  Uiso   1.00
C26    C     0.29470   0.73800   0.38670   0.01267  Uiso   1.00
C27    C     0.40550   0.06430   0.37580   0.01267  Uiso   1.00
C28    C     0.14300   0.06670   0.12490   0.01267  Uiso   1.00
C29    C     0.18670   0.27340   0.78480   0.01267  Uiso   1.00
C30    C     0.13310   0.22100   0.83430   0.01267  Uiso   1.00
C31    C     0.15120   0.11800   0.81650   0.01267  Uiso   1.00
C32    C     0.22210   0.06700   0.74670   0.01267  Uiso   1.00
C33    C     0.27800   0.12040   0.69910   0.01267  Uiso   1.00
C34    C     0.26100   0.22380   0.71780   0.01267  Uiso   1.00
C35    C     0.21820   0.45080   0.78880   0.01267  Uiso   1.00
C36    C     0.04650   0.67950   0.87490   0.01267  Uiso   1.00
C37    C     0.07660   0.57950   0.83870   0.01267  Uiso   1.00
C38    C     0.17500   0.55760   0.82560   0.01267  Uiso   1.00
C39    C     0.24030   0.63870   0.84960   0.01267  Uiso   1.00
C40    C     0.20530   0.73800   0.88670   0.01267  Uiso   1.00
C41    C     0.09450   0.06430   0.87580   0.01267  Uiso   1.00
C42    C     0.35700   0.06670   0.62490   0.01267  Uiso   1.00
C43    C     0.68670   0.72660   0.71520   0.01267  Uiso   1.00
C44    C     0.63310   0.77900   0.66570   0.01267  Uiso   1.00
C45    C     0.65120   0.88200   0.68350   0.01267  Uiso   1.00
C46    C     0.72210   0.93300   0.75330   0.01267  Uiso   1.00
C47    C     0.77800   0.87960   0.80090   0.01267  Uiso   1.00
C48    C     0.76100   0.77620   0.78220   0.01267  Uiso   1.00
C49    C     0.71820   0.54920   0.71120   0.01267  Uiso   1.00
C50    C     0.54650   0.32050   0.62510   0.01267  Uiso   1.00
C51    C     0.57660   0.42050   0.66130   0.01267  Uiso   1.00
C52    C     0.67500   0.44240   0.67440   0.01267  Uiso   1.00
C53    C     0.74030   0.36130   0.65040   0.01267  Uiso   1.00
C54    C     0.70530   0.26200   0.61330   0.01267  Uiso   1.00
C55    C     0.59450   0.93570   0.62420   0.01267  Uiso   1.00
C56    C     0.85700   0.93330   0.87510   0.01267  Uiso   1.00
N1     N     0.83720   0.62200   0.19400   0.01267  Uiso   1.00
N2     N     0.89090   0.24100   0.10100   0.01267  Uiso   1.00
N3     N     0.33720   0.37800   0.30600   0.01267  Uiso   1.00
N4     N     0.39090   0.75900   0.39900   0.01267  Uiso   1.00
N5     N     0.16280   0.37800   0.80600   0.01267  Uiso   1.00
N6     N     0.10910   0.75900   0.89900   0.01267  Uiso   1.00
N7     N     0.66280   0.62200   0.69400   0.01267  Uiso   1.00
N8     N     0.60910   0.24100   0.60100   0.01267  Uiso   1.00
O1     O     0.70260   0.56510   0.25260   0.01267  Uiso   1.00
O2     O     0.97300   0.88450   0.06900   0.01267  Uiso   1.00
O3     O     0.87970   0.02450   0.13240   0.01267  Uiso   1.00
O4     O     0.65700   0.02420   0.43180   0.01267  Uiso   1.00
O5     O     0.56780   0.88030   0.37440   0.01267  Uiso   1.00
O6     O     0.20260   0.43490   0.24740   0.01267  Uiso   1.00
O7     O     0.47300   0.11550   0.43100   0.01267  Uiso   1.00
O8     O     0.37970   0.97550   0.36760   0.01267  Uiso   1.00
O9     O     0.15700   0.97580   0.06820   0.01267  Uiso   1.00
O10    O     0.06780   0.11970   0.12560   0.01267  Uiso   1.00
O11    O     0.29740   0.43490   0.74740   0.01267  Uiso   1.00
O12    O     0.02700   0.11550   0.93100   0.01267  Uiso   1.00
O13    O     0.12030   0.97550   0.86760   0.01267  Uiso   1.00
O14    O     0.34300   0.97580   0.56820   0.01267  Uiso   1.00
O15    O     0.43220   0.11970   0.62560   0.01267  Uiso   1.00
O16    O     0.79740   0.56510   0.75260   0.01267  Uiso   1.00
O17    O     0.52700   0.88450   0.56900   0.01267  Uiso   1.00
O18    O     0.62030   0.02450   0.63240   0.01267  Uiso   1.00
O19    O     0.84300   0.02420   0.93180   0.01267  Uiso   1.00
O20    O     0.93220   0.88030   0.87440   0.01267  Uiso   1.00
