data_image0
_cell_length_a       12.1467
_cell_length_b       18.1091
_cell_length_c       24.1338
_cell_angle_alpha    107.541
_cell_angle_beta     98.67
_cell_angle_gamma    91.332

_symmetry_space_group_name_H-M    "P 1"
_symmetry_int_tables_number       1

loop_
  _symmetry_equiv_pos_as_xyz
  'x, y, z'

loop_
  _atom_site_label
  _atom_site_occupancy
  _atom_site_fract_x
  _atom_site_fract_y
  _atom_site_fract_z
  _atom_site_thermal_displace_type
  _atom_site_B_iso_or_equiv
  _atom_site_type_symbol
  C1       1.0000 0.85550  0.95120  0.77810  Biso   1.000  C
  H1       1.0000 0.89210  0.93290  0.74490  Biso   1.000  H
  C2       1.0000 0.74670  0.92450  0.77549  Biso   1.000  C
  C3       1.0000 0.69180  0.95080  0.82390  Biso   1.000  C
  H2       1.0000 0.61810  0.93070  0.82230  Biso   1.000  H
  C4       1.0000 0.62050  0.89740  0.68266  Biso   1.000  C
  C5       1.0000 0.57700  0.84320  0.62361  Biso   1.000  C
  C6       1.0000 0.60700  0.76430  0.60935  Biso   1.000  C
  C7       1.0000 0.67210  0.73690  0.65075  Biso   1.000  C
  C8       1.0000 0.71700  0.79090  0.71002  Biso   1.000  C
  C9       1.0000 0.69690  0.66020  0.63613  Biso   1.000  C
  H3       1.0000 0.73930  0.64150  0.66480  Biso   1.000  H
  C10      1.0000 0.66010  0.60990  0.57950  Biso   1.000  C
  H4       1.0000 0.67880  0.55740  0.56960  Biso   1.000  H
  C11      1.0000 0.59650  0.63610  0.53752  Biso   1.000  C
  C12      1.0000 0.56920  0.71440  0.55186  Biso   1.000  C
  C13      1.0000 0.50620  0.74220  0.50966  Biso   1.000  C
  C14      1.0000 0.47550  0.81810  0.52587  Biso   1.000  C
  H5       1.0000 0.43130  0.83660  0.49760  Biso   1.000  H
  C15      1.0000 0.50850  0.86730  0.58296  Biso   1.000  C
  H6       1.0000 0.48330  0.91820  0.59390  Biso   1.000  H
  C16      1.0000 0.47380  0.69110  0.44862  Biso   1.000  C
  C17      1.0000 0.55670  0.58160  0.47796  Biso   1.000  C
  C18      1.0000 0.44240  0.56060  0.38001  Biso   1.000  C
  C19      1.0000 0.32950  0.56080  0.36153  Biso   1.000  C
  H7       1.0000 0.28580  0.59450  0.38630  Biso   1.000  H
  C20      1.0000 0.27970  0.51230  0.30725  Biso   1.000  C
  C21      1.0000 0.34480  0.46170  0.27140  Biso   1.000  C
  H8       1.0000 0.31110  0.42750  0.23410  Biso   1.000  H
  C22      1.0000 0.45870  0.46160  0.29052  Biso   1.000  C
  C23      1.0000 0.50860  0.51190  0.34471  Biso   1.000  C
  H9       1.0000 0.58670  0.51300  0.35750  Biso   1.000  H
  C24      1.0000 0.52740  0.40720  0.25285  Biso   1.000  C
  C25      1.0000 0.21100  0.37970  0.70428  Biso   1.000  C
  C26      1.0000 0.15710  0.51480  0.28452  Biso   1.000  C
  C27      1.0000 0.75990  0.40480  0.18107  Biso   1.000  C
  H10      1.0000 0.72710  0.43310  0.21370  Biso   1.000  H
  C28      1.0000 0.78070  0.31910  0.10077  Biso   1.000  C
  C29      1.0000 0.87670  0.36910  0.12242  Biso   1.000  C
  C30      1.0000 0.96680  0.35530  0.09083  Biso   1.000  C
  C31      1.0000 0.85630  0.25270  0.02243  Biso   1.000  C
  H11      1.0000 0.84990  0.21230  0.98600  Biso   1.000  H
  C32      1.0000 0.54490  0.20880  0.22319  Biso   1.000  C
  H12      1.0000 0.50750  0.25290  0.24160  Biso   1.000  H
  C33      1.0000 0.62330  0.13997  0.14594  Biso   1.000  C
  C34      1.0000 0.70250  0.05070  0.09042  Biso   1.000  C
  H13      1.0000 0.73430  0.02190  0.05760  Biso   1.000  H
  C35      1.0000 0.34370  0.32940  0.08052  Biso   1.000  C
  H14      1.0000 0.35080  0.37230  0.11550  Biso   1.000  H
  C36      1.0000 0.22800  0.25500  0.99515  Biso   1.000  C
  C37      1.0000 0.31980  0.21050  0.98201  Biso   1.000  C
  C38      1.0000 0.41880  0.23000  0.02145  Biso   1.000  C
  C39      1.0000 0.43740  0.12990  0.94953  Biso   1.000  C
  H15      1.0000 0.46990  0.08750  0.92520  Biso   1.000  H
  C40      1.0000 0.68350  0.03600  0.92594  Biso   1.000  C
  C41      1.0000 0.74600  0.00651  0.87428  Biso   1.000  C
  C42      1.0000 0.85510  0.03410  0.87732  Biso   1.000  C
  H16      1.0000 0.89140  0.07270  0.91190  Biso   1.000  H
  C43      1.0000 0.64580  0.08390  0.17349  Biso   1.000  C
  C44      1.0000 0.61540  0.09380  0.22924  Biso   1.000  C
  C45      1.0000 0.03080  0.03060  0.83260  Biso   1.000  C
  C46      1.0000 0.91160  0.00550  0.83006  Biso   1.000  C
  C47      1.0000 0.25290  0.16800  0.79624  Biso   1.000  C
  C48      1.0000 0.27530  0.20040  0.74859  Biso   1.000  C
  C49      1.0000 0.23890  0.27290  0.74858  Biso   1.000  C
  H17      1.0000 0.20220  0.30190  0.77940  Biso   1.000  H
  C50      1.0000 0.25590  0.30260  0.70404  Biso   1.000  C
  C51      1.0000 0.30740  0.26000  0.65806  Biso   1.000  C
  H18      1.0000 0.31820  0.27980  0.62690  Biso   1.000  H
  C52      1.0000 0.34260  0.18790  0.65868  Biso   1.000  C
  C53      1.0000 0.32660  0.15790  0.70323  Biso   1.000  C
  H19      1.0000 0.35070  0.10820  0.70270  Biso   1.000  H
  C54      1.0000 0.31820  0.10360  0.55721  Biso   1.000  C
  C55      1.0000 0.36670  0.04650  0.51074  Biso   1.000  C
  C56      1.0000 0.30250  0.01120  0.45734  Biso   1.000  C
  H20      1.0000 0.22760  0.02440  0.45010  Biso   1.000  H
  C57      1.0000 0.47740  0.02790  0.52181  Biso   1.000  C
  C58      1.0000 0.54770  0.06550  0.57662  Biso   1.000  C
  C59      1.0000 0.50290  0.12350  0.62359  Biso   1.000  C
  C60      1.0000 0.65490  0.04430  0.58718  Biso   1.000  C
  H21      1.0000 0.70010  0.06710  0.62460  Biso   1.000  H
  N1       1.0000 0.69200  0.86840  0.72134  Biso   1.000  N
  N2       1.0000 0.49060  0.61265  0.43742  Biso   1.000  N
  N3       1.0000 0.86160  0.42397  0.17415  Biso   1.000  N
  N4       1.0000 0.70580  0.34215  0.13848  Biso   1.000  N
  N5       1.0000 0.76760  0.25770  0.05078  Biso   1.000  N
  N6       1.0000 0.95170  0.29727  0.03914  Biso   1.000  N
  N7       1.0000 0.06580  0.39507  0.10799  Biso   1.000  N
  H22      1.0000 0.11830  0.38320  0.08590  Biso   1.000  H
  H23      1.0000 0.07890  0.43330  0.14140  Biso   1.000  H
  N8       1.0000 0.66010  0.11936  0.09292  Biso   1.000  N
  N9       1.0000 0.57120  0.20616  0.16962  Biso   1.000  N
  N10      1.0000 0.43430  0.28882  0.07257  Biso   1.000  N
  N11      1.0000 0.24560  0.31684  0.04548  Biso   1.000  N
  N12      1.0000 0.12520  0.23931  0.96344  Biso   1.000  N
  H24      1.0000 0.07100  0.26850  0.97520  Biso   1.000  H
  H25      1.0000 0.11170  0.19980  0.93080  Biso   1.000  H
  N13      1.0000 0.49520  0.17866  0.00006  Biso   1.000  N
  N14      1.0000 0.33250  0.14523  0.93611  Biso   1.000  N
  N15      1.0000 0.69740  0.02537  0.13628  Biso   1.000  N
  N16      1.0000 0.63620  0.04560  0.26002  Biso   1.000  N
  H26      1.0000 0.61710  0.05590  0.29520  Biso   1.000  H
  H27      1.0000 0.66930  0.00300  0.24550  Biso   1.000  H
  N17      1.0000 0.56380  0.15971  0.25269  Biso   1.000  N
  N18      1.0000 0.39170  0.13996  0.61014  Biso   1.000  N
  O1       1.0000 0.77700  0.77110  0.74697  Biso   1.000  O
  O2       1.0000 0.59910  0.96462  0.69739  Biso   1.000  O
  O3       1.0000 0.43230  0.71671  0.40902  Biso   1.000  O
  O4       1.0000 0.57780  0.51389  0.46334  Biso   1.000  O
  O5       1.0000 0.48174  0.37522  0.19981  Biso   1.000  O
  O6       1.0000 0.62130  0.39518  0.27422  Biso   1.000  O
  O7       1.0000 0.15880  0.41006  0.74650  Biso   1.000  O
  O8       1.0000 0.22720  0.40798  0.66502  Biso   1.000  O
  O9       1.0000 0.10700  0.57044  0.30931  Biso   1.000  O
  O10      1.0000 0.11028  0.45994  0.24050  Biso   1.000  O
  O11      1.0000 0.72375  0.10193  0.96247  Biso   1.000  O
  O12      1.0000 0.60130  0.99816  0.92879  Biso   1.000  O
  O13      1.0000 0.19580  0.20156  0.83399  Biso   1.000  O
  O14      1.0000 0.29570  0.10315  0.79685  Biso   1.000  O
  O15      1.0000 0.07690  0.00679  0.78882  Biso   1.000  O
  O16      1.0000 0.08294  0.07439  0.88149  Biso   1.000  O
  O17      1.0000 0.55750  0.15697  0.67169  Biso   1.000  O
  O18      1.0000 0.22260  0.11980  0.55065  Biso   1.000  O
  Zn1      1.0000 0.55578  0.30174  0.14322  Biso   1.000  Zn
  Zn2      1.0000 0.65469  0.16436  0.02706  Biso   1.000  Zn
  Zn3      1.0000 0.95569  0.51242  0.24024  Biso   1.000  Zn
  Zn4      1.0000 0.23687  0.07623  0.86112  Biso   1.000  Zn
  C61      1.0000 0.14450  0.04880  0.22190  Biso   1.000  C
  H28      1.0000 0.10790  0.06710  0.25510  Biso   1.000  H
  C62      1.0000 0.25330  0.07550  0.22451  Biso   1.000  C
  C63      1.0000 0.30820  0.04920  0.17610  Biso   1.000  C
  H29      1.0000 0.38190  0.06930  0.17770  Biso   1.000  H
  C64      1.0000 0.37950  0.10260  0.31734  Biso   1.000  C
  C65      1.0000 0.42300  0.15680  0.37639  Biso   1.000  C
  C66      1.0000 0.39300  0.23570  0.39065  Biso   1.000  C
  C67      1.0000 0.32790  0.26310  0.34925  Biso   1.000  C
  C68      1.0000 0.28300  0.20910  0.28998  Biso   1.000  C
  C69      1.0000 0.30310  0.33980  0.36387  Biso   1.000  C
  H30      1.0000 0.26070  0.35850  0.33520  Biso   1.000  H
  C70      1.0000 0.33990  0.39010  0.42050  Biso   1.000  C
  H31      1.0000 0.32120  0.44260  0.43040  Biso   1.000  H
  C71      1.0000 0.40350  0.36390  0.46248  Biso   1.000  C
  C72      1.0000 0.43080  0.28560  0.44814  Biso   1.000  C
  C73      1.0000 0.49380  0.25780  0.49034  Biso   1.000  C
  C74      1.0000 0.52450  0.18190  0.47413  Biso   1.000  C
  H32      1.0000 0.56870  0.16340  0.50240  Biso   1.000  H
  C75      1.0000 0.49150  0.13270  0.41704  Biso   1.000  C
  H33      1.0000 0.51670  0.08180  0.40610  Biso   1.000  H
  C76      1.0000 0.52620  0.30890  0.55138  Biso   1.000  C
  C77      1.0000 0.44330  0.41840  0.52204  Biso   1.000  C
  C78      1.0000 0.55760  0.43940  0.61999  Biso   1.000  C
  C79      1.0000 0.67050  0.43920  0.63847  Biso   1.000  C
  H34      1.0000 0.71420  0.40550  0.61370  Biso   1.000  H
  C80      1.0000 0.72030  0.48770  0.69275  Biso   1.000  C
  C81      1.0000 0.65520  0.53830  0.72860  Biso   1.000  C
  H35      1.0000 0.68890  0.57250  0.76590  Biso   1.000  H
  C82      1.0000 0.54130  0.53840  0.70948  Biso   1.000  C
  C83      1.0000 0.49140  0.48810  0.65529  Biso   1.000  C
  H36      1.0000 0.41330  0.48700  0.64250  Biso   1.000  H
  C84      1.0000 0.47260  0.59280  0.74715  Biso   1.000  C
  C85      1.0000 0.78900  0.62030  0.29572  Biso   1.000  C
  C86      1.0000 0.84290  0.48520  0.71548  Biso   1.000  C
  C87      1.0000 0.24010  0.59520  0.81893  Biso   1.000  C
  H37      1.0000 0.27290  0.56690  0.78630  Biso   1.000  H
  C88      1.0000 0.21930  0.68090  0.89923  Biso   1.000  C
  C89      1.0000 0.12330  0.63090  0.87758  Biso   1.000  C
  C90      1.0000 0.03320  0.64470  0.90917  Biso   1.000  C
  C91      1.0000 0.14370  0.74730  0.97757  Biso   1.000  C
  H38      1.0000 0.15010  0.78770  0.01400  Biso   1.000  H
  C92      1.0000 0.45510  0.79120  0.77681  Biso   1.000  C
  H39      1.0000 0.49250  0.74710  0.75840  Biso   1.000  H
  C93      1.0000 0.37670  0.86003  0.85406  Biso   1.000  C
  C94      1.0000 0.29750  0.94930  0.90958  Biso   1.000  C
  H40      1.0000 0.26570  0.97810  0.94240  Biso   1.000  H
  C95      1.0000 0.65630  0.67060  0.91948  Biso   1.000  C
  H41      1.0000 0.64920  0.62770  0.88450  Biso   1.000  H
  C96      1.0000 0.77200  0.74500  0.00485  Biso   1.000  C
  C97      1.0000 0.68020  0.78950  0.01799  Biso   1.000  C
  C98      1.0000 0.58120  0.77000  0.97855  Biso   1.000  C
  C99      1.0000 0.56260  0.87010  0.05047  Biso   1.000  C
  H42      1.0000 0.53010  0.91250  0.07480  Biso   1.000  H
  C100     1.0000 0.31650  0.96400  0.07406  Biso   1.000  C
  C101     1.0000 0.25400  0.99349  0.12572  Biso   1.000  C
  C102     1.0000 0.14490  0.96590  0.12268  Biso   1.000  C
  H43      1.0000 0.10860  0.92730  0.08810  Biso   1.000  H
  C103     1.0000 0.35420  0.91610  0.82651  Biso   1.000  C
  C104     1.0000 0.38460  0.90620  0.77076  Biso   1.000  C
  C105     1.0000 0.96920  0.96940  0.16740  Biso   1.000  C
  C106     1.0000 0.08840  0.99450  0.16994  Biso   1.000  C
  C107     1.0000 0.74710  0.83200  0.20376  Biso   1.000  C
  C108     1.0000 0.72470  0.79960  0.25141  Biso   1.000  C
  C109     1.0000 0.76110  0.72710  0.25142  Biso   1.000  C
  H44      1.0000 0.79780  0.69810  0.22060  Biso   1.000  H
  C110     1.0000 0.74410  0.69740  0.29596  Biso   1.000  C
  C111     1.0000 0.69260  0.74000  0.34194  Biso   1.000  C
  H45      1.0000 0.68180  0.72020  0.37310  Biso   1.000  H
  C112     1.0000 0.65740  0.81210  0.34132  Biso   1.000  C
  C113     1.0000 0.67340  0.84210  0.29677  Biso   1.000  C
  H46      1.0000 0.64930  0.89180  0.29730  Biso   1.000  H
  C114     1.0000 0.68180  0.89640  0.44279  Biso   1.000  C
  C115     1.0000 0.63330  0.95350  0.48926  Biso   1.000  C
  C116     1.0000 0.69750  0.98880  0.54266  Biso   1.000  C
  H47      1.0000 0.77240  0.97560  0.54990  Biso   1.000  H
  C117     1.0000 0.52260  0.97210  0.47819  Biso   1.000  C
  C118     1.0000 0.45230  0.93450  0.42338  Biso   1.000  C
  C119     1.0000 0.49710  0.87650  0.37641  Biso   1.000  C
  C120     1.0000 0.34510  0.95570  0.41282  Biso   1.000  C
  H48      1.0000 0.29990  0.93290  0.37540  Biso   1.000  H
  N19      1.0000 0.30800  0.13160  0.27866  Biso   1.000  N
  N20      1.0000 0.50940  0.38735  0.56258  Biso   1.000  N
  N21      1.0000 0.13840  0.57603  0.82585  Biso   1.000  N
  N22      1.0000 0.29420  0.65785  0.86152  Biso   1.000  N
  N23      1.0000 0.23240  0.74230  0.94922  Biso   1.000  N
  N24      1.0000 0.04830  0.70273  0.96086  Biso   1.000  N
  N25      1.0000 0.93420  0.60493  0.89201  Biso   1.000  N
  H49      1.0000 0.88170  0.61680  0.91410  Biso   1.000  H
  H50      1.0000 0.92110  0.56670  0.85860  Biso   1.000  H
  N26      1.0000 0.33990  0.88064  0.90708  Biso   1.000  N
  N27      1.0000 0.42880  0.79384  0.83038  Biso   1.000  N
  N28      1.0000 0.56570  0.71118  0.92743  Biso   1.000  N
  N29      1.0000 0.75440  0.68316  0.95452  Biso   1.000  N
  N30      1.0000 0.87480  0.76069  0.03656  Biso   1.000  N
  H51      1.0000 0.92900  0.73150  0.02480  Biso   1.000  H
  H52      1.0000 0.88830  0.80020  0.06920  Biso   1.000  H
  N31      1.0000 0.50480  0.82134  0.99994  Biso   1.000  N
  N32      1.0000 0.66750  0.85477  0.06389  Biso   1.000  N
  N33      1.0000 0.30260  0.97463  0.86372  Biso   1.000  N
  N34      1.0000 0.36380  0.95440  0.73998  Biso   1.000  N
  H53      1.0000 0.38290  0.94410  0.70480  Biso   1.000  H
  H54      1.0000 0.33070  0.99700  0.75450  Biso   1.000  H
  N35      1.0000 0.43620  0.84029  0.74731  Biso   1.000  N
  N36      1.0000 0.60830  0.86004  0.38986  Biso   1.000  N
  O19      1.0000 0.22300  0.22890  0.25303  Biso   1.000  O
  O20      1.0000 0.40090  0.03538  0.30261  Biso   1.000  O
  O21      1.0000 0.56770  0.28329  0.59098  Biso   1.000  O
  O22      1.0000 0.42220  0.48611  0.53666  Biso   1.000  O
  O23      1.0000 0.51826  0.62478  0.80019  Biso   1.000  O
  O24      1.0000 0.37870  0.60482  0.72578  Biso   1.000  O
  O25      1.0000 0.84120  0.58994  0.25350  Biso   1.000  O
  O26      1.0000 0.77280  0.59202  0.33498  Biso   1.000  O
  O27      1.0000 0.89300  0.42956  0.69069  Biso   1.000  O
  O28      1.0000 0.88972  0.54006  0.75950  Biso   1.000  O
  O29      1.0000 0.27625  0.89807  0.03753  Biso   1.000  O
  O30      1.0000 0.39870  0.00184  0.07121  Biso   1.000  O
  O31      1.0000 0.80420  0.79844  0.16601  Biso   1.000  O
  O32      1.0000 0.70430  0.89685  0.20315  Biso   1.000  O
  O33      1.0000 0.92310  0.99321  0.21118  Biso   1.000  O
  O34      1.0000 0.91706  0.92561  0.11851  Biso   1.000  O
  O35      1.0000 0.44250  0.84303  0.32831  Biso   1.000  O
  O36      1.0000 0.77740  0.88020  0.44935  Biso   1.000  O
  Zn5      1.0000 0.44422  0.69826  0.85678  Biso   1.000  Zn
  Zn6      1.0000 0.34531  0.83564  0.97294  Biso   1.000  Zn
  Zn7      1.0000 0.04431  0.48758  0.75976  Biso   1.000  Zn
  Zn8      1.0000 0.76313  0.92377  0.13888  Biso   1.000  Zn
