data_image0
_cell_length_a       6.173
_cell_length_b       9.045
_cell_length_c       14.654
_cell_angle_alpha    90
_cell_angle_beta     93.92
_cell_angle_gamma    90

_symmetry_space_group_name_H-M    "P 1"
_symmetry_int_tables_number       1

loop_
  _symmetry_equiv_pos_as_xyz
  'x, y, z'

loop_
  _atom_site_label
  _atom_site_occupancy
  _atom_site_fract_x
  _atom_site_fract_y
  _atom_site_fract_z
  _atom_site_thermal_displace_type
  _atom_site_B_iso_or_equiv
  _atom_site_type_symbol
  C1       1.0000 0.90350  0.76890  0.18590  Biso   1.000  C
  C2       1.0000 0.88530  0.75210  0.08150  Biso   1.000  C
  C3       1.0000 0.59280  0.21920  0.10570  Biso   1.000  C
  C4       1.0000 0.71560  0.35540  0.08420  Biso   1.000  C
  Er1      1.0000 0.07660  0.08000  0.11440  Biso   1.000  Er
  O1       1.0000 0.86040  0.65940  0.23440  Biso   1.000  O
  O2       1.0000 0.96750  0.89300  0.21510  Biso   1.000  O
  O3       1.0000 0.95520  0.87750  0.03640  Biso   1.000  O
  O4       1.0000 0.39260  0.22670  0.10180  Biso   1.000  O
  O5       1.0000 0.70600  0.11500  0.12470  Biso   1.000  O
  O6       1.0000 0.94550  0.33880  0.10640  Biso   1.000  O
  C5       1.0000 0.09650  0.26890  0.31410  Biso   1.000  C
  C6       1.0000 0.11470  0.25210  0.41850  Biso   1.000  C
  C7       1.0000 0.40720  0.71920  0.39430  Biso   1.000  C
  C8       1.0000 0.28440  0.85540  0.41580  Biso   1.000  C
  Er2      1.0000 0.92340  0.58000  0.38560  Biso   1.000  Er
  O7       1.0000 0.13960  0.15940  0.26560  Biso   1.000  O
  O8       1.0000 0.03250  0.39300  0.28490  Biso   1.000  O
  O9       1.0000 0.04480  0.37750  0.46360  Biso   1.000  O
  O10      1.0000 0.60740  0.72670  0.39820  Biso   1.000  O
  O11      1.0000 0.29400  0.61500  0.37530  Biso   1.000  O
  O12      1.0000 0.05450  0.83880  0.39360  Biso   1.000  O
  C9       1.0000 0.09650  0.23110  0.81410  Biso   1.000  C
  C10      1.0000 0.11470  0.24790  0.91850  Biso   1.000  C
  C11      1.0000 0.40720  0.78080  0.89430  Biso   1.000  C
  C12      1.0000 0.28440  0.64460  0.91580  Biso   1.000  C
  Er3      1.0000 0.92340  0.92000  0.88560  Biso   1.000  Er
  O13      1.0000 0.13960  0.34060  0.76560  Biso   1.000  O
  O14      1.0000 0.03250  0.10700  0.78490  Biso   1.000  O
  O15      1.0000 0.04480  0.12250  0.96360  Biso   1.000  O
  O16      1.0000 0.60740  0.77330  0.89820  Biso   1.000  O
  O17      1.0000 0.29400  0.88500  0.87530  Biso   1.000  O
  O18      1.0000 0.05450  0.66120  0.89360  Biso   1.000  O
  C13      1.0000 0.90350  0.73110  0.68590  Biso   1.000  C
  C14      1.0000 0.88530  0.74790  0.58150  Biso   1.000  C
  C15      1.0000 0.59280  0.28080  0.60570  Biso   1.000  C
  C16      1.0000 0.71560  0.14460  0.58420  Biso   1.000  C
  Er4      1.0000 0.07660  0.42000  0.61440  Biso   1.000  Er
  O19      1.0000 0.86040  0.84060  0.73440  Biso   1.000  O
  O20      1.0000 0.96750  0.60700  0.71510  Biso   1.000  O
  O21      1.0000 0.95520  0.62250  0.53640  Biso   1.000  O
  O22      1.0000 0.39260  0.27330  0.60180  Biso   1.000  O
  O23      1.0000 0.70600  0.38500  0.62470  Biso   1.000  O
  O24      1.0000 0.94550  0.16120  0.60640  Biso   1.000  O
