data_image0
_cell_length_a       13.543
_cell_length_b       25.778
_cell_length_c       26.753
_cell_angle_alpha    98.786
_cell_angle_beta     103.609
_cell_angle_gamma    103.991

_symmetry_space_group_name_H-M    "P 1"
_symmetry_int_tables_number       1

loop_
  _symmetry_equiv_pos_as_xyz
  'x, y, z'

loop_
  _atom_site_label
  _atom_site_occupancy
  _atom_site_fract_x
  _atom_site_fract_y
  _atom_site_fract_z
  _atom_site_thermal_displace_type
  _atom_site_B_iso_or_equiv
  _atom_site_type_symbol
  Ti1      1.0000 0.48172  0.37793  0.45077  Biso   1.000  Ti
  Ti2      1.0000 0.33708  0.42412  0.50916  Biso   1.000  Ti
  Ti3      1.0000 0.63295  0.46513  0.54883  Biso   1.000  Ti
  Ti4      1.0000 0.31013  0.04186  0.94756  Biso   1.000  Ti
  Ti5      1.0000 0.51038  0.02689  0.91868  Biso   1.000  Ti
  Ti6      1.0000 0.49890  0.09694  0.04951  Biso   1.000  Ti
  Ti7      1.0000 0.61665  0.07497  0.57024  Biso   1.000  Ti
  Ti8      1.0000 0.71283  0.05782  0.47730  Biso   1.000  Ti
  Ti9      1.0000 0.63648  0.94238  0.50107  Biso   1.000  Ti
  Ti10     1.0000 0.94091  0.53294  0.89069  Biso   1.000  Ti
  Ti11     1.0000 0.15062  0.53251  0.96811  Biso   1.000  Ti
  Ti12     1.0000 0.89921  0.41668  0.91686  Biso   1.000  Ti
  Cu1      1.0000 0.32928  0.25904  0.70757  Biso   1.000  Cu
  Cu2      1.0000 0.31628  0.25760  0.80509  Biso   1.000  Cu
  Cu3      1.0000 0.15883  0.19260  0.71701  Biso   1.000  Cu
  Cu4      1.0000 0.18111  0.29645  0.74503  Biso   1.000  Cu
  I1       1.0000 0.34821  0.17121  0.74569  Biso   1.000  I
  I2       1.0000 0.13038  0.24900  0.64296  Biso   1.000  I
  I3       1.0000 0.39655  0.35116  0.78029  Biso   1.000  I
  I4       1.0000 0.11291  0.23362  0.80611  Biso   1.000  I
  P1       1.0000 0.49270  0.51799  0.61071  Biso   1.000  P
  P2       1.0000 0.71100  0.07978  0.02194  Biso   1.000  P
  P3       1.0000 0.11450  0.41563  0.00007  Biso   1.000  P
  P4       1.0000 0.53010  0.95759  0.59706  Biso   1.000  P
  N1       1.0000 0.41410  0.26400  0.65500  Biso   1.000  N
  N2       1.0000 0.41380  0.25990  0.87580  Biso   1.000  N
  N3       1.0000 0.05890  0.11540  0.68930  Biso   1.000  N
  N4       1.0000 0.13050  0.36410  0.74820  Biso   1.000  N
  C1       1.0000 0.40380  0.29610  0.62060  Biso   1.000  C
  H1       1.0000 0.36170  0.32020  0.62440  Biso   1.000  H
  C2       1.0000 0.44980  0.29660  0.57980  Biso   1.000  C
  C3       1.0000 0.50610  0.26050  0.57240  Biso   1.000  C
  H2       1.0000 0.54000  0.26050  0.54500  Biso   1.000  H
  C4       1.0000 0.51400  0.22300  0.60530  Biso   1.000  C
  H3       1.0000 0.54900  0.19580  0.59930  Biso   1.000  H
  C5       1.0000 0.47000  0.22700  0.64600  Biso   1.000  C
  H4       1.0000 0.47810  0.20300  0.66940  Biso   1.000  H
  C6       1.0000 0.43120  0.33260  0.54230  Biso   1.000  C
  C7       1.0000 0.48580  0.52950  0.67720  Biso   1.000  C
  C8       1.0000 0.50980  0.58350  0.70630  Biso   1.000  C
  H5       1.0000 0.52850  0.61350  0.69040  Biso   1.000  H
  C9       1.0000 0.50600  0.59280  0.75740  Biso   1.000  C
  H6       1.0000 0.52870  0.62930  0.77780  Biso   1.000  H
  C10      1.0000 0.47110  0.55010  0.77940  Biso   1.000  C
  H7       1.0000 0.46030  0.55670  0.81340  Biso   1.000  H
  C11      1.0000 0.45280  0.50120  0.75370  Biso   1.000  C
  H8       1.0000 0.43500  0.47170  0.77040  Biso   1.000  H
  C12      1.0000 0.45810  0.48950  0.70170  Biso   1.000  C
  H9       1.0000 0.44160  0.45240  0.68370  Biso   1.000  H
  C13      1.0000 0.23480  0.34250  0.40280  Biso   1.000  C
  C14      1.0000 0.19740  0.28340  0.40570  Biso   1.000  C
  H10      1.0000 0.13290  0.26450  0.37670  Biso   1.000  H
  H11      1.0000 0.18210  0.28140  0.43950  Biso   1.000  H
  H12      1.0000 0.25280  0.26570  0.40270  Biso   1.000  H
  C15      1.0000 0.23200  0.35920  0.35570  Biso   1.000  C
  H13      1.0000 0.27020  0.39840  0.36320  Biso   1.000  H
  H14      1.0000 0.15850  0.35290  0.33540  Biso   1.000  H
  H15      1.0000 0.26680  0.33820  0.33530  Biso   1.000  H
  C16      1.0000 0.72290  0.39710  0.47080  Biso   1.000  C
  C17      1.0000 0.74630  0.35110  0.49000  Biso   1.000  C
  H16      1.0000 0.80760  0.34420  0.47980  Biso   1.000  H
  H17      1.0000 0.68470  0.31860  0.47490  Biso   1.000  H
  H18      1.0000 0.76250  0.35910  0.52860  Biso   1.000  H
  C18      1.0000 0.79300  0.44210  0.46590  Biso   1.000  C
  H19      1.0000 0.75570  0.46910  0.45670  Biso   1.000  H
  H20      1.0000 0.82500  0.43170  0.43820  Biso   1.000  H
  H21      1.0000 0.84840  0.45810  0.49940  Biso   1.000  H
  C19      1.0000 0.50020  0.30150  0.90180  Biso   1.000  C
  H22      1.0000 0.51190  0.33370  0.88820  Biso   1.000  H
  C20      1.0000 0.57140  0.30090  0.94570  Biso   1.000  C
  H23      1.0000 0.63120  0.33190  0.96250  Biso   1.000  H
  C21      1.0000 0.55650  0.25370  0.96660  Biso   1.000  C
  H24      1.0000 0.60670  0.25180  0.99730  Biso   1.000  H
  C22      1.0000 0.46820  0.21070  0.94190  Biso   1.000  C
  C23      1.0000 0.40090  0.21450  0.89630  Biso   1.000  C
  H25      1.0000 0.34190  0.18360  0.87810  Biso   1.000  H
  C24      1.0000 0.44320  0.15990  0.96250  Biso   1.000  C
  C25      1.0000 0.83380  0.13130  0.03210  Biso   1.000  C
  C26      1.0000 0.86200  0.15980  0.00050  Biso   1.000  C
  H26      1.0000 0.81230  0.15140  0.96660  Biso   1.000  H
  C27      1.0000 0.95500  0.20190  0.00850  Biso   1.000  C
  H27      1.0000 0.96330  0.22100  0.98140  Biso   1.000  H
  C28      1.0000 0.02500  0.21420  0.05020  Biso   1.000  C
  C29      1.0000 0.98900  0.20150  0.08910  Biso   1.000  C
  H28      1.0000 0.02020  0.22370  0.12370  Biso   1.000  H
  C30      1.0000 0.90100  0.15220  0.07800  Biso   1.000  C
  H29      1.0000 0.89260  0.13450  0.10610  Biso   1.000  H
  C31      1.0000 0.28660  0.98800  0.83450  Biso   1.000  C
  C32      1.0000 0.29400  0.93580  0.81580  Biso   1.000  C
  H30      1.0000 0.30250  0.91670  0.84480  Biso   1.000  H
  H31      1.0000 0.35460  0.93910  0.80160  Biso   1.000  H
  H32      1.0000 0.22850  0.91500  0.78800  Biso   1.000  H
  C33      1.0000 0.28060  0.02660  0.80100  Biso   1.000  C
  H33      1.0000 0.23700  0.00710  0.76520  Biso   1.000  H
  H34      1.0000 0.35220  0.04520  0.80010  Biso   1.000  H
  H35      1.0000 0.24860  0.05380  0.81490  Biso   1.000  H
  C34      1.0000 0.26140  0.08650  0.04700  Biso   1.000  C
  C35      1.0000 0.25500  0.14570  0.05140  Biso   1.000  C
  H36      1.0000 0.20380  0.15120  0.07050  Biso   1.000  H
  H37      1.0000 0.23280  0.15240  0.01600  Biso   1.000  H
  H38      1.0000 0.32520  0.17120  0.07050  Biso   1.000  H
  C36      1.0000 0.23700  0.05390  0.07780  Biso   1.000  C
  H39      1.0000 0.25890  0.02080  0.06910  Biso   1.000  H
  H40      1.0000 0.16070  0.04390  0.07300  Biso   1.000  H
  H41      1.0000 0.27480  0.07270  0.11460  Biso   1.000  H
  C37      1.0000 0.06540  0.08010  0.71940  Biso   1.000  C
  H42      1.0000 0.11280  0.09270  0.75400  Biso   1.000  H
  C38      1.0000 0.00700  0.02540  0.70350  Biso   1.000  C
  H43      1.0000 0.01560  0.00070  0.72610  Biso   1.000  H
  C39      1.0000 0.93620  0.00780  0.65400  Biso   1.000  C
  H44      1.0000 0.89430  0.97060  0.64210  Biso   1.000  H
  C40      1.0000 0.92570  0.04450  0.62130  Biso   1.000  C
  C41      1.0000 0.98960  0.09730  0.64120  Biso   1.000  C
  H45      1.0000 0.98440  0.12290  0.61930  Biso   1.000  H
  C42      1.0000 0.84640  0.02670  0.56930  Biso   1.000  C
  C43      1.0000 0.55890  0.93500  0.65650  Biso   1.000  C
  C44      1.0000 0.66000  0.94120  0.68390  Biso   1.000  C
  H46      1.0000 0.71790  0.95590  0.67090  Biso   1.000  H
  C45      1.0000 0.67700  0.92440  0.73460  Biso   1.000  C
  H47      1.0000 0.74710  0.93100  0.75650  Biso   1.000  H
  C46      1.0000 0.59800  0.90090  0.74920  Biso   1.000  C
  H48      1.0000 0.60960  0.88440  0.77870  Biso   1.000  H
  C47      1.0000 0.50500  0.89910  0.72520  Biso   1.000  C
  H49      1.0000 0.44850  0.88650  0.73990  Biso   1.000  H
  C48      1.0000 0.48400  0.91490  0.67920  Biso   1.000  C
  H50      1.0000 0.41230  0.91150  0.66180  Biso   1.000  H
  C49      1.0000 0.71720  0.95100  0.40330  Biso   1.000  C
  H51      1.0000 0.68270  0.91140  0.40070  Biso   1.000  H
  C50      1.0000 0.65700  0.96460  0.35340  Biso   1.000  C
  H52      1.0000 0.58170  0.95810  0.35260  Biso   1.000  H
  H53      1.0000 0.66180  0.94110  0.32230  Biso   1.000  H
  H54      1.0000 0.68720  0.00310  0.35340  Biso   1.000  H
  C51      1.0000 0.82960  0.95640  0.41150  Biso   1.000  C
  H55      1.0000 0.84000  0.93590  0.38010  Biso   1.000  H
  H56      1.0000 0.85560  0.94160  0.44200  Biso   1.000  H
  H57      1.0000 0.86910  0.99510  0.41790  Biso   1.000  H
  C52      1.0000 0.71730  0.17530  0.53140  Biso   1.000  C
  H58      1.0000 0.68790  0.18770  0.56060  Biso   1.000  H
  C53      1.0000 0.65760  0.18890  0.48700  Biso   1.000  C
  H59      1.0000 0.58280  0.16800  0.47870  Biso   1.000  H
  H60      1.0000 0.68430  0.18000  0.45670  Biso   1.000  H
  H61      1.0000 0.66450  0.22830  0.49480  Biso   1.000  H
  C54      1.0000 0.83340  0.20380  0.55200  Biso   1.000  C
  H62      1.0000 0.84540  0.24340  0.55510  Biso   1.000  H
  H63      1.0000 0.87000  0.19020  0.52770  Biso   1.000  H
  H64      1.0000 0.86100  0.19670  0.58680  Biso   1.000  H
  C55      1.0000 0.07860  0.37900  0.78230  Biso   1.000  C
  H65      1.0000 0.05420  0.35400  0.80250  Biso   1.000  H
  C56      1.0000 0.05970  0.42960  0.78890  Biso   1.000  C
  C57      1.0000 0.09510  0.46580  0.76020  Biso   1.000  C
  H66      1.0000 0.08340  0.50090  0.76450  Biso   1.000  H
  C58      1.0000 0.14780  0.45060  0.72490  Biso   1.000  C
  H67      1.0000 0.17340  0.47500  0.70450  Biso   1.000  H
  C59      1.0000 0.16260  0.39910  0.72000  Biso   1.000  C
  H68      1.0000 0.19750  0.38830  0.69500  Biso   1.000  H
  C60      1.0000 0.00340  0.44450  0.82900  Biso   1.000  C
  C61      1.0000 0.18810  0.36650  0.00150  Biso   1.000  C
  C62      1.0000 0.18590  0.33310  0.95780  Biso   1.000  C
  H69      1.0000 0.14640  0.33640  0.92460  Biso   1.000  H
  C63      1.0000 0.23930  0.29380  0.95920  Biso   1.000  C
  H70      1.0000 0.23180  0.26870  0.92760  Biso   1.000  H
  C64      1.0000 0.30040  0.29110  0.00410  Biso   1.000  C
  H71      1.0000 0.34330  0.26680  0.00400  Biso   1.000  H
  C65      1.0000 0.30390  0.32240  0.05120  Biso   1.000  C
  H72      1.0000 0.34440  0.31870  0.08390  Biso   1.000  H
  C66      1.0000 0.24480  0.36020  0.04860  Biso   1.000  C
  H73      1.0000 0.24410  0.38200  0.08050  Biso   1.000  H
  C67      1.0000 0.14270  0.63310  0.91710  Biso   1.000  C
  C68      1.0000 0.18100  0.63090  0.87190  Biso   1.000  C
  H74      1.0000 0.21790  0.66800  0.87030  Biso   1.000  H
  H75      1.0000 0.12120  0.61450  0.84000  Biso   1.000  H
  H76      1.0000 0.23030  0.60850  0.87410  Biso   1.000  H
  C69      1.0000 0.14100  0.67440  0.95280  Biso   1.000  C
  H77      1.0000 0.12160  0.66050  0.98240  Biso   1.000  H
  H78      1.0000 0.08790  0.69170  0.93680  Biso   1.000  H
  H79      1.0000 0.21070  0.70140  0.96560  Biso   1.000  H
  C70      1.0000 0.71400  0.44710  0.84920  Biso   1.000  C
  H80      1.0000 0.68850  0.41060  0.85760  Biso   1.000  H
  C71      1.0000 0.65400  0.47880  0.87210  Biso   1.000  C
  H81      1.0000 0.67450  0.48290  0.91050  Biso   1.000  H
  H82      1.0000 0.57800  0.45980  0.85760  Biso   1.000  H
  H83      1.0000 0.66900  0.51510  0.86380  Biso   1.000  H
  C72      1.0000 0.69850  0.43260  0.79280  Biso   1.000  C
  H84      1.0000 0.73990  0.40750  0.78530  Biso   1.000  H
  H85      1.0000 0.72220  0.46590  0.78010  Biso   1.000  H
  H86      1.0000 0.62310  0.41470  0.77490  Biso   1.000  H
  O1       1.0000 0.47330  0.32930  0.50570  Biso   1.000  O
  O2       1.0000 0.37420  0.36290  0.55030  Biso   1.000  O
  O3       1.0000 0.58700  0.49630  0.60840  Biso   1.000  O
  O4       1.0000 0.38880  0.47760  0.57730  Biso   1.000  O
  O5       1.0000 0.63300  0.40830  0.48660  Biso   1.000  O
  O6       1.0000 0.50950  0.57440  0.59710  Biso   1.000  O
  O7       1.0000 0.33030  0.37070  0.44390  Biso   1.000  O
  O8       1.0000 0.30850  0.47460  0.46920  Biso   1.000  O
  O9       1.0000 0.48810  0.43650  0.51000  Biso   1.000  O
  O10      1.0000 0.36530  0.12030  0.93490  Biso   1.000  O
  O11      1.0000 0.50470  0.16040  0.00610  Biso   1.000  O
  O12      1.0000 0.65650  0.06520  0.96350  Biso   1.000  O
  O13      1.0000 0.64750  0.10440  0.05380  Biso   1.000  O
  O14      1.0000 0.35320  0.01350  0.88660  Biso   1.000  O
  O15      1.0000 0.33870  0.07950  0.02160  Biso   1.000  O
  O16      1.0000 0.48510  0.04080  0.08560  Biso   1.000  O
  O17      1.0000 0.46170  0.05090  0.97710  Biso   1.000  O
  O18      1.0000 0.73990  0.03130  0.04080  Biso   1.000  O
  O19      1.0000 0.49340  0.08750  0.55040  Biso   1.000  O
  O20      1.0000 0.78560  0.97900  0.55900  Biso   1.000  O
  O21      1.0000 0.84320  0.06110  0.54050  Biso   1.000  O
  O22      1.0000 0.41060  0.94290  0.57750  Biso   1.000  O
  O23      1.0000 0.58140  0.01920  0.61040  Biso   1.000  O
  O24      1.0000 0.57650  0.92790  0.55910  Biso   1.000  O
  O25      1.0000 0.69280  0.11700  0.52600  Biso   1.000  O
  O26      1.0000 0.70150  0.98040  0.45060  Biso   1.000  O
  O27      1.0000 0.62980  0.01930  0.51890  Biso   1.000  O
  O28      1.0000 0.97260  0.40890  0.85330  Biso   1.000  O
  O29      1.0000 0.99130  0.49130  0.83350  Biso   1.000  O
  O30      1.0000 0.10280  0.42770  0.05530  Biso   1.000  O
  O31      1.0000 0.18020  0.46690  0.98830  Biso   1.000  O
  O32      1.0000 0.00910  0.38990  0.95840  Biso   1.000  O
  O33      1.0000 0.82620  0.46460  0.87810  Biso   1.000  O
  O34      1.0000 0.09010  0.57890  0.92120  Biso   1.000  O
  O35      1.0000 0.16600  0.57330  0.02960  Biso   1.000  O
  O36      1.0000 0.00720  0.49070  0.93750  Biso   1.000  O
  Ti13     1.0000 0.51828  0.62207  0.54923  Biso   1.000  Ti
  Ti14     1.0000 0.66292  0.57588  0.49084  Biso   1.000  Ti
  Ti15     1.0000 0.36705  0.53487  0.45117  Biso   1.000  Ti
  Ti16     1.0000 0.68987  0.95814  0.05244  Biso   1.000  Ti
  Ti17     1.0000 0.48962  0.97311  0.08132  Biso   1.000  Ti
  Ti18     1.0000 0.50110  0.90306  0.95049  Biso   1.000  Ti
  Ti19     1.0000 0.38335  0.92503  0.42976  Biso   1.000  Ti
  Ti20     1.0000 0.28717  0.94218  0.52270  Biso   1.000  Ti
  Ti21     1.0000 0.36352  0.05762  0.49893  Biso   1.000  Ti
  Ti22     1.0000 0.05909  0.46706  0.10931  Biso   1.000  Ti
  Ti23     1.0000 0.84938  0.46749  0.03189  Biso   1.000  Ti
  Ti24     1.0000 0.10079  0.58332  0.08314  Biso   1.000  Ti
  Cu5      1.0000 0.67072  0.74096  0.29243  Biso   1.000  Cu
  Cu6      1.0000 0.68372  0.74240  0.19491  Biso   1.000  Cu
  Cu7      1.0000 0.84117  0.80740  0.28299  Biso   1.000  Cu
  Cu8      1.0000 0.81889  0.70355  0.25497  Biso   1.000  Cu
  I5       1.0000 0.65179  0.82879  0.25431  Biso   1.000  I
  I6       1.0000 0.86962  0.75100  0.35704  Biso   1.000  I
  I7       1.0000 0.60345  0.64884  0.21971  Biso   1.000  I
  I8       1.0000 0.88709  0.76638  0.19389  Biso   1.000  I
  P5       1.0000 0.50730  0.48201  0.38929  Biso   1.000  P
  P6       1.0000 0.28900  0.92022  0.97806  Biso   1.000  P
  P7       1.0000 0.88550  0.58437  0.99993  Biso   1.000  P
  P8       1.0000 0.46990  0.04241  0.40294  Biso   1.000  P
  N5       1.0000 0.58590  0.73600  0.34500  Biso   1.000  N
  N6       1.0000 0.58620  0.74010  0.12420  Biso   1.000  N
  N7       1.0000 0.94110  0.88460  0.31070  Biso   1.000  N
  N8       1.0000 0.86950  0.63590  0.25180  Biso   1.000  N
  C73      1.0000 0.59620  0.70390  0.37940  Biso   1.000  C
  H87      1.0000 0.63830  0.67980  0.37560  Biso   1.000  H
  C74      1.0000 0.55020  0.70340  0.42020  Biso   1.000  C
  C75      1.0000 0.49390  0.73950  0.42760  Biso   1.000  C
  H88      1.0000 0.46000  0.73950  0.45500  Biso   1.000  H
  C76      1.0000 0.48600  0.77700  0.39470  Biso   1.000  C
  H89      1.0000 0.45100  0.80420  0.40070  Biso   1.000  H
  C77      1.0000 0.53000  0.77300  0.35400  Biso   1.000  C
  H90      1.0000 0.52190  0.79700  0.33060  Biso   1.000  H
  C78      1.0000 0.56880  0.66740  0.45770  Biso   1.000  C
  C79      1.0000 0.51420  0.47050  0.32280  Biso   1.000  C
  C80      1.0000 0.49020  0.41650  0.29370  Biso   1.000  C
  H91      1.0000 0.47150  0.38650  0.30960  Biso   1.000  H
  C81      1.0000 0.49400  0.40720  0.24260  Biso   1.000  C
  H92      1.0000 0.47130  0.37070  0.22220  Biso   1.000  H
  C82      1.0000 0.52890  0.44990  0.22060  Biso   1.000  C
  H93      1.0000 0.53970  0.44330  0.18660  Biso   1.000  H
  C83      1.0000 0.54720  0.49880  0.24630  Biso   1.000  C
  H94      1.0000 0.56500  0.52830  0.22960  Biso   1.000  H
  C84      1.0000 0.54190  0.51050  0.29830  Biso   1.000  C
  H95      1.0000 0.55840  0.54760  0.31630  Biso   1.000  H
  C85      1.0000 0.76520  0.65750  0.59720  Biso   1.000  C
  C86      1.0000 0.80260  0.71660  0.59430  Biso   1.000  C
  H96      1.0000 0.86710  0.73550  0.62330  Biso   1.000  H
  H97      1.0000 0.81790  0.71860  0.56050  Biso   1.000  H
  H98      1.0000 0.74720  0.73430  0.59730  Biso   1.000  H
  C87      1.0000 0.76800  0.64080  0.64430  Biso   1.000  C
  H99      1.0000 0.72980  0.60160  0.63680  Biso   1.000  H
  H100     1.0000 0.84150  0.64710  0.66460  Biso   1.000  H
  H101     1.0000 0.73320  0.66180  0.66470  Biso   1.000  H
  C88      1.0000 0.27710  0.60290  0.52920  Biso   1.000  C
  C89      1.0000 0.25370  0.64890  0.51000  Biso   1.000  C
  H102     1.0000 0.19240  0.65580  0.52020  Biso   1.000  H
  H103     1.0000 0.31530  0.68140  0.52510  Biso   1.000  H
  H104     1.0000 0.23750  0.64090  0.47140  Biso   1.000  H
  C90      1.0000 0.20700  0.55790  0.53410  Biso   1.000  C
  H105     1.0000 0.24430  0.53090  0.54330  Biso   1.000  H
  H106     1.0000 0.17500  0.56830  0.56180  Biso   1.000  H
  H107     1.0000 0.15160  0.54190  0.50060  Biso   1.000  H
  C91      1.0000 0.49980  0.69850  0.09820  Biso   1.000  C
  H108     1.0000 0.48810  0.66630  0.11180  Biso   1.000  H
  C92      1.0000 0.42860  0.69910  0.05430  Biso   1.000  C
  H109     1.0000 0.36880  0.66810  0.03750  Biso   1.000  H
  C93      1.0000 0.44350  0.74630  0.03340  Biso   1.000  C
  H110     1.0000 0.39330  0.74820  0.00270  Biso   1.000  H
  C94      1.0000 0.53180  0.78930  0.05810  Biso   1.000  C
  C95      1.0000 0.59910  0.78550  0.10370  Biso   1.000  C
  H111     1.0000 0.65810  0.81640  0.12190  Biso   1.000  H
  C96      1.0000 0.55680  0.84010  0.03750  Biso   1.000  C
  C97      1.0000 0.16620  0.86870  0.96790  Biso   1.000  C
  C98      1.0000 0.13800  0.84020  0.99950  Biso   1.000  C
  H112     1.0000 0.18770  0.84860  0.03340  Biso   1.000  H
  C99      1.0000 0.04500  0.79810  0.99150  Biso   1.000  C
  H113     1.0000 0.03670  0.77900  0.01860  Biso   1.000  H
  C100     1.0000 0.97500  0.78580  0.94980  Biso   1.000  C
  C101     1.0000 0.01100  0.79850  0.91090  Biso   1.000  C
  H114     1.0000 0.97980  0.77630  0.87630  Biso   1.000  H
  C102     1.0000 0.09900  0.84780  0.92200  Biso   1.000  C
  H115     1.0000 0.10740  0.86550  0.89390  Biso   1.000  H
  C103     1.0000 0.71340  0.01200  0.16550  Biso   1.000  C
  C104     1.0000 0.70600  0.06420  0.18420  Biso   1.000  C
  H116     1.0000 0.69750  0.08330  0.15520  Biso   1.000  H
  H117     1.0000 0.64540  0.06090  0.19840  Biso   1.000  H
  H118     1.0000 0.77150  0.08500  0.21200  Biso   1.000  H
  C105     1.0000 0.71940  0.97340  0.19900  Biso   1.000  C
  H119     1.0000 0.76300  0.99290  0.23480  Biso   1.000  H
  H120     1.0000 0.64780  0.95480  0.19990  Biso   1.000  H
  H121     1.0000 0.75140  0.94620  0.18510  Biso   1.000  H
  C106     1.0000 0.73860  0.91350  0.95300  Biso   1.000  C
  C107     1.0000 0.74500  0.85430  0.94860  Biso   1.000  C
  H122     1.0000 0.79620  0.84880  0.92950  Biso   1.000  H
  H123     1.0000 0.76720  0.84760  0.98400  Biso   1.000  H
  H124     1.0000 0.67480  0.82880  0.92950  Biso   1.000  H
  C108     1.0000 0.76300  0.94610  0.92220  Biso   1.000  C
  H125     1.0000 0.74110  0.97920  0.93090  Biso   1.000  H
  H126     1.0000 0.83930  0.95610  0.92700  Biso   1.000  H
  H127     1.0000 0.72520  0.92730  0.88540  Biso   1.000  H
  C109     1.0000 0.93460  0.91990  0.28060  Biso   1.000  C
  H128     1.0000 0.88720  0.90730  0.24600  Biso   1.000  H
  C110     1.0000 0.99300  0.97460  0.29650  Biso   1.000  C
  H129     1.0000 0.98440  0.99930  0.27390  Biso   1.000  H
  C111     1.0000 0.06380  0.99220  0.34600  Biso   1.000  C
  H130     1.0000 0.10570  0.02940  0.35790  Biso   1.000  H
  C112     1.0000 0.07430  0.95550  0.37870  Biso   1.000  C
  C113     1.0000 0.01040  0.90270  0.35880  Biso   1.000  C
  H131     1.0000 0.01560  0.87710  0.38070  Biso   1.000  H
  C114     1.0000 0.15360  0.97330  0.43070  Biso   1.000  C
  C115     1.0000 0.44110  0.06500  0.34350  Biso   1.000  C
  C116     1.0000 0.34000  0.05880  0.31610  Biso   1.000  C
  H132     1.0000 0.28210  0.04410  0.32910  Biso   1.000  H
  C117     1.0000 0.32300  0.07560  0.26540  Biso   1.000  C
  H133     1.0000 0.25290  0.06900  0.24350  Biso   1.000  H
  C118     1.0000 0.40200  0.09910  0.25080  Biso   1.000  C
  H134     1.0000 0.39040  0.11560  0.22130  Biso   1.000  H
  C119     1.0000 0.49500  0.10090  0.27480  Biso   1.000  C
  H135     1.0000 0.55150  0.11350  0.26010  Biso   1.000  H
  C120     1.0000 0.51600  0.08510  0.32080  Biso   1.000  C
  H136     1.0000 0.58770  0.08850  0.33820  Biso   1.000  H
  C121     1.0000 0.28280  0.04900  0.59670  Biso   1.000  C
  H137     1.0000 0.31730  0.08860  0.59930  Biso   1.000  H
  C122     1.0000 0.34300  0.03540  0.64660  Biso   1.000  C
  H138     1.0000 0.41830  0.04190  0.64740  Biso   1.000  H
  H139     1.0000 0.33820  0.05890  0.67770  Biso   1.000  H
  H140     1.0000 0.31280  0.99690  0.64660  Biso   1.000  H
  C123     1.0000 0.17040  0.04360  0.58850  Biso   1.000  C
  H141     1.0000 0.16000  0.06410  0.61990  Biso   1.000  H
  H142     1.0000 0.14440  0.05840  0.55800  Biso   1.000  H
  H143     1.0000 0.13090  0.00490  0.58210  Biso   1.000  H
  C124     1.0000 0.28270  0.82470  0.46860  Biso   1.000  C
  H144     1.0000 0.31210  0.81230  0.43940  Biso   1.000  H
  C125     1.0000 0.34240  0.81110  0.51300  Biso   1.000  C
  H145     1.0000 0.41720  0.83200  0.52130  Biso   1.000  H
  H146     1.0000 0.31570  0.82000  0.54330  Biso   1.000  H
  H147     1.0000 0.33550  0.77170  0.50520  Biso   1.000  H
  C126     1.0000 0.16660  0.79620  0.44800  Biso   1.000  C
  H148     1.0000 0.15460  0.75660  0.44490  Biso   1.000  H
  H149     1.0000 0.13000  0.80980  0.47230  Biso   1.000  H
  H150     1.0000 0.13900  0.80330  0.41320  Biso   1.000  H
  C127     1.0000 0.92140  0.62100  0.21770  Biso   1.000  C
  H151     1.0000 0.94580  0.64600  0.19750  Biso   1.000  H
  C128     1.0000 0.94030  0.57040  0.21110  Biso   1.000  C
  C129     1.0000 0.90490  0.53420  0.23980  Biso   1.000  C
  H152     1.0000 0.91660  0.49910  0.23550  Biso   1.000  H
  C130     1.0000 0.85220  0.54940  0.27510  Biso   1.000  C
  H153     1.0000 0.82660  0.52500  0.29550  Biso   1.000  H
  C131     1.0000 0.83740  0.60090  0.28000  Biso   1.000  C
  H154     1.0000 0.80250  0.61170  0.30500  Biso   1.000  H
  C132     1.0000 0.99660  0.55550  0.17100  Biso   1.000  C
  C133     1.0000 0.81190  0.63350  0.99850  Biso   1.000  C
  C134     1.0000 0.81410  0.66690  0.04220  Biso   1.000  C
  H155     1.0000 0.85360  0.66360  0.07540  Biso   1.000  H
  C135     1.0000 0.76070  0.70620  0.04080  Biso   1.000  C
  H156     1.0000 0.76820  0.73130  0.07240  Biso   1.000  H
  C136     1.0000 0.69960  0.70890  0.99590  Biso   1.000  C
  H157     1.0000 0.65670  0.73320  0.99600  Biso   1.000  H
  C137     1.0000 0.69610  0.67760  0.94880  Biso   1.000  C
  H158     1.0000 0.65560  0.68130  0.91610  Biso   1.000  H
  C138     1.0000 0.75520  0.63980  0.95140  Biso   1.000  C
  H159     1.0000 0.75590  0.61800  0.91950  Biso   1.000  H
  C139     1.0000 0.85730  0.36690  0.08290  Biso   1.000  C
  C140     1.0000 0.81900  0.36910  0.12810  Biso   1.000  C
  H160     1.0000 0.78210  0.33200  0.12970  Biso   1.000  H
  H161     1.0000 0.87880  0.38550  0.16000  Biso   1.000  H
  H162     1.0000 0.76970  0.39150  0.12590  Biso   1.000  H
  C141     1.0000 0.85900  0.32560  0.04720  Biso   1.000  C
  H163     1.0000 0.87840  0.33950  0.01760  Biso   1.000  H
  H164     1.0000 0.91210  0.30830  0.06320  Biso   1.000  H
  H165     1.0000 0.78930  0.29860  0.03440  Biso   1.000  H
  C142     1.0000 0.28600  0.55290  0.15080  Biso   1.000  C
  H166     1.0000 0.31150  0.58940  0.14240  Biso   1.000  H
  C143     1.0000 0.34600  0.52120  0.12790  Biso   1.000  C
  H167     1.0000 0.32550  0.51710  0.08950  Biso   1.000  H
  H168     1.0000 0.42200  0.54020  0.14240  Biso   1.000  H
  H169     1.0000 0.33100  0.48490  0.13620  Biso   1.000  H
  C144     1.0000 0.30150  0.56740  0.20720  Biso   1.000  C
  H170     1.0000 0.26010  0.59250  0.21470  Biso   1.000  H
  H171     1.0000 0.27780  0.53410  0.21990  Biso   1.000  H
  H172     1.0000 0.37690  0.58530  0.22510  Biso   1.000  H
  O37      1.0000 0.52670  0.67070  0.49430  Biso   1.000  O
  O38      1.0000 0.62580  0.63710  0.44970  Biso   1.000  O
  O39      1.0000 0.41300  0.50370  0.39160  Biso   1.000  O
  O40      1.0000 0.61120  0.52240  0.42270  Biso   1.000  O
  O41      1.0000 0.36700  0.59170  0.51340  Biso   1.000  O
  O42      1.0000 0.49050  0.42560  0.40290  Biso   1.000  O
  O43      1.0000 0.66970  0.62930  0.55610  Biso   1.000  O
  O44      1.0000 0.69150  0.52540  0.53080  Biso   1.000  O
  O45      1.0000 0.51190  0.56350  0.49000  Biso   1.000  O
  O46      1.0000 0.63470  0.87970  0.06510  Biso   1.000  O
  O47      1.0000 0.49530  0.83960  0.99390  Biso   1.000  O
  O48      1.0000 0.34350  0.93480  0.03650  Biso   1.000  O
  O49      1.0000 0.35250  0.89560  0.94620  Biso   1.000  O
  O50      1.0000 0.64680  0.98650  0.11340  Biso   1.000  O
  O51      1.0000 0.66130  0.92050  0.97840  Biso   1.000  O
  O52      1.0000 0.51490  0.95920  0.91440  Biso   1.000  O
  O53      1.0000 0.53830  0.94910  0.02290  Biso   1.000  O
  O54      1.0000 0.26010  0.96870  0.95920  Biso   1.000  O
  O55      1.0000 0.50660  0.91250  0.44960  Biso   1.000  O
  O56      1.0000 0.21440  0.02100  0.44100  Biso   1.000  O
  O57      1.0000 0.15680  0.93890  0.45950  Biso   1.000  O
  O58      1.0000 0.58940  0.05710  0.42250  Biso   1.000  O
  O59      1.0000 0.41860  0.98080  0.38960  Biso   1.000  O
  O60      1.0000 0.42350  0.07210  0.44090  Biso   1.000  O
  O61      1.0000 0.30720  0.88300  0.47400  Biso   1.000  O
  O62      1.0000 0.29850  0.01960  0.54940  Biso   1.000  O
  O63      1.0000 0.37020  0.98070  0.48110  Biso   1.000  O
  O64      1.0000 0.02740  0.59110  0.14670  Biso   1.000  O
  O65      1.0000 0.00870  0.50870  0.16650  Biso   1.000  O
  O66      1.0000 0.89720  0.57230  0.94470  Biso   1.000  O
  O67      1.0000 0.81980  0.53310  0.01170  Biso   1.000  O
  O68      1.0000 0.99090  0.61010  0.04160  Biso   1.000  O
  O69      1.0000 0.17380  0.53540  0.12190  Biso   1.000  O
  O70      1.0000 0.90990  0.42110  0.07880  Biso   1.000  O
  O71      1.0000 0.83400  0.42670  0.97040  Biso   1.000  O
  O72      1.0000 0.99280  0.50930  0.06250  Biso   1.000  O
