data_image0
_cell_length_a       14.208
_cell_length_b       14.095
_cell_length_c       15.117
_cell_angle_alpha    90
_cell_angle_beta     105.31
_cell_angle_gamma    90

_symmetry_space_group_name_H-M    "P 1"
_symmetry_int_tables_number       1

loop_
  _symmetry_equiv_pos_as_xyz
  'x, y, z'

loop_
  _atom_site_label
  _atom_site_occupancy
  _atom_site_fract_x
  _atom_site_fract_y
  _atom_site_fract_z
  _atom_site_thermal_displace_type
  _atom_site_B_iso_or_equiv
  _atom_site_type_symbol
  Mn1      1.0000 0.66975  0.85496  0.15956  Biso   1.000  Mn
  Mn2      1.0000 0.75203  0.02415  0.01657  Biso   1.000  Mn
  O1       1.0000 0.64110  0.92720  0.02710  Biso   1.000  O
  H1       1.0000 0.64400  0.89400  0.98100  Biso   1.000  H
  O2       1.0000 0.84090  0.00220  0.92290  Biso   1.000  O
  O3       1.0000 0.72560  0.89760  0.86030  Biso   1.000  O
  O4       1.0000 0.16270  0.63530  0.41200  Biso   1.000  O
  O5       1.0000 0.01280  0.63390  0.43560  Biso   1.000  O
  O6       1.0000 0.44920  0.57840  0.37540  Biso   1.000  O
  O7       1.0000 0.33240  0.49170  0.27850  Biso   1.000  O
  C1       1.0000 0.44020  0.76980  0.16320  Biso   1.000  C
  C2       1.0000 0.34650  0.79070  0.10890  Biso   1.000  C
  C3       1.0000 0.26560  0.73460  0.11060  Biso   1.000  C
  H2       1.0000 0.20220  0.74820  0.07280  Biso   1.000  H
  C4       1.0000 0.28240  0.65920  0.16950  Biso   1.000  C
  H3       1.0000 0.23010  0.61750  0.17030  Biso   1.000  H
  C5       1.0000 0.37640  0.64140  0.22980  Biso   1.000  C
  C6       1.0000 0.45660  0.69560  0.22710  Biso   1.000  C
  H4       1.0000 0.51950  0.68330  0.26640  Biso   1.000  H
  C7       1.0000 0.38670  0.56360  0.30000  Biso   1.000  C
  C8       1.0000 0.92260  0.82850  0.21860  Biso   1.000  C
  C9       1.0000 0.99460  0.86430  0.17870  Biso   1.000  C
  C10      1.0000 0.09240  0.83670  0.20970  Biso   1.000  C
  H5       1.0000 0.14080  0.86120  0.18300  Biso   1.000  H
  C11      1.0000 0.11530  0.77250  0.28060  Biso   1.000  C
  H6       1.0000 0.18080  0.75140  0.30250  Biso   1.000  H
  C12      1.0000 0.04370  0.73670  0.32210  Biso   1.000  C
  C13      1.0000 0.94670  0.76390  0.29220  Biso   1.000  C
  H7       1.0000 0.89880  0.74010  0.31990  Biso   1.000  H
  C14      1.0000 0.07530  0.66300  0.39600  Biso   1.000  C
  C15      1.0000 0.80200  0.93940  0.86270  Biso   1.000  C
  H8       1.0000 0.83450  0.92430  0.81710  Biso   1.000  H
  N1       1.0000 0.35370  0.86950  0.05810  Biso   1.000  N
  N2       1.0000 0.44810  0.89180  0.07970  Biso   1.000  N
  N3       1.0000 0.50340  0.83450  0.14150  Biso   1.000  N
  N4       1.0000 0.83510  0.86740  0.17160  Biso   1.000  N
  N5       1.0000 0.85480  0.92420  0.10870  Biso   1.000  N
  N6       1.0000 0.94940  0.92390  0.11020  Biso   1.000  N
  Mn3      1.0000 0.33025  0.35496  0.34044  Biso   1.000  Mn
  Mn4      1.0000 0.24797  0.52415  0.48343  Biso   1.000  Mn
  O8       1.0000 0.35890  0.42720  0.47290  Biso   1.000  O
  H9       1.0000 0.35600  0.39400  0.51900  Biso   1.000  H
  O9       1.0000 0.15910  0.50220  0.57710  Biso   1.000  O
  O10      1.0000 0.27440  0.39760  0.63970  Biso   1.000  O
  O11      1.0000 0.83730  0.13530  0.08800  Biso   1.000  O
  O12      1.0000 0.98720  0.13390  0.06440  Biso   1.000  O
  O13      1.0000 0.55080  0.07840  0.12460  Biso   1.000  O
  O14      1.0000 0.66760  0.99170  0.22150  Biso   1.000  O
  C16      1.0000 0.55980  0.26980  0.33680  Biso   1.000  C
  C17      1.0000 0.65350  0.29070  0.39110  Biso   1.000  C
  C18      1.0000 0.73440  0.23460  0.38940  Biso   1.000  C
  H10      1.0000 0.79780  0.24820  0.42720  Biso   1.000  H
  C19      1.0000 0.71760  0.15920  0.33050  Biso   1.000  C
  H11      1.0000 0.76990  0.11750  0.32970  Biso   1.000  H
  C20      1.0000 0.62360  0.14140  0.27020  Biso   1.000  C
  C21      1.0000 0.54340  0.19560  0.27290  Biso   1.000  C
  H12      1.0000 0.48050  0.18330  0.23360  Biso   1.000  H
  C22      1.0000 0.61330  0.06360  0.20000  Biso   1.000  C
  C23      1.0000 0.07740  0.32850  0.28140  Biso   1.000  C
  C24      1.0000 0.00540  0.36430  0.32130  Biso   1.000  C
  C25      1.0000 0.90760  0.33670  0.29030  Biso   1.000  C
  H13      1.0000 0.85920  0.36120  0.31700  Biso   1.000  H
  C26      1.0000 0.88470  0.27250  0.21940  Biso   1.000  C
  H14      1.0000 0.81920  0.25140  0.19750  Biso   1.000  H
  C27      1.0000 0.95630  0.23670  0.17790  Biso   1.000  C
  C28      1.0000 0.05330  0.26390  0.20780  Biso   1.000  C
  H15      1.0000 0.10120  0.24010  0.18010  Biso   1.000  H
  C29      1.0000 0.92470  0.16300  0.10400  Biso   1.000  C
  C30      1.0000 0.19800  0.43940  0.63730  Biso   1.000  C
  H16      1.0000 0.16550  0.42430  0.68290  Biso   1.000  H
  N7       1.0000 0.64630  0.36950  0.44190  Biso   1.000  N
  N8       1.0000 0.55190  0.39180  0.42030  Biso   1.000  N
  N9       1.0000 0.49660  0.33450  0.35850  Biso   1.000  N
  N10      1.0000 0.16490  0.36740  0.32840  Biso   1.000  N
  N11      1.0000 0.14520  0.42420  0.39130  Biso   1.000  N
  N12      1.0000 0.05060  0.42390  0.38980  Biso   1.000  N
  Mn5      1.0000 0.33025  0.14504  0.84044  Biso   1.000  Mn
  Mn6      1.0000 0.24797  0.97585  0.98343  Biso   1.000  Mn
  O15      1.0000 0.35890  0.07280  0.97290  Biso   1.000  O
  H17      1.0000 0.35600  0.10600  0.01900  Biso   1.000  H
  O16      1.0000 0.15910  0.99780  0.07710  Biso   1.000  O
  O17      1.0000 0.27440  0.10240  0.13970  Biso   1.000  O
  O18      1.0000 0.83730  0.36470  0.58800  Biso   1.000  O
  O19      1.0000 0.98720  0.36610  0.56440  Biso   1.000  O
  O20      1.0000 0.55080  0.42160  0.62460  Biso   1.000  O
  O21      1.0000 0.66760  0.50830  0.72150  Biso   1.000  O
  C31      1.0000 0.55980  0.23020  0.83680  Biso   1.000  C
  C32      1.0000 0.65350  0.20930  0.89110  Biso   1.000  C
  C33      1.0000 0.73440  0.26540  0.88940  Biso   1.000  C
  H18      1.0000 0.79780  0.25180  0.92720  Biso   1.000  H
  C34      1.0000 0.71760  0.34080  0.83050  Biso   1.000  C
  H19      1.0000 0.76990  0.38250  0.82970  Biso   1.000  H
  C35      1.0000 0.62360  0.35860  0.77020  Biso   1.000  C
  C36      1.0000 0.54340  0.30440  0.77290  Biso   1.000  C
  H20      1.0000 0.48050  0.31670  0.73360  Biso   1.000  H
  C37      1.0000 0.61330  0.43640  0.70000  Biso   1.000  C
  C38      1.0000 0.07740  0.17150  0.78140  Biso   1.000  C
  C39      1.0000 0.00540  0.13570  0.82130  Biso   1.000  C
  C40      1.0000 0.90760  0.16330  0.79030  Biso   1.000  C
  H21      1.0000 0.85920  0.13880  0.81700  Biso   1.000  H
  C41      1.0000 0.88470  0.22750  0.71940  Biso   1.000  C
  H22      1.0000 0.81920  0.24860  0.69750  Biso   1.000  H
  C42      1.0000 0.95630  0.26330  0.67790  Biso   1.000  C
  C43      1.0000 0.05330  0.23610  0.70780  Biso   1.000  C
  H23      1.0000 0.10120  0.25990  0.68010  Biso   1.000  H
  C44      1.0000 0.92470  0.33700  0.60400  Biso   1.000  C
  C45      1.0000 0.19800  0.06060  0.13730  Biso   1.000  C
  H24      1.0000 0.16550  0.07570  0.18290  Biso   1.000  H
  N13      1.0000 0.64630  0.13050  0.94190  Biso   1.000  N
  N14      1.0000 0.55190  0.10820  0.92030  Biso   1.000  N
  N15      1.0000 0.49660  0.16550  0.85850  Biso   1.000  N
  N16      1.0000 0.16490  0.13260  0.82840  Biso   1.000  N
  N17      1.0000 0.14520  0.07580  0.89130  Biso   1.000  N
  N18      1.0000 0.05060  0.07610  0.88980  Biso   1.000  N
  Mn7      1.0000 0.66975  0.64504  0.65956  Biso   1.000  Mn
  Mn8      1.0000 0.75203  0.47585  0.51657  Biso   1.000  Mn
  O22      1.0000 0.64110  0.57280  0.52710  Biso   1.000  O
  H25      1.0000 0.64400  0.60600  0.48100  Biso   1.000  H
  O23      1.0000 0.84090  0.49780  0.42290  Biso   1.000  O
  O24      1.0000 0.72560  0.60240  0.36030  Biso   1.000  O
  O25      1.0000 0.16270  0.86470  0.91200  Biso   1.000  O
  O26      1.0000 0.01280  0.86610  0.93560  Biso   1.000  O
  O27      1.0000 0.44920  0.92160  0.87540  Biso   1.000  O
  O28      1.0000 0.33240  0.00830  0.77850  Biso   1.000  O
  C46      1.0000 0.44020  0.73020  0.66320  Biso   1.000  C
  C47      1.0000 0.34650  0.70930  0.60890  Biso   1.000  C
  C48      1.0000 0.26560  0.76540  0.61060  Biso   1.000  C
  H26      1.0000 0.20220  0.75180  0.57280  Biso   1.000  H
  C49      1.0000 0.28240  0.84080  0.66950  Biso   1.000  C
  H27      1.0000 0.23010  0.88250  0.67030  Biso   1.000  H
  C50      1.0000 0.37640  0.85860  0.72980  Biso   1.000  C
  C51      1.0000 0.45660  0.80440  0.72710  Biso   1.000  C
  H28      1.0000 0.51950  0.81670  0.76640  Biso   1.000  H
  C52      1.0000 0.38670  0.93640  0.80000  Biso   1.000  C
  C53      1.0000 0.92260  0.67150  0.71860  Biso   1.000  C
  C54      1.0000 0.99460  0.63570  0.67870  Biso   1.000  C
  C55      1.0000 0.09240  0.66330  0.70970  Biso   1.000  C
  H29      1.0000 0.14080  0.63880  0.68300  Biso   1.000  H
  C56      1.0000 0.11530  0.72750  0.78060  Biso   1.000  C
  H30      1.0000 0.18080  0.74860  0.80250  Biso   1.000  H
  C57      1.0000 0.04370  0.76330  0.82210  Biso   1.000  C
  C58      1.0000 0.94670  0.73610  0.79220  Biso   1.000  C
  H31      1.0000 0.89880  0.75990  0.81990  Biso   1.000  H
  C59      1.0000 0.07530  0.83700  0.89600  Biso   1.000  C
  C60      1.0000 0.80200  0.56060  0.36270  Biso   1.000  C
  H32      1.0000 0.83450  0.57570  0.31710  Biso   1.000  H
  N19      1.0000 0.35370  0.63050  0.55810  Biso   1.000  N
  N20      1.0000 0.44810  0.60820  0.57970  Biso   1.000  N
  N21      1.0000 0.50340  0.66550  0.64150  Biso   1.000  N
  N22      1.0000 0.83510  0.63260  0.67160  Biso   1.000  N
  N23      1.0000 0.85480  0.57580  0.60870  Biso   1.000  N
  N24      1.0000 0.94940  0.57610  0.61020  Biso   1.000  N
  Mn9      1.0000 0.50000  0.00000  0.00000  Biso   1.000  Mn
  Mn10     1.0000 0.50000  0.50000  0.50000  Biso   1.000  Mn
  Mn11     1.0000 0.00000  0.00000  0.00000  Biso   1.000  Mn
  Mn12     1.0000 0.00000  0.50000  0.50000  Biso   1.000  Mn
