data_image0
_cell_length_a       21.8947
_cell_length_b       8.3062
_cell_length_c       23.2034
_cell_angle_alpha    90
_cell_angle_beta     100.053
_cell_angle_gamma    90

_symmetry_space_group_name_H-M    "P 1"
_symmetry_int_tables_number       1

loop_
  _symmetry_equiv_pos_as_xyz
  'x, y, z'

loop_
  _atom_site_label
  _atom_site_occupancy
  _atom_site_fract_x
  _atom_site_fract_y
  _atom_site_fract_z
  _atom_site_thermal_displace_type
  _atom_site_B_iso_or_equiv
  _atom_site_type_symbol
  C1       1.0000 0.07880  0.83000  0.14920  Biso   1.000  C
  H1       1.0000 0.07340  0.73180  0.16690  Biso   1.000  H
  C2       1.0000 0.12250  0.93880  0.17870  Biso   1.000  C
  C3       1.0000 0.12790  0.08740  0.15150  Biso   1.000  C
  C4       1.0000 0.17090  0.21600  0.17680  Biso   1.000  C
  C5       1.0000 0.09170  0.11970  0.09670  Biso   1.000  C
  H2       1.0000 0.09570  0.21880  0.07910  Biso   1.000  H
  C6       1.0000 0.05060  0.00980  0.06840  Biso   1.000  C
  C7       1.0000 0.04400  0.86190  0.09580  Biso   1.000  C
  H3       1.0000 0.01580  0.78590  0.07760  Biso   1.000  H
  C8       1.0000 0.24010  0.79740  0.14180  Biso   1.000  C
  C9       1.0000 0.21920  0.85080  0.07960  Biso   1.000  C
  C10      1.0000 0.17910  0.75370  0.03980  Biso   1.000  C
  C11      1.0000 0.15780  0.81110  0.98360  Biso   1.000  C
  H4       1.0000 0.13070  0.74900  0.95730  Biso   1.000  H
  C12      1.0000 0.17640  0.95810  0.96680  Biso   1.000  C
  H5       1.0000 0.16170  0.99460  0.92910  Biso   1.000  H
  C13      1.0000 0.21690  0.05440  0.00500  Biso   1.000  C
  C14      1.0000 0.23710  0.99820  0.06136  Biso   1.000  C
  H6       1.0000 0.26360  0.06200  0.08760  Biso   1.000  H
  H7       1.0000 0.16960  0.59050  0.08940  Biso   1.000  H
  N1       1.0000 0.23500  0.20350  0.98187  Biso   1.000  N
  N2       1.0000 0.01790  0.05370  0.01230  Biso   1.000  N
  O1       1.0000 0.26556  0.90110  0.17698  Biso   1.000  O
  O2       1.0000 0.22910  0.65460  0.15482  Biso   1.000  O
  O3       1.0000 0.16951  0.35280  0.15388  Biso   1.000  O
  O4       1.0000 0.21081  0.19150  0.22431  Biso   1.000  O
  O5       1.0000 0.15584  0.89610  0.22950  Biso   1.000  O
  O6       1.0000 0.15920  0.60560  0.05279  Biso   1.000  O
  Tm1      1.0000 0.25245  0.96525  0.27162  Biso   1.000  Tm
  C15      1.0000 0.57880  0.33000  0.14920  Biso   1.000  C
  H8       1.0000 0.57340  0.23180  0.16690  Biso   1.000  H
  C16      1.0000 0.62250  0.43880  0.17870  Biso   1.000  C
  C17      1.0000 0.62790  0.58740  0.15150  Biso   1.000  C
  C18      1.0000 0.67090  0.71600  0.17680  Biso   1.000  C
  C19      1.0000 0.59170  0.61970  0.09670  Biso   1.000  C
  H9       1.0000 0.59570  0.71880  0.07910  Biso   1.000  H
  C20      1.0000 0.55060  0.50980  0.06840  Biso   1.000  C
  C21      1.0000 0.54400  0.36190  0.09580  Biso   1.000  C
  H10      1.0000 0.51580  0.28590  0.07760  Biso   1.000  H
  C22      1.0000 0.74010  0.29740  0.14180  Biso   1.000  C
  C23      1.0000 0.71920  0.35080  0.07960  Biso   1.000  C
  C24      1.0000 0.67910  0.25370  0.03980  Biso   1.000  C
  C25      1.0000 0.65780  0.31110  0.98360  Biso   1.000  C
  H11      1.0000 0.63070  0.24900  0.95730  Biso   1.000  H
  C26      1.0000 0.67640  0.45810  0.96680  Biso   1.000  C
  H12      1.0000 0.66170  0.49460  0.92910  Biso   1.000  H
  C27      1.0000 0.71690  0.55440  0.00500  Biso   1.000  C
  C28      1.0000 0.73710  0.49820  0.06136  Biso   1.000  C
  H13      1.0000 0.76360  0.56200  0.08760  Biso   1.000  H
  H14      1.0000 0.66960  0.09050  0.08940  Biso   1.000  H
  N3       1.0000 0.73500  0.70350  0.98187  Biso   1.000  N
  N4       1.0000 0.51790  0.55370  0.01230  Biso   1.000  N
  O7       1.0000 0.76556  0.40110  0.17698  Biso   1.000  O
  O8       1.0000 0.72910  0.15460  0.15482  Biso   1.000  O
  O9       1.0000 0.66951  0.85280  0.15388  Biso   1.000  O
  O10      1.0000 0.71081  0.69150  0.22431  Biso   1.000  O
  O11      1.0000 0.65584  0.39610  0.22950  Biso   1.000  O
  O12      1.0000 0.65920  0.10560  0.05279  Biso   1.000  O
  Tm2      1.0000 0.75245  0.46525  0.27162  Biso   1.000  Tm
  C29      1.0000 0.92120  0.83000  0.35080  Biso   1.000  C
  H15      1.0000 0.92660  0.73180  0.33310  Biso   1.000  H
  C30      1.0000 0.87750  0.93880  0.32130  Biso   1.000  C
  C31      1.0000 0.87210  0.08740  0.34850  Biso   1.000  C
  C32      1.0000 0.82910  0.21600  0.32320  Biso   1.000  C
  C33      1.0000 0.90830  0.11970  0.40330  Biso   1.000  C
  H16      1.0000 0.90430  0.21880  0.42090  Biso   1.000  H
  C34      1.0000 0.94940  0.00980  0.43160  Biso   1.000  C
  C35      1.0000 0.95600  0.86190  0.40420  Biso   1.000  C
  H17      1.0000 0.98420  0.78590  0.42240  Biso   1.000  H
  C36      1.0000 0.75990  0.79740  0.35820  Biso   1.000  C
  C37      1.0000 0.78080  0.85080  0.42040  Biso   1.000  C
  C38      1.0000 0.82090  0.75370  0.46020  Biso   1.000  C
  C39      1.0000 0.84220  0.81110  0.51640  Biso   1.000  C
  H18      1.0000 0.86930  0.74900  0.54270  Biso   1.000  H
  C40      1.0000 0.82360  0.95810  0.53320  Biso   1.000  C
  H19      1.0000 0.83830  0.99460  0.57090  Biso   1.000  H
  C41      1.0000 0.78310  0.05440  0.49500  Biso   1.000  C
  C42      1.0000 0.76290  0.99820  0.43864  Biso   1.000  C
  H20      1.0000 0.73640  0.06200  0.41240  Biso   1.000  H
  H21      1.0000 0.83040  0.59050  0.41060  Biso   1.000  H
  N5       1.0000 0.76500  0.20350  0.51813  Biso   1.000  N
  N6       1.0000 0.98210  0.05370  0.48770  Biso   1.000  N
  O13      1.0000 0.73444  0.90110  0.32302  Biso   1.000  O
  O14      1.0000 0.77090  0.65460  0.34518  Biso   1.000  O
  O15      1.0000 0.83049  0.35280  0.34612  Biso   1.000  O
  O16      1.0000 0.78919  0.19150  0.27569  Biso   1.000  O
  O17      1.0000 0.84416  0.89610  0.27050  Biso   1.000  O
  O18      1.0000 0.84080  0.60560  0.44721  Biso   1.000  O
  Tm3      1.0000 0.74755  0.96525  0.22838  Biso   1.000  Tm
  C43      1.0000 0.42120  0.33000  0.35080  Biso   1.000  C
  H22      1.0000 0.42660  0.23180  0.33310  Biso   1.000  H
  C44      1.0000 0.37750  0.43880  0.32130  Biso   1.000  C
  C45      1.0000 0.37210  0.58740  0.34850  Biso   1.000  C
  C46      1.0000 0.32910  0.71600  0.32320  Biso   1.000  C
  C47      1.0000 0.40830  0.61970  0.40330  Biso   1.000  C
  H23      1.0000 0.40430  0.71880  0.42090  Biso   1.000  H
  C48      1.0000 0.44940  0.50980  0.43160  Biso   1.000  C
  C49      1.0000 0.45600  0.36190  0.40420  Biso   1.000  C
  H24      1.0000 0.48420  0.28590  0.42240  Biso   1.000  H
  C50      1.0000 0.25990  0.29740  0.35820  Biso   1.000  C
  C51      1.0000 0.28080  0.35080  0.42040  Biso   1.000  C
  C52      1.0000 0.32090  0.25370  0.46020  Biso   1.000  C
  C53      1.0000 0.34220  0.31110  0.51640  Biso   1.000  C
  H25      1.0000 0.36930  0.24900  0.54270  Biso   1.000  H
  C54      1.0000 0.32360  0.45810  0.53320  Biso   1.000  C
  H26      1.0000 0.33830  0.49460  0.57090  Biso   1.000  H
  C55      1.0000 0.28310  0.55440  0.49500  Biso   1.000  C
  C56      1.0000 0.26290  0.49820  0.43864  Biso   1.000  C
  H27      1.0000 0.23640  0.56200  0.41240  Biso   1.000  H
  H28      1.0000 0.33040  0.09050  0.41060  Biso   1.000  H
  N7       1.0000 0.26500  0.70350  0.51813  Biso   1.000  N
  N8       1.0000 0.48210  0.55370  0.48770  Biso   1.000  N
  O19      1.0000 0.23444  0.40110  0.32302  Biso   1.000  O
  O20      1.0000 0.27090  0.15460  0.34518  Biso   1.000  O
  O21      1.0000 0.33049  0.85280  0.34612  Biso   1.000  O
  O22      1.0000 0.28919  0.69150  0.27569  Biso   1.000  O
  O23      1.0000 0.34416  0.39610  0.27050  Biso   1.000  O
  O24      1.0000 0.34080  0.10560  0.44721  Biso   1.000  O
  Tm4      1.0000 0.24755  0.46525  0.22838  Biso   1.000  Tm
  C57      1.0000 0.92120  0.17000  0.85080  Biso   1.000  C
  H29      1.0000 0.92660  0.26820  0.83310  Biso   1.000  H
  C58      1.0000 0.87750  0.06120  0.82130  Biso   1.000  C
  C59      1.0000 0.87210  0.91260  0.84850  Biso   1.000  C
  C60      1.0000 0.82910  0.78400  0.82320  Biso   1.000  C
  C61      1.0000 0.90830  0.88030  0.90330  Biso   1.000  C
  H30      1.0000 0.90430  0.78120  0.92090  Biso   1.000  H
  C62      1.0000 0.94940  0.99020  0.93160  Biso   1.000  C
  C63      1.0000 0.95600  0.13810  0.90420  Biso   1.000  C
  H31      1.0000 0.98420  0.21410  0.92240  Biso   1.000  H
  C64      1.0000 0.75990  0.20260  0.85820  Biso   1.000  C
  C65      1.0000 0.78080  0.14920  0.92040  Biso   1.000  C
  C66      1.0000 0.82090  0.24630  0.96020  Biso   1.000  C
  C67      1.0000 0.84220  0.18890  0.01640  Biso   1.000  C
  H32      1.0000 0.86930  0.25100  0.04270  Biso   1.000  H
  C68      1.0000 0.82360  0.04190  0.03320  Biso   1.000  C
  H33      1.0000 0.83830  0.00540  0.07090  Biso   1.000  H
  C69      1.0000 0.78310  0.94560  0.99500  Biso   1.000  C
  C70      1.0000 0.76290  0.00180  0.93864  Biso   1.000  C
  H34      1.0000 0.73640  0.93800  0.91240  Biso   1.000  H
  H35      1.0000 0.83040  0.40950  0.91060  Biso   1.000  H
  N9       1.0000 0.76500  0.79650  0.01813  Biso   1.000  N
  N10      1.0000 0.98210  0.94630  0.98770  Biso   1.000  N
  O25      1.0000 0.73444  0.09890  0.82302  Biso   1.000  O
  O26      1.0000 0.77090  0.34540  0.84518  Biso   1.000  O
  O27      1.0000 0.83049  0.64720  0.84612  Biso   1.000  O
  O28      1.0000 0.78919  0.80850  0.77569  Biso   1.000  O
  O29      1.0000 0.84416  0.10390  0.77050  Biso   1.000  O
  O30      1.0000 0.84080  0.39440  0.94721  Biso   1.000  O
  Tm5      1.0000 0.74755  0.03475  0.72838  Biso   1.000  Tm
  C71      1.0000 0.42120  0.67000  0.85080  Biso   1.000  C
  H36      1.0000 0.42660  0.76820  0.83310  Biso   1.000  H
  C72      1.0000 0.37750  0.56120  0.82130  Biso   1.000  C
  C73      1.0000 0.37210  0.41260  0.84850  Biso   1.000  C
  C74      1.0000 0.32910  0.28400  0.82320  Biso   1.000  C
  C75      1.0000 0.40830  0.38030  0.90330  Biso   1.000  C
  H37      1.0000 0.40430  0.28120  0.92090  Biso   1.000  H
  C76      1.0000 0.44940  0.49020  0.93160  Biso   1.000  C
  C77      1.0000 0.45600  0.63810  0.90420  Biso   1.000  C
  H38      1.0000 0.48420  0.71410  0.92240  Biso   1.000  H
  C78      1.0000 0.25990  0.70260  0.85820  Biso   1.000  C
  C79      1.0000 0.28080  0.64920  0.92040  Biso   1.000  C
  C80      1.0000 0.32090  0.74630  0.96020  Biso   1.000  C
  C81      1.0000 0.34220  0.68890  0.01640  Biso   1.000  C
  H39      1.0000 0.36930  0.75100  0.04270  Biso   1.000  H
  C82      1.0000 0.32360  0.54190  0.03320  Biso   1.000  C
  H40      1.0000 0.33830  0.50540  0.07090  Biso   1.000  H
  C83      1.0000 0.28310  0.44560  0.99500  Biso   1.000  C
  C84      1.0000 0.26290  0.50180  0.93864  Biso   1.000  C
  H41      1.0000 0.23640  0.43800  0.91240  Biso   1.000  H
  H42      1.0000 0.33040  0.90950  0.91060  Biso   1.000  H
  N11      1.0000 0.26500  0.29650  0.01813  Biso   1.000  N
  N12      1.0000 0.48210  0.44630  0.98770  Biso   1.000  N
  O31      1.0000 0.23444  0.59890  0.82302  Biso   1.000  O
  O32      1.0000 0.27090  0.84540  0.84518  Biso   1.000  O
  O33      1.0000 0.33049  0.14720  0.84612  Biso   1.000  O
  O34      1.0000 0.28919  0.30850  0.77569  Biso   1.000  O
  O35      1.0000 0.34416  0.60390  0.77050  Biso   1.000  O
  O36      1.0000 0.34080  0.89440  0.94721  Biso   1.000  O
  Tm6      1.0000 0.24755  0.53475  0.72838  Biso   1.000  Tm
  C85      1.0000 0.07880  0.17000  0.64920  Biso   1.000  C
  H43      1.0000 0.07340  0.26820  0.66690  Biso   1.000  H
  C86      1.0000 0.12250  0.06120  0.67870  Biso   1.000  C
  C87      1.0000 0.12790  0.91260  0.65150  Biso   1.000  C
  C88      1.0000 0.17090  0.78400  0.67680  Biso   1.000  C
  C89      1.0000 0.09170  0.88030  0.59670  Biso   1.000  C
  H44      1.0000 0.09570  0.78120  0.57910  Biso   1.000  H
  C90      1.0000 0.05060  0.99020  0.56840  Biso   1.000  C
  C91      1.0000 0.04400  0.13810  0.59580  Biso   1.000  C
  H45      1.0000 0.01580  0.21410  0.57760  Biso   1.000  H
  C92      1.0000 0.24010  0.20260  0.64180  Biso   1.000  C
  C93      1.0000 0.21920  0.14920  0.57960  Biso   1.000  C
  C94      1.0000 0.17910  0.24630  0.53980  Biso   1.000  C
  C95      1.0000 0.15780  0.18890  0.48360  Biso   1.000  C
  H46      1.0000 0.13070  0.25100  0.45730  Biso   1.000  H
  C96      1.0000 0.17640  0.04190  0.46680  Biso   1.000  C
  H47      1.0000 0.16170  0.00540  0.42910  Biso   1.000  H
  C97      1.0000 0.21690  0.94560  0.50500  Biso   1.000  C
  C98      1.0000 0.23710  0.00180  0.56136  Biso   1.000  C
  H48      1.0000 0.26360  0.93800  0.58760  Biso   1.000  H
  H49      1.0000 0.16960  0.40950  0.58940  Biso   1.000  H
  N13      1.0000 0.23500  0.79650  0.48187  Biso   1.000  N
  N14      1.0000 0.01790  0.94630  0.51230  Biso   1.000  N
  O37      1.0000 0.26556  0.09890  0.67698  Biso   1.000  O
  O38      1.0000 0.22910  0.34540  0.65482  Biso   1.000  O
  O39      1.0000 0.16951  0.64720  0.65388  Biso   1.000  O
  O40      1.0000 0.21081  0.80850  0.72431  Biso   1.000  O
  O41      1.0000 0.15584  0.10390  0.72950  Biso   1.000  O
  O42      1.0000 0.15920  0.39440  0.55279  Biso   1.000  O
  Tm7      1.0000 0.25245  0.03475  0.77162  Biso   1.000  Tm
  C99      1.0000 0.57880  0.67000  0.64920  Biso   1.000  C
  H50      1.0000 0.57340  0.76820  0.66690  Biso   1.000  H
  C100     1.0000 0.62250  0.56120  0.67870  Biso   1.000  C
  C101     1.0000 0.62790  0.41260  0.65150  Biso   1.000  C
  C102     1.0000 0.67090  0.28400  0.67680  Biso   1.000  C
  C103     1.0000 0.59170  0.38030  0.59670  Biso   1.000  C
  H51      1.0000 0.59570  0.28120  0.57910  Biso   1.000  H
  C104     1.0000 0.55060  0.49020  0.56840  Biso   1.000  C
  C105     1.0000 0.54400  0.63810  0.59580  Biso   1.000  C
  H52      1.0000 0.51580  0.71410  0.57760  Biso   1.000  H
  C106     1.0000 0.74010  0.70260  0.64180  Biso   1.000  C
  C107     1.0000 0.71920  0.64920  0.57960  Biso   1.000  C
  C108     1.0000 0.67910  0.74630  0.53980  Biso   1.000  C
  C109     1.0000 0.65780  0.68890  0.48360  Biso   1.000  C
  H53      1.0000 0.63070  0.75100  0.45730  Biso   1.000  H
  C110     1.0000 0.67640  0.54190  0.46680  Biso   1.000  C
  H54      1.0000 0.66170  0.50540  0.42910  Biso   1.000  H
  C111     1.0000 0.71690  0.44560  0.50500  Biso   1.000  C
  C112     1.0000 0.73710  0.50180  0.56136  Biso   1.000  C
  H55      1.0000 0.76360  0.43800  0.58760  Biso   1.000  H
  H56      1.0000 0.66960  0.90950  0.58940  Biso   1.000  H
  N15      1.0000 0.73500  0.29650  0.48187  Biso   1.000  N
  N16      1.0000 0.51790  0.44630  0.51230  Biso   1.000  N
  O43      1.0000 0.76556  0.59890  0.67698  Biso   1.000  O
  O44      1.0000 0.72910  0.84540  0.65482  Biso   1.000  O
  O45      1.0000 0.66951  0.14720  0.65388  Biso   1.000  O
  O46      1.0000 0.71081  0.30850  0.72431  Biso   1.000  O
  O47      1.0000 0.65584  0.60390  0.72950  Biso   1.000  O
  O48      1.0000 0.65920  0.89440  0.55279  Biso   1.000  O
  Tm8      1.0000 0.75245  0.53475  0.77162  Biso   1.000  Tm
