data_image0
_cell_length_a       13.56
_cell_length_b       25.683
_cell_length_c       26.59
_cell_angle_alpha    99.185
_cell_angle_beta     104.314
_cell_angle_gamma    104.895

_symmetry_space_group_name_H-M    "P 1"
_symmetry_int_tables_number       1

loop_
  _symmetry_equiv_pos_as_xyz
  'x, y, z'

loop_
  _atom_site_label
  _atom_site_occupancy
  _atom_site_fract_x
  _atom_site_fract_y
  _atom_site_fract_z
  _atom_site_thermal_displace_type
  _atom_site_B_iso_or_equiv
  _atom_site_type_symbol
  Ti1      1.0000 0.47669  0.37630  0.44799  Biso   1.000  Ti
  Ti2      1.0000 0.33455  0.42330  0.50717  Biso   1.000  Ti
  Ti3      1.0000 0.63278  0.46473  0.54864  Biso   1.000  Ti
  Ti4      1.0000 0.31037  0.04119  0.94473  Biso   1.000  Ti
  Ti5      1.0000 0.51281  0.02710  0.91846  Biso   1.000  Ti
  Ti6      1.0000 0.50046  0.09810  0.05012  Biso   1.000  Ti
  Ti7      1.0000 0.62849  0.07706  0.56965  Biso   1.000  Ti
  Ti8      1.0000 0.70680  0.05662  0.47041  Biso   1.000  Ti
  Ti9      1.0000 0.63162  0.94058  0.49578  Biso   1.000  Ti
  Ti10     1.0000 0.93299  0.53095  0.88917  Biso   1.000  Ti
  Ti11     1.0000 0.14787  0.53265  0.96628  Biso   1.000  Ti
  Ti12     1.0000 0.89258  0.41444  0.91636  Biso   1.000  Ti
  Cu1      1.0000 0.35319  0.27126  0.71662  Biso   1.000  Cu
  Cu2      1.0000 0.30996  0.26069  0.80747  Biso   1.000  Cu
  Cu3      1.0000 0.17487  0.19505  0.70784  Biso   1.000  Cu
  Cu4      1.0000 0.16511  0.29240  0.74150  Biso   1.000  Cu
  Br1      1.0000 0.34927  0.18118  0.74602  Biso   1.000  Br
  Br2      1.0000 0.14613  0.25434  0.64711  Biso   1.000  Br
  Br3      1.0000 0.38379  0.35092  0.78571  Biso   1.000  Br
  Br4      1.0000 0.11777  0.23166  0.79887  Biso   1.000  Br
  P1       1.0000 0.49618  0.51856  0.61188  Biso   1.000  P
  P2       1.0000 0.71419  0.08187  0.02528  Biso   1.000  P
  P3       1.0000 0.11313  0.41524  0.99919  Biso   1.000  P
  P4       1.0000 0.54329  0.95893  0.59826  Biso   1.000  P
  N1       1.0000 0.42980  0.27233  0.66118  Biso   1.000  N
  N2       1.0000 0.41410  0.26156  0.87680  Biso   1.000  N
  N3       1.0000 0.06870  0.11829  0.68241  Biso   1.000  N
  N4       1.0000 0.12360  0.36187  0.74702  Biso   1.000  N
  C1       1.0000 0.41520  0.30283  0.62563  Biso   1.000  C
  H1       1.0000 0.37580  0.32800  0.63010  Biso   1.000  H
  C2       1.0000 0.45510  0.29955  0.58204  Biso   1.000  C
  C3       1.0000 0.50990  0.26167  0.57482  Biso   1.000  C
  H2       1.0000 0.53750  0.25830  0.54530  Biso   1.000  H
  C4       1.0000 0.52440  0.22871  0.61094  Biso   1.000  C
  H3       1.0000 0.56130  0.20230  0.60660  Biso   1.000  H
  C5       1.0000 0.48360  0.23562  0.65329  Biso   1.000  C
  H4       1.0000 0.49380  0.21340  0.67830  Biso   1.000  H
  C6       1.0000 0.43150  0.33337  0.54264  Biso   1.000  C
  C7       1.0000 0.48700  0.52825  0.67870  Biso   1.000  C
  C8       1.0000 0.50320  0.57999  0.70812  Biso   1.000  C
  H5       1.0000 0.52200  0.61140  0.69370  Biso   1.000  H
  C9       1.0000 0.49210  0.58690  0.75944  Biso   1.000  C
  H6       1.0000 0.50190  0.62290  0.77950  Biso   1.000  H
  C10      1.0000 0.46750  0.54260  0.78061  Biso   1.000  C
  H7       1.0000 0.46280  0.54780  0.81600  Biso   1.000  H
  C11      1.0000 0.44970  0.49187  0.75209  Biso   1.000  C
  H8       1.0000 0.42920  0.46070  0.76660  Biso   1.000  H
  C12      1.0000 0.46090  0.48434  0.70133  Biso   1.000  C
  H9       1.0000 0.45020  0.44800  0.68180  Biso   1.000  H
  C13      1.0000 0.22850  0.33824  0.39896  Biso   1.000  C
  C14      1.0000 0.18670  0.28170  0.40380  Biso   1.000  C
  H10      1.0000 0.12080  0.26210  0.37440  Biso   1.000  H
  H11      1.0000 0.17120  0.28250  0.43800  Biso   1.000  H
  H12      1.0000 0.23990  0.26240  0.40230  Biso   1.000  H
  C15      1.0000 0.21040  0.35750  0.35690  Biso   1.000  C
  H13      1.0000 0.24910  0.39720  0.36610  Biso   1.000  H
  H14      1.0000 0.13340  0.35160  0.34260  Biso   1.000  H
  H15      1.0000 0.23480  0.33820  0.32980  Biso   1.000  H
  C16      1.0000 0.71960  0.39864  0.46826  Biso   1.000  C
  C17      1.0000 0.74140  0.34920  0.48480  Biso   1.000  C
  H16      1.0000 0.80260  0.34320  0.47410  Biso   1.000  H
  H17      1.0000 0.67820  0.31660  0.46750  Biso   1.000  H
  H18      1.0000 0.75780  0.35520  0.52370  Biso   1.000  H
  C18      1.0000 0.78180  0.43780  0.45530  Biso   1.000  C
  H19      1.0000 0.74470  0.46460  0.44590  Biso   1.000  H
  H20      1.0000 0.80140  0.42200  0.42450  Biso   1.000  H
  H21      1.0000 0.84660  0.45650  0.48550  Biso   1.000  H
  C19      1.0000 0.50260  0.30400  0.90290  Biso   1.000  C
  H22      1.0000 0.51330  0.33680  0.89010  Biso   1.000  H
  C20      1.0000 0.57810  0.30293  0.94656  Biso   1.000  C
  H23      1.0000 0.64060  0.33390  0.96320  Biso   1.000  H
  C21      1.0000 0.56250  0.25617  0.96645  Biso   1.000  C
  H24      1.0000 0.61380  0.25450  0.99730  Biso   1.000  H
  C22      1.0000 0.47300  0.21253  0.94146  Biso   1.000  C
  C23      1.0000 0.40020  0.21586  0.89635  Biso   1.000  C
  H25      1.0000 0.33830  0.18490  0.87850  Biso   1.000  H
  C24      1.0000 0.44960  0.16104  0.96205  Biso   1.000  C
  C25      1.0000 0.84000  0.13508  0.03765  Biso   1.000  C
  C26      1.0000 0.86750  0.15860  0.00180  Biso   1.000  C
  H26      1.0000 0.81900  0.14740  0.96660  Biso   1.000  H
  C27      1.0000 0.96580  0.20000  0.01190  Biso   1.000  C
  H27      1.0000 0.98130  0.21410  0.98290  Biso   1.000  H
  C28      1.0000 0.03250  0.21900  0.05620  Biso   1.000  C
  C29      1.0000 0.00760  0.20050  0.09430  Biso   1.000  C
  H28      1.0000 0.05550  0.21580  0.12950  Biso   1.000  H
  C30      1.0000 0.90640  0.15560  0.08620  Biso   1.000  C
  H29      1.0000 0.89040  0.14230  0.11550  Biso   1.000  H
  C31      1.0000 0.28890  0.98730  0.82938  Biso   1.000  C
  C32      1.0000 0.28400  0.93540  0.81390  Biso   1.000  C
  H30      1.0000 0.29320  0.91890  0.84490  Biso   1.000  H
  H31      1.0000 0.34080  0.93360  0.79770  Biso   1.000  H
  H32      1.0000 0.21420  0.91490  0.78770  Biso   1.000  H
  C33      1.0000 0.27840  0.02600  0.79659  Biso   1.000  C
  H33      1.0000 0.23390  0.00590  0.76020  Biso   1.000  H
  H34      1.0000 0.34940  0.04690  0.79590  Biso   1.000  H
  H35      1.0000 0.24470  0.05180  0.81130  Biso   1.000  H
  C34      1.0000 0.26480  0.09020  0.04910  Biso   1.000  C
  C35      1.0000 0.25300  0.14390  0.04970  Biso   1.000  C
  H36      1.0000 0.20160  0.14910  0.06880  Biso   1.000  H
  H37      1.0000 0.22690  0.14730  0.01300  Biso   1.000  H
  H38      1.0000 0.32240  0.17230  0.06790  Biso   1.000  H
  C36      1.0000 0.21730  0.04470  0.06670  Biso   1.000  C
  H39      1.0000 0.24230  0.01360  0.05510  Biso   1.000  H
  H40      1.0000 0.13940  0.03400  0.05160  Biso   1.000  H
  H41      1.0000 0.23690  0.05440  0.10580  Biso   1.000  H
  C37      1.0000 0.07400  0.08311  0.71296  Biso   1.000  C
  H42      1.0000 0.12350  0.09640  0.74790  Biso   1.000  H
  C38      1.0000 0.01260  0.02834  0.69782  Biso   1.000  C
  H43      1.0000 0.01840  0.00440  0.72150  Biso   1.000  H
  C39      1.0000 0.94240  0.00969  0.64695  Biso   1.000  C
  H44      1.0000 0.90050  0.97170  0.63450  Biso   1.000  H
  C40      1.0000 0.93200  0.04523  0.61385  Biso   1.000  C
  C41      1.0000 0.99860  0.09958  0.63309  Biso   1.000  C
  H45      1.0000 0.99440  0.12460  0.61050  Biso   1.000  H
  C42      1.0000 0.84920  0.02656  0.56080  Biso   1.000  C
  C43      1.0000 0.58250  0.93849  0.65956  Biso   1.000  C
  C44      1.0000 0.68440  0.93960  0.68140  Biso   1.000  C
  H46      1.0000 0.73720  0.95080  0.66420  Biso   1.000  H
  C45      1.0000 0.71120  0.92370  0.73060  Biso   1.000  C
  H47      1.0000 0.78310  0.92470  0.74550  Biso   1.000  H
  C46      1.0000 0.64590  0.90860  0.75570  Biso   1.000  C
  H48      1.0000 0.66710  0.89750  0.78810  Biso   1.000  H
  C47      1.0000 0.54880  0.90870  0.73570  Biso   1.000  C
  H49      1.0000 0.49930  0.89950  0.75510  Biso   1.000  H
  C48      1.0000 0.51390  0.92180  0.68690  Biso   1.000  C
  H50      1.0000 0.44060  0.91900  0.67270  Biso   1.000  H
  C49      1.0000 0.69490  0.94572  0.39363  Biso   1.000  C
  H51      1.0000 0.66380  0.90590  0.39360  Biso   1.000  H
  C50      1.0000 0.62840  0.95350  0.34660  Biso   1.000  C
  H52      1.0000 0.55500  0.94620  0.34860  Biso   1.000  H
  H53      1.0000 0.62880  0.92780  0.31520  Biso   1.000  H
  H54      1.0000 0.65550  0.99170  0.34370  Biso   1.000  H
  C51      1.0000 0.81070  0.95350  0.39930  Biso   1.000  C
  H55      1.0000 0.81730  0.93230  0.36690  Biso   1.000  H
  H56      1.0000 0.84220  0.94040  0.43020  Biso   1.000  H
  H57      1.0000 0.84840  0.99290  0.40450  Biso   1.000  H
  C52      1.0000 0.72570  0.17755  0.52719  Biso   1.000  C
  H58      1.0000 0.70060  0.18990  0.55810  Biso   1.000  H
  C53      1.0000 0.65940  0.19138  0.48530  Biso   1.000  C
  H59      1.0000 0.58480  0.16930  0.47860  Biso   1.000  H
  H60      1.0000 0.68070  0.18370  0.45300  Biso   1.000  H
  H61      1.0000 0.66650  0.23090  0.49520  Biso   1.000  H
  C54      1.0000 0.84540  0.20404  0.54980  Biso   1.000  C
  H62      1.0000 0.86310  0.24430  0.55390  Biso   1.000  H
  H63      1.0000 0.88040  0.18900  0.52540  Biso   1.000  H
  H64      1.0000 0.87060  0.19610  0.58470  Biso   1.000  H
  C55      1.0000 0.06890  0.37592  0.77989  Biso   1.000  C
  H65      1.0000 0.04050  0.34960  0.79810  Biso   1.000  H
  C56      1.0000 0.05200  0.42690  0.78846  Biso   1.000  C
  C57      1.0000 0.09200  0.46496  0.76163  Biso   1.000  C
  H66      1.0000 0.08220  0.50050  0.76670  Biso   1.000  H
  C58      1.0000 0.14660  0.44997  0.72723  Biso   1.000  C
  H67      1.0000 0.17390  0.47500  0.70760  Biso   1.000  H
  C59      1.0000 0.16110  0.39932  0.72171  Biso   1.000  C
  H68      1.0000 0.20030  0.39010  0.69840  Biso   1.000  H
  C60      1.0000 0.99440  0.44117  0.82703  Biso   1.000  C
  C61      1.0000 0.18390  0.36510  0.99790  Biso   1.000  C
  C62      1.0000 0.17550  0.33071  0.95202  Biso   1.000  C
  H69      1.0000 0.13160  0.33300  0.91900  Biso   1.000  H
  C63      1.0000 0.23090  0.29168  0.95264  Biso   1.000  C
  H70      1.0000 0.22230  0.26710  0.92000  Biso   1.000  H
  C64      1.0000 0.29510  0.28811  0.99751  Biso   1.000  C
  H71      1.0000 0.33410  0.26220  0.99700  Biso   1.000  H
  C65      1.0000 0.30420  0.32174  0.04396  Biso   1.000  C
  H72      1.0000 0.34940  0.31930  0.07650  Biso   1.000  H
  C66      1.0000 0.24840  0.35984  0.04481  Biso   1.000  C
  H73      1.0000 0.25450  0.38270  0.07800  Biso   1.000  H
  C67      1.0000 0.13950  0.63299  0.91540  Biso   1.000  C
  C68      1.0000 0.16850  0.62990  0.86610  Biso   1.000  C
  H74      1.0000 0.20600  0.66720  0.86410  Biso   1.000  H
  H75      1.0000 0.10360  0.61370  0.83550  Biso   1.000  H
  H76      1.0000 0.21540  0.60660  0.86550  Biso   1.000  H
  C69      1.0000 0.12730  0.67550  0.94790  Biso   1.000  C
  H77      1.0000 0.10850  0.66310  0.97820  Biso   1.000  H
  H78      1.0000 0.07010  0.68790  0.92800  Biso   1.000  H
  H79      1.0000 0.19440  0.70630  0.96100  Biso   1.000  H
  C70      1.0000 0.70190  0.44195  0.84976  Biso   1.000  C
  H80      1.0000 0.67540  0.40580  0.85910  Biso   1.000  H
  C71      1.0000 0.64880  0.47730  0.87322  Biso   1.000  C
  H81      1.0000 0.66950  0.48150  0.91200  Biso   1.000  H
  H82      1.0000 0.57110  0.46040  0.85820  Biso   1.000  H
  H83      1.0000 0.67000  0.51380  0.86530  Biso   1.000  H
  C72      1.0000 0.68250  0.42671  0.79083  Biso   1.000  C
  H84      1.0000 0.72300  0.40170  0.78260  Biso   1.000  H
  H85      1.0000 0.70560  0.46030  0.77830  Biso   1.000  H
  H86      1.0000 0.60590  0.40810  0.77290  Biso   1.000  H
  O1       1.0000 0.47159  0.32829  0.50429  Biso   1.000  O
  O2       1.0000 0.37466  0.36345  0.54984  Biso   1.000  O
  O3       1.0000 0.58791  0.49550  0.60917  Biso   1.000  O
  O4       1.0000 0.38908  0.47874  0.57563  Biso   1.000  O
  O5       1.0000 0.63058  0.40830  0.48397  Biso   1.000  O
  O6       1.0000 0.51862  0.57636  0.60121  Biso   1.000  O
  O7       1.0000 0.32471  0.36803  0.44117  Biso   1.000  O
  O8       1.0000 0.30494  0.47344  0.46668  Biso   1.000  O
  O9       1.0000 0.48594  0.43622  0.50745  Biso   1.000  O
  O10      1.0000 0.36725  0.12047  0.93247  Biso   1.000  O
  O11      1.0000 0.50931  0.16165  0.00602  Biso   1.000  O
  O12      1.0000 0.65888  0.06670  0.96527  Biso   1.000  O
  O13      1.0000 0.65051  0.10642  0.05687  Biso   1.000  O
  O14      1.0000 0.35418  0.01315  0.88372  Biso   1.000  O
  O15      1.0000 0.33899  0.07913  0.02017  Biso   1.000  O
  O16      1.0000 0.48589  0.04190  0.08629  Biso   1.000  O
  O17      1.0000 0.46268  0.05069  0.97656  Biso   1.000  O
  O18      1.0000 0.74109  0.03303  0.04444  Biso   1.000  O
  O19      1.0000 0.50503  0.09033  0.55252  Biso   1.000  O
  O20      1.0000 0.78736  0.97814  0.55053  Biso   1.000  O
  O21      1.0000 0.84450  0.06001  0.53141  Biso   1.000  O
  O22      1.0000 0.42182  0.94397  0.58178  Biso   1.000  O
  O23      1.0000 0.59653  0.02129  0.61056  Biso   1.000  O
  O24      1.0000 0.58140  0.92728  0.55775  Biso   1.000  O
  O25      1.0000 0.69879  0.11804  0.52223  Biso   1.000  O
  O26      1.0000 0.68751  0.97737  0.44232  Biso   1.000  O
  O27      1.0000 0.63071  0.01903  0.51535  Biso   1.000  O
  O28      1.0000 0.96350  0.40613  0.85188  Biso   1.000  O
  O29      1.0000 0.98175  0.48893  0.83148  Biso   1.000  O
  O30      1.0000 0.10677  0.42852  0.05585  Biso   1.000  O
  O31      1.0000 0.17675  0.46691  0.98647  Biso   1.000  O
  O32      1.0000 0.00332  0.38842  0.95788  Biso   1.000  O
  O33      1.0000 0.81659  0.46085  0.87670  Biso   1.000  O
  O34      1.0000 0.08332  0.57786  0.91913  Biso   1.000  O
  O35      1.0000 0.16970  0.57546  0.02944  Biso   1.000  O
  O36      1.0000 0.00114  0.48931  0.93626  Biso   1.000  O
  Ti13     1.0000 0.52331  0.62370  0.55201  Biso   1.000  Ti
  Ti14     1.0000 0.66545  0.57670  0.49283  Biso   1.000  Ti
  Ti15     1.0000 0.36722  0.53527  0.45136  Biso   1.000  Ti
  Ti16     1.0000 0.68963  0.95881  0.05527  Biso   1.000  Ti
  Ti17     1.0000 0.48719  0.97290  0.08154  Biso   1.000  Ti
  Ti18     1.0000 0.49954  0.90190  0.94988  Biso   1.000  Ti
  Ti19     1.0000 0.37151  0.92294  0.43035  Biso   1.000  Ti
  Ti20     1.0000 0.29320  0.94338  0.52959  Biso   1.000  Ti
  Ti21     1.0000 0.36838  0.05942  0.50422  Biso   1.000  Ti
  Ti22     1.0000 0.06701  0.46905  0.11083  Biso   1.000  Ti
  Ti23     1.0000 0.85213  0.46735  0.03372  Biso   1.000  Ti
  Ti24     1.0000 0.10742  0.58556  0.08364  Biso   1.000  Ti
  Cu5      1.0000 0.64681  0.72874  0.28338  Biso   1.000  Cu
  Cu6      1.0000 0.69004  0.73931  0.19253  Biso   1.000  Cu
  Cu7      1.0000 0.82513  0.80495  0.29216  Biso   1.000  Cu
  Cu8      1.0000 0.83489  0.70760  0.25850  Biso   1.000  Cu
  Br5      1.0000 0.65073  0.81882  0.25398  Biso   1.000  Br
  Br6      1.0000 0.85387  0.74566  0.35289  Biso   1.000  Br
  Br7      1.0000 0.61621  0.64908  0.21429  Biso   1.000  Br
  Br8      1.0000 0.88223  0.76834  0.20113  Biso   1.000  Br
  P5       1.0000 0.50382  0.48144  0.38812  Biso   1.000  P
  P6       1.0000 0.28581  0.91813  0.97472  Biso   1.000  P
  P7       1.0000 0.88687  0.58476  0.00081  Biso   1.000  P
  P8       1.0000 0.45671  0.04107  0.40174  Biso   1.000  P
  N5       1.0000 0.57020  0.72767  0.33882  Biso   1.000  N
  N6       1.0000 0.58590  0.73844  0.12320  Biso   1.000  N
  N7       1.0000 0.93130  0.88171  0.31759  Biso   1.000  N
  N8       1.0000 0.87640  0.63813  0.25298  Biso   1.000  N
  C73      1.0000 0.58480  0.69717  0.37437  Biso   1.000  C
  H87      1.0000 0.62420  0.67200  0.36990  Biso   1.000  H
  C74      1.0000 0.54490  0.70045  0.41796  Biso   1.000  C
  C75      1.0000 0.49010  0.73833  0.42518  Biso   1.000  C
  H88      1.0000 0.46250  0.74170  0.45470  Biso   1.000  H
  C76      1.0000 0.47560  0.77129  0.38906  Biso   1.000  C
  H89      1.0000 0.43870  0.79770  0.39340  Biso   1.000  H
  C77      1.0000 0.51640  0.76438  0.34671  Biso   1.000  C
  H90      1.0000 0.50620  0.78660  0.32170  Biso   1.000  H
  C78      1.0000 0.56850  0.66663  0.45736  Biso   1.000  C
  C79      1.0000 0.51300  0.47175  0.32130  Biso   1.000  C
  C80      1.0000 0.49680  0.42001  0.29188  Biso   1.000  C
  H91      1.0000 0.47800  0.38860  0.30630  Biso   1.000  H
  C81      1.0000 0.50790  0.41310  0.24056  Biso   1.000  C
  H92      1.0000 0.49810  0.37710  0.22050  Biso   1.000  H
  C82      1.0000 0.53250  0.45740  0.21939  Biso   1.000  C
  H93      1.0000 0.53720  0.45220  0.18400  Biso   1.000  H
  C83      1.0000 0.55030  0.50813  0.24791  Biso   1.000  C
  H94      1.0000 0.57080  0.53930  0.23340  Biso   1.000  H
  C84      1.0000 0.53910  0.51566  0.29867  Biso   1.000  C
  H95      1.0000 0.54980  0.55200  0.31820  Biso   1.000  H
  C85      1.0000 0.77150  0.66176  0.60104  Biso   1.000  C
  C86      1.0000 0.81330  0.71830  0.59620  Biso   1.000  C
  H96      1.0000 0.87920  0.73790  0.62560  Biso   1.000  H
  H97      1.0000 0.82880  0.71750  0.56200  Biso   1.000  H
  H98      1.0000 0.76010  0.73760  0.59770  Biso   1.000  H
  C87      1.0000 0.78960  0.64250  0.64310  Biso   1.000  C
  H99      1.0000 0.75090  0.60280  0.63390  Biso   1.000  H
  H100     1.0000 0.86660  0.64840  0.65740  Biso   1.000  H
  H101     1.0000 0.76520  0.66180  0.67020  Biso   1.000  H
  C88      1.0000 0.28040  0.60136  0.53174  Biso   1.000  C
  C89      1.0000 0.25860  0.65080  0.51520  Biso   1.000  C
  H102     1.0000 0.19740  0.65680  0.52590  Biso   1.000  H
  H103     1.0000 0.32180  0.68340  0.53250  Biso   1.000  H
  H104     1.0000 0.24220  0.64480  0.47630  Biso   1.000  H
  C90      1.0000 0.21820  0.56220  0.54470  Biso   1.000  C
  H105     1.0000 0.25530  0.53540  0.55410  Biso   1.000  H
  H106     1.0000 0.19860  0.57800  0.57550  Biso   1.000  H
  H107     1.0000 0.15340  0.54350  0.51450  Biso   1.000  H
  C91      1.0000 0.49740  0.69600  0.09710  Biso   1.000  C
  H108     1.0000 0.48670  0.66320  0.10990  Biso   1.000  H
  C92      1.0000 0.42190  0.69707  0.05344  Biso   1.000  C
  H109     1.0000 0.35940  0.66610  0.03680  Biso   1.000  H
  C93      1.0000 0.43750  0.74383  0.03355  Biso   1.000  C
  H110     1.0000 0.38620  0.74550  0.00270  Biso   1.000  H
  C94      1.0000 0.52700  0.78747  0.05854  Biso   1.000  C
  C95      1.0000 0.59980  0.78414  0.10365  Biso   1.000  C
  H111     1.0000 0.66170  0.81510  0.12150  Biso   1.000  H
  C96      1.0000 0.55040  0.83896  0.03795  Biso   1.000  C
  C97      1.0000 0.16000  0.86492  0.96235  Biso   1.000  C
  C98      1.0000 0.13250  0.84140  0.99820  Biso   1.000  C
  H112     1.0000 0.18100  0.85260  0.03340  Biso   1.000  H
  C99      1.0000 0.03420  0.80000  0.98810  Biso   1.000  C
  H113     1.0000 0.01870  0.78590  0.01710  Biso   1.000  H
  C100     1.0000 0.96750  0.78100  0.94380  Biso   1.000  C
  C101     1.0000 0.99240  0.79950  0.90570  Biso   1.000  C
  H114     1.0000 0.94450  0.78420  0.87050  Biso   1.000  H
  C102     1.0000 0.09360  0.84440  0.91380  Biso   1.000  C
  H115     1.0000 0.10960  0.85770  0.88450  Biso   1.000  H
  C103     1.0000 0.71110  0.01270  0.17062  Biso   1.000  C
  C104     1.0000 0.71600  0.06460  0.18610  Biso   1.000  C
  H116     1.0000 0.70680  0.08110  0.15510  Biso   1.000  H
  H117     1.0000 0.65920  0.06640  0.20230  Biso   1.000  H
  H118     1.0000 0.78580  0.08510  0.21230  Biso   1.000  H
  C105     1.0000 0.72160  0.97400  0.20341  Biso   1.000  C
  H119     1.0000 0.76610  0.99410  0.23980  Biso   1.000  H
  H120     1.0000 0.65060  0.95310  0.20410  Biso   1.000  H
  H121     1.0000 0.75530  0.94820  0.18870  Biso   1.000  H
  C106     1.0000 0.73520  0.90980  0.95090  Biso   1.000  C
  C107     1.0000 0.74700  0.85610  0.95030  Biso   1.000  C
  H122     1.0000 0.79840  0.85090  0.93120  Biso   1.000  H
  H123     1.0000 0.77310  0.85270  0.98700  Biso   1.000  H
  H124     1.0000 0.67760  0.82770  0.93210  Biso   1.000  H
  C108     1.0000 0.78270  0.95530  0.93330  Biso   1.000  C
  H125     1.0000 0.75770  0.98640  0.94490  Biso   1.000  H
  H126     1.0000 0.86060  0.96600  0.94840  Biso   1.000  H
  H127     1.0000 0.76310  0.94560  0.89420  Biso   1.000  H
  C109     1.0000 0.92600  0.91689  0.28704  Biso   1.000  C
  H128     1.0000 0.87650  0.90360  0.25210  Biso   1.000  H
  C110     1.0000 0.98740  0.97166  0.30218  Biso   1.000  C
  H129     1.0000 0.98160  0.99560  0.27850  Biso   1.000  H
  C111     1.0000 0.05760  0.99031  0.35305  Biso   1.000  C
  H130     1.0000 0.09950  0.02830  0.36550  Biso   1.000  H
  C112     1.0000 0.06800  0.95477  0.38615  Biso   1.000  C
  C113     1.0000 0.00140  0.90042  0.36691  Biso   1.000  C
  H131     1.0000 0.00560  0.87540  0.38950  Biso   1.000  H
  C114     1.0000 0.15080  0.97344  0.43920  Biso   1.000  C
  C115     1.0000 0.41750  0.06151  0.34044  Biso   1.000  C
  C116     1.0000 0.31560  0.06040  0.31860  Biso   1.000  C
  H132     1.0000 0.26280  0.04920  0.33580  Biso   1.000  H
  C117     1.0000 0.28880  0.07630  0.26940  Biso   1.000  C
  H133     1.0000 0.21690  0.07530  0.25450  Biso   1.000  H
  C118     1.0000 0.35410  0.09140  0.24430  Biso   1.000  C
  H134     1.0000 0.33290  0.10250  0.21190  Biso   1.000  H
  C119     1.0000 0.45120  0.09130  0.26430  Biso   1.000  C
  H135     1.0000 0.50070  0.10050  0.24490  Biso   1.000  H
  C120     1.0000 0.48610  0.07820  0.31310  Biso   1.000  C
  H136     1.0000 0.55940  0.08100  0.32730  Biso   1.000  H
  C121     1.0000 0.30510  0.05428  0.60637  Biso   1.000  C
  H137     1.0000 0.33620  0.09410  0.60640  Biso   1.000  H
  C122     1.0000 0.37160  0.04650  0.65340  Biso   1.000  C
  H138     1.0000 0.44500  0.05380  0.65140  Biso   1.000  H
  H139     1.0000 0.37120  0.07220  0.68480  Biso   1.000  H
  H140     1.0000 0.34450  0.00830  0.65630  Biso   1.000  H
  C123     1.0000 0.18930  0.04650  0.60070  Biso   1.000  C
  H141     1.0000 0.18270  0.06770  0.63310  Biso   1.000  H
  H142     1.0000 0.15780  0.05960  0.56980  Biso   1.000  H
  H143     1.0000 0.15160  0.00710  0.59550  Biso   1.000  H
  C124     1.0000 0.27430  0.82245  0.47281  Biso   1.000  C
  H144     1.0000 0.29940  0.81010  0.44190  Biso   1.000  H
  C125     1.0000 0.34060  0.80862  0.51470  Biso   1.000  C
  H145     1.0000 0.41520  0.83070  0.52140  Biso   1.000  H
  H146     1.0000 0.31930  0.81630  0.54700  Biso   1.000  H
  H147     1.0000 0.33350  0.76910  0.50480  Biso   1.000  H
  C126     1.0000 0.15460  0.79596  0.45020  Biso   1.000  C
  H148     1.0000 0.13690  0.75570  0.44610  Biso   1.000  H
  H149     1.0000 0.11960  0.81100  0.47460  Biso   1.000  H
  H150     1.0000 0.12940  0.80390  0.41530  Biso   1.000  H
  C127     1.0000 0.93110  0.62408  0.22011  Biso   1.000  C
  H151     1.0000 0.95950  0.65040  0.20190  Biso   1.000  H
  C128     1.0000 0.94800  0.57310  0.21154  Biso   1.000  C
  C129     1.0000 0.90800  0.53504  0.23837  Biso   1.000  C
  H152     1.0000 0.91780  0.49950  0.23330  Biso   1.000  H
  C130     1.0000 0.85340  0.55003  0.27277  Biso   1.000  C
  H153     1.0000 0.82610  0.52500  0.29240  Biso   1.000  H
  C131     1.0000 0.83890  0.60068  0.27829  Biso   1.000  C
  H154     1.0000 0.79970  0.60990  0.30160  Biso   1.000  H
  C132     1.0000 0.00560  0.55883  0.17297  Biso   1.000  C
  C133     1.0000 0.81610  0.63490  0.00210  Biso   1.000  C
  C134     1.0000 0.82450  0.66929  0.04798  Biso   1.000  C
  H155     1.0000 0.86840  0.66700  0.08100  Biso   1.000  H
  C135     1.0000 0.76910  0.70832  0.04736  Biso   1.000  C
  H156     1.0000 0.77770  0.73290  0.08000  Biso   1.000  H
  C136     1.0000 0.70490  0.71189  0.00249  Biso   1.000  C
  H157     1.0000 0.66590  0.73780  0.00300  Biso   1.000  H
  C137     1.0000 0.69580  0.67826  0.95604  Biso   1.000  C
  H158     1.0000 0.65060  0.68070  0.92350  Biso   1.000  H
  C138     1.0000 0.75160  0.64016  0.95519  Biso   1.000  C
  H159     1.0000 0.74550  0.61730  0.92200  Biso   1.000  H
  C139     1.0000 0.86050  0.36701  0.08460  Biso   1.000  C
  C140     1.0000 0.83150  0.37010  0.13390  Biso   1.000  C
  H160     1.0000 0.79400  0.33280  0.13590  Biso   1.000  H
  H161     1.0000 0.89640  0.38630  0.16450  Biso   1.000  H
  H162     1.0000 0.78460  0.39340  0.13450  Biso   1.000  H
  C141     1.0000 0.87270  0.32450  0.05210  Biso   1.000  C
  H163     1.0000 0.89150  0.33690  0.02180  Biso   1.000  H
  H164     1.0000 0.92990  0.31210  0.07200  Biso   1.000  H
  H165     1.0000 0.80560  0.29370  0.03900  Biso   1.000  H
  C142     1.0000 0.29810  0.55805  0.15024  Biso   1.000  C
  H166     1.0000 0.32460  0.59420  0.14090  Biso   1.000  H
  C143     1.0000 0.35120  0.52270  0.12678  Biso   1.000  C
  H167     1.0000 0.33050  0.51850  0.08800  Biso   1.000  H
  H168     1.0000 0.42890  0.53960  0.14180  Biso   1.000  H
  H169     1.0000 0.33000  0.48620  0.13470  Biso   1.000  H
  C144     1.0000 0.31750  0.57329  0.20917  Biso   1.000  C
  H170     1.0000 0.27700  0.59830  0.21740  Biso   1.000  H
  H171     1.0000 0.29440  0.53970  0.22170  Biso   1.000  H
  H172     1.0000 0.39410  0.59190  0.22710  Biso   1.000  H
  O37      1.0000 0.52841  0.67171  0.49571  Biso   1.000  O
  O38      1.0000 0.62534  0.63655  0.45016  Biso   1.000  O
  O39      1.0000 0.41209  0.50450  0.39083  Biso   1.000  O
  O40      1.0000 0.61092  0.52126  0.42437  Biso   1.000  O
  O41      1.0000 0.36942  0.59170  0.51603  Biso   1.000  O
  O42      1.0000 0.48138  0.42364  0.39879  Biso   1.000  O
  O43      1.0000 0.67529  0.63197  0.55883  Biso   1.000  O
  O44      1.0000 0.69506  0.52656  0.53332  Biso   1.000  O
  O45      1.0000 0.51406  0.56378  0.49255  Biso   1.000  O
  O46      1.0000 0.63275  0.87953  0.06753  Biso   1.000  O
  O47      1.0000 0.49069  0.83835  0.99398  Biso   1.000  O
  O48      1.0000 0.34112  0.93330  0.03473  Biso   1.000  O
  O49      1.0000 0.34949  0.89358  0.94313  Biso   1.000  O
  O50      1.0000 0.64582  0.98685  0.11628  Biso   1.000  O
  O51      1.0000 0.66101  0.92087  0.97983  Biso   1.000  O
  O52      1.0000 0.51411  0.95810  0.91371  Biso   1.000  O
  O53      1.0000 0.53732  0.94931  0.02344  Biso   1.000  O
  O54      1.0000 0.25891  0.96697  0.95556  Biso   1.000  O
  O55      1.0000 0.49497  0.90967  0.44748  Biso   1.000  O
  O56      1.0000 0.21264  0.02186  0.44947  Biso   1.000  O
  O57      1.0000 0.15550  0.93999  0.46859  Biso   1.000  O
  O58      1.0000 0.57818  0.05603  0.41822  Biso   1.000  O
  O59      1.0000 0.40347  0.97871  0.38944  Biso   1.000  O
  O60      1.0000 0.41860  0.07272  0.44225  Biso   1.000  O
  O61      1.0000 0.30121  0.88196  0.47777  Biso   1.000  O
  O62      1.0000 0.31249  0.02263  0.55768  Biso   1.000  O
  O63      1.0000 0.36929  0.98097  0.48465  Biso   1.000  O
  O64      1.0000 0.03650  0.59387  0.14812  Biso   1.000  O
  O65      1.0000 0.01825  0.51107  0.16852  Biso   1.000  O
  O66      1.0000 0.89323  0.57148  0.94415  Biso   1.000  O
  O67      1.0000 0.82325  0.53309  0.01353  Biso   1.000  O
  O68      1.0000 0.99668  0.61158  0.04212  Biso   1.000  O
  O69      1.0000 0.18341  0.53915  0.12330  Biso   1.000  O
  O70      1.0000 0.91668  0.42214  0.08087  Biso   1.000  O
  O71      1.0000 0.83030  0.42454  0.97056  Biso   1.000  O
  O72      1.0000 0.99886  0.51069  0.06374  Biso   1.000  O
