data_image0
_cell_length_a       21.8947
_cell_length_b       8.3062
_cell_length_c       23.2034
_cell_angle_alpha    90
_cell_angle_beta     100.053
_cell_angle_gamma    90

_symmetry_space_group_name_H-M    "P 1"
_symmetry_int_tables_number       1

loop_
  _symmetry_equiv_pos_as_xyz
  'x, y, z'

loop_
  _atom_site_label
  _atom_site_occupancy
  _atom_site_fract_x
  _atom_site_fract_y
  _atom_site_fract_z
  _atom_site_thermal_displace_type
  _atom_site_B_iso_or_equiv
  _atom_site_type_symbol
  C1       1.0000 0.17100  0.21600  0.17680  Biso   1.000  C
  C2       1.0000 0.12790  0.08720  0.15140  Biso   1.000  C
  C3       1.0000 0.09180  0.11980  0.09670  Biso   1.000  C
  H1       1.0000 0.09590  0.21880  0.07910  Biso   1.000  H
  C4       1.0000 0.05060  0.00980  0.06840  Biso   1.000  C
  C5       1.0000 0.04390  0.86190  0.09580  Biso   1.000  C
  H2       1.0000 0.01570  0.78590  0.07770  Biso   1.000  H
  C6       1.0000 0.07880  0.82990  0.14920  Biso   1.000  C
  H3       1.0000 0.07350  0.73170  0.16690  Biso   1.000  H
  C7       1.0000 0.12250  0.93880  0.17870  Biso   1.000  C
  C8       1.0000 0.26000  0.29730  0.35820  Biso   1.000  C
  C9       1.0000 0.28080  0.35090  0.42040  Biso   1.000  C
  C10      1.0000 0.32100  0.25370  0.46020  Biso   1.000  C
  C11      1.0000 0.34220  0.31110  0.51640  Biso   1.000  C
  H4       1.0000 0.36930  0.24890  0.54270  Biso   1.000  H
  C12      1.0000 0.32360  0.45790  0.53320  Biso   1.000  C
  H5       1.0000 0.33830  0.49430  0.57100  Biso   1.000  H
  C13      1.0000 0.28310  0.55440  0.49500  Biso   1.000  C
  C14      1.0000 0.26280  0.49870  0.43860  Biso   1.000  C
  H6       1.0000 0.23640  0.56270  0.41240  Biso   1.000  H
  Er1      1.0000 0.24755  0.46526  0.22838  Biso   1.000  Er
  H7       1.0000 0.33200  0.09200  0.41030  Biso   1.000  H
  N1       1.0000 0.01790  0.05380  0.01230  Biso   1.000  N
  N2       1.0000 0.26500  0.70340  0.51817  Biso   1.000  N
  O1       1.0000 0.16953  0.35280  0.15388  Biso   1.000  O
  O2       1.0000 0.21077  0.19140  0.22433  Biso   1.000  O
  O3       1.0000 0.27086  0.15460  0.34514  Biso   1.000  O
  O4       1.0000 0.15584  0.89630  0.22953  Biso   1.000  O
  O5       1.0000 0.23443  0.40120  0.32299  Biso   1.000  O
  O6       1.0000 0.34070  0.10550  0.44712  Biso   1.000  O
  C15      1.0000 0.67100  0.71600  0.17680  Biso   1.000  C
  C16      1.0000 0.62790  0.58720  0.15140  Biso   1.000  C
  C17      1.0000 0.59180  0.61980  0.09670  Biso   1.000  C
  H8       1.0000 0.59590  0.71880  0.07910  Biso   1.000  H
  C18      1.0000 0.55060  0.50980  0.06840  Biso   1.000  C
  C19      1.0000 0.54390  0.36190  0.09580  Biso   1.000  C
  H9       1.0000 0.51570  0.28590  0.07770  Biso   1.000  H
  C20      1.0000 0.57880  0.32990  0.14920  Biso   1.000  C
  H10      1.0000 0.57350  0.23170  0.16690  Biso   1.000  H
  C21      1.0000 0.62250  0.43880  0.17870  Biso   1.000  C
  C22      1.0000 0.76000  0.79730  0.35820  Biso   1.000  C
  C23      1.0000 0.78080  0.85090  0.42040  Biso   1.000  C
  C24      1.0000 0.82100  0.75370  0.46020  Biso   1.000  C
  C25      1.0000 0.84220  0.81110  0.51640  Biso   1.000  C
  H11      1.0000 0.86930  0.74890  0.54270  Biso   1.000  H
  C26      1.0000 0.82360  0.95790  0.53320  Biso   1.000  C
  H12      1.0000 0.83830  0.99430  0.57100  Biso   1.000  H
  C27      1.0000 0.78310  0.05440  0.49500  Biso   1.000  C
  C28      1.0000 0.76280  0.99870  0.43860  Biso   1.000  C
  H13      1.0000 0.73640  0.06270  0.41240  Biso   1.000  H
  Er2      1.0000 0.74755  0.96526  0.22838  Biso   1.000  Er
  H14      1.0000 0.83200  0.59200  0.41030  Biso   1.000  H
  N3       1.0000 0.51790  0.55380  0.01230  Biso   1.000  N
  N4       1.0000 0.76500  0.20340  0.51817  Biso   1.000  N
  O7       1.0000 0.66953  0.85280  0.15388  Biso   1.000  O
  O8       1.0000 0.71077  0.69140  0.22433  Biso   1.000  O
  O9       1.0000 0.77086  0.65460  0.34514  Biso   1.000  O
  O10      1.0000 0.65584  0.39630  0.22953  Biso   1.000  O
  O11      1.0000 0.73443  0.90120  0.32299  Biso   1.000  O
  O12      1.0000 0.84070  0.60550  0.44712  Biso   1.000  O
  C29      1.0000 0.82900  0.21600  0.32320  Biso   1.000  C
  C30      1.0000 0.87210  0.08720  0.34860  Biso   1.000  C
  C31      1.0000 0.90820  0.11980  0.40330  Biso   1.000  C
  H15      1.0000 0.90410  0.21880  0.42090  Biso   1.000  H
  C32      1.0000 0.94940  0.00980  0.43160  Biso   1.000  C
  C33      1.0000 0.95610  0.86190  0.40420  Biso   1.000  C
  H16      1.0000 0.98430  0.78590  0.42230  Biso   1.000  H
  C34      1.0000 0.92120  0.82990  0.35080  Biso   1.000  C
  H17      1.0000 0.92650  0.73170  0.33310  Biso   1.000  H
  C35      1.0000 0.87750  0.93880  0.32130  Biso   1.000  C
  C36      1.0000 0.74000  0.29730  0.14180  Biso   1.000  C
  C37      1.0000 0.71920  0.35090  0.07960  Biso   1.000  C
  C38      1.0000 0.67900  0.25370  0.03980  Biso   1.000  C
  C39      1.0000 0.65780  0.31110  0.98360  Biso   1.000  C
  H18      1.0000 0.63070  0.24890  0.95730  Biso   1.000  H
  C40      1.0000 0.67640  0.45790  0.96680  Biso   1.000  C
  H19      1.0000 0.66170  0.49430  0.92900  Biso   1.000  H
  C41      1.0000 0.71690  0.55440  0.00500  Biso   1.000  C
  C42      1.0000 0.73720  0.49870  0.06140  Biso   1.000  C
  H20      1.0000 0.76360  0.56270  0.08760  Biso   1.000  H
  Er3      1.0000 0.75245  0.46526  0.27162  Biso   1.000  Er
  H21      1.0000 0.66800  0.09200  0.08970  Biso   1.000  H
  N5       1.0000 0.98210  0.05380  0.48770  Biso   1.000  N
  N6       1.0000 0.73500  0.70340  0.98183  Biso   1.000  N
  O13      1.0000 0.83047  0.35280  0.34612  Biso   1.000  O
  O14      1.0000 0.78923  0.19140  0.27567  Biso   1.000  O
  O15      1.0000 0.72914  0.15460  0.15486  Biso   1.000  O
  O16      1.0000 0.84416  0.89630  0.27047  Biso   1.000  O
  O17      1.0000 0.76557  0.40120  0.17701  Biso   1.000  O
  O18      1.0000 0.65930  0.10550  0.05288  Biso   1.000  O
  C43      1.0000 0.32900  0.71600  0.32320  Biso   1.000  C
  C44      1.0000 0.37210  0.58720  0.34860  Biso   1.000  C
  C45      1.0000 0.40820  0.61980  0.40330  Biso   1.000  C
  H22      1.0000 0.40410  0.71880  0.42090  Biso   1.000  H
  C46      1.0000 0.44940  0.50980  0.43160  Biso   1.000  C
  C47      1.0000 0.45610  0.36190  0.40420  Biso   1.000  C
  H23      1.0000 0.48430  0.28590  0.42230  Biso   1.000  H
  C48      1.0000 0.42120  0.32990  0.35080  Biso   1.000  C
  H24      1.0000 0.42650  0.23170  0.33310  Biso   1.000  H
  C49      1.0000 0.37750  0.43880  0.32130  Biso   1.000  C
  C50      1.0000 0.24000  0.79730  0.14180  Biso   1.000  C
  C51      1.0000 0.21920  0.85090  0.07960  Biso   1.000  C
  C52      1.0000 0.17900  0.75370  0.03980  Biso   1.000  C
  C53      1.0000 0.15780  0.81110  0.98360  Biso   1.000  C
  H25      1.0000 0.13070  0.74890  0.95730  Biso   1.000  H
  C54      1.0000 0.17640  0.95790  0.96680  Biso   1.000  C
  H26      1.0000 0.16170  0.99430  0.92900  Biso   1.000  H
  C55      1.0000 0.21690  0.05440  0.00500  Biso   1.000  C
  C56      1.0000 0.23720  0.99870  0.06140  Biso   1.000  C
  H27      1.0000 0.26360  0.06270  0.08760  Biso   1.000  H
  Er4      1.0000 0.25245  0.96526  0.27162  Biso   1.000  Er
  H28      1.0000 0.16800  0.59200  0.08970  Biso   1.000  H
  N7       1.0000 0.48210  0.55380  0.48770  Biso   1.000  N
  N8       1.0000 0.23500  0.20340  0.98183  Biso   1.000  N
  O19      1.0000 0.33047  0.85280  0.34612  Biso   1.000  O
  O20      1.0000 0.28923  0.69140  0.27567  Biso   1.000  O
  O21      1.0000 0.22914  0.65460  0.15486  Biso   1.000  O
  O22      1.0000 0.34416  0.39630  0.27047  Biso   1.000  O
  O23      1.0000 0.26557  0.90120  0.17701  Biso   1.000  O
  O24      1.0000 0.15930  0.60550  0.05288  Biso   1.000  O
  C57      1.0000 0.82900  0.78400  0.82320  Biso   1.000  C
  C58      1.0000 0.87210  0.91280  0.84860  Biso   1.000  C
  C59      1.0000 0.90820  0.88020  0.90330  Biso   1.000  C
  H29      1.0000 0.90410  0.78120  0.92090  Biso   1.000  H
  C60      1.0000 0.94940  0.99020  0.93160  Biso   1.000  C
  C61      1.0000 0.95610  0.13810  0.90420  Biso   1.000  C
  H30      1.0000 0.98430  0.21410  0.92230  Biso   1.000  H
  C62      1.0000 0.92120  0.17010  0.85080  Biso   1.000  C
  H31      1.0000 0.92650  0.26830  0.83310  Biso   1.000  H
  C63      1.0000 0.87750  0.06120  0.82130  Biso   1.000  C
  C64      1.0000 0.74000  0.70270  0.64180  Biso   1.000  C
  C65      1.0000 0.71920  0.64910  0.57960  Biso   1.000  C
  C66      1.0000 0.67900  0.74630  0.53980  Biso   1.000  C
  C67      1.0000 0.65780  0.68890  0.48360  Biso   1.000  C
  H32      1.0000 0.63070  0.75110  0.45730  Biso   1.000  H
  C68      1.0000 0.67640  0.54210  0.46680  Biso   1.000  C
  H33      1.0000 0.66170  0.50570  0.42900  Biso   1.000  H
  C69      1.0000 0.71690  0.44560  0.50500  Biso   1.000  C
  C70      1.0000 0.73720  0.50130  0.56140  Biso   1.000  C
  H34      1.0000 0.76360  0.43730  0.58760  Biso   1.000  H
  Er5      1.0000 0.75245  0.53474  0.77162  Biso   1.000  Er
  H35      1.0000 0.66800  0.90800  0.58970  Biso   1.000  H
  N9       1.0000 0.98210  0.94620  0.98770  Biso   1.000  N
  N10      1.0000 0.73500  0.29660  0.48183  Biso   1.000  N
  O25      1.0000 0.83047  0.64720  0.84612  Biso   1.000  O
  O26      1.0000 0.78923  0.80860  0.77567  Biso   1.000  O
  O27      1.0000 0.72914  0.84540  0.65486  Biso   1.000  O
  O28      1.0000 0.84416  0.10370  0.77047  Biso   1.000  O
  O29      1.0000 0.76557  0.59880  0.67701  Biso   1.000  O
  O30      1.0000 0.65930  0.89450  0.55288  Biso   1.000  O
  C71      1.0000 0.32900  0.28400  0.82320  Biso   1.000  C
  C72      1.0000 0.37210  0.41280  0.84860  Biso   1.000  C
  C73      1.0000 0.40820  0.38020  0.90330  Biso   1.000  C
  H36      1.0000 0.40410  0.28120  0.92090  Biso   1.000  H
  C74      1.0000 0.44940  0.49020  0.93160  Biso   1.000  C
  C75      1.0000 0.45610  0.63810  0.90420  Biso   1.000  C
  H37      1.0000 0.48430  0.71410  0.92230  Biso   1.000  H
  C76      1.0000 0.42120  0.67010  0.85080  Biso   1.000  C
  H38      1.0000 0.42650  0.76830  0.83310  Biso   1.000  H
  C77      1.0000 0.37750  0.56120  0.82130  Biso   1.000  C
  C78      1.0000 0.24000  0.20270  0.64180  Biso   1.000  C
  C79      1.0000 0.21920  0.14910  0.57960  Biso   1.000  C
  C80      1.0000 0.17900  0.24630  0.53980  Biso   1.000  C
  C81      1.0000 0.15780  0.18890  0.48360  Biso   1.000  C
  H39      1.0000 0.13070  0.25110  0.45730  Biso   1.000  H
  C82      1.0000 0.17640  0.04210  0.46680  Biso   1.000  C
  H40      1.0000 0.16170  0.00570  0.42900  Biso   1.000  H
  C83      1.0000 0.21690  0.94560  0.50500  Biso   1.000  C
  C84      1.0000 0.23720  0.00130  0.56140  Biso   1.000  C
  H41      1.0000 0.26360  0.93730  0.58760  Biso   1.000  H
  Er6      1.0000 0.25245  0.03474  0.77162  Biso   1.000  Er
  H42      1.0000 0.16800  0.40800  0.58970  Biso   1.000  H
  N11      1.0000 0.48210  0.44620  0.98770  Biso   1.000  N
  N12      1.0000 0.23500  0.79660  0.48183  Biso   1.000  N
  O31      1.0000 0.33047  0.14720  0.84612  Biso   1.000  O
  O32      1.0000 0.28923  0.30860  0.77567  Biso   1.000  O
  O33      1.0000 0.22914  0.34540  0.65486  Biso   1.000  O
  O34      1.0000 0.34416  0.60370  0.77047  Biso   1.000  O
  O35      1.0000 0.26557  0.09880  0.67701  Biso   1.000  O
  O36      1.0000 0.15930  0.39450  0.55288  Biso   1.000  O
  C85      1.0000 0.17100  0.78400  0.67680  Biso   1.000  C
  C86      1.0000 0.12790  0.91280  0.65140  Biso   1.000  C
  C87      1.0000 0.09180  0.88020  0.59670  Biso   1.000  C
  H43      1.0000 0.09590  0.78120  0.57910  Biso   1.000  H
  C88      1.0000 0.05060  0.99020  0.56840  Biso   1.000  C
  C89      1.0000 0.04390  0.13810  0.59580  Biso   1.000  C
  H44      1.0000 0.01570  0.21410  0.57770  Biso   1.000  H
  C90      1.0000 0.07880  0.17010  0.64920  Biso   1.000  C
  H45      1.0000 0.07350  0.26830  0.66690  Biso   1.000  H
  C91      1.0000 0.12250  0.06120  0.67870  Biso   1.000  C
  C92      1.0000 0.26000  0.70270  0.85820  Biso   1.000  C
  C93      1.0000 0.28080  0.64910  0.92040  Biso   1.000  C
  C94      1.0000 0.32100  0.74630  0.96020  Biso   1.000  C
  C95      1.0000 0.34220  0.68890  0.01640  Biso   1.000  C
  H46      1.0000 0.36930  0.75110  0.04270  Biso   1.000  H
  C96      1.0000 0.32360  0.54210  0.03320  Biso   1.000  C
  H47      1.0000 0.33830  0.50570  0.07100  Biso   1.000  H
  C97      1.0000 0.28310  0.44560  0.99500  Biso   1.000  C
  C98      1.0000 0.26280  0.50130  0.93860  Biso   1.000  C
  H48      1.0000 0.23640  0.43730  0.91240  Biso   1.000  H
  Er7      1.0000 0.24755  0.53474  0.72838  Biso   1.000  Er
  H49      1.0000 0.33200  0.90800  0.91030  Biso   1.000  H
  N13      1.0000 0.01790  0.94620  0.51230  Biso   1.000  N
  N14      1.0000 0.26500  0.29660  0.01817  Biso   1.000  N
  O37      1.0000 0.16953  0.64720  0.65388  Biso   1.000  O
  O38      1.0000 0.21077  0.80860  0.72433  Biso   1.000  O
  O39      1.0000 0.27086  0.84540  0.84514  Biso   1.000  O
  O40      1.0000 0.15584  0.10370  0.72953  Biso   1.000  O
  O41      1.0000 0.23443  0.59880  0.82299  Biso   1.000  O
  O42      1.0000 0.34070  0.89450  0.94712  Biso   1.000  O
  C99      1.0000 0.67100  0.28400  0.67680  Biso   1.000  C
  C100     1.0000 0.62790  0.41280  0.65140  Biso   1.000  C
  C101     1.0000 0.59180  0.38020  0.59670  Biso   1.000  C
  H50      1.0000 0.59590  0.28120  0.57910  Biso   1.000  H
  C102     1.0000 0.55060  0.49020  0.56840  Biso   1.000  C
  C103     1.0000 0.54390  0.63810  0.59580  Biso   1.000  C
  H51      1.0000 0.51570  0.71410  0.57770  Biso   1.000  H
  C104     1.0000 0.57880  0.67010  0.64920  Biso   1.000  C
  H52      1.0000 0.57350  0.76830  0.66690  Biso   1.000  H
  C105     1.0000 0.62250  0.56120  0.67870  Biso   1.000  C
  C106     1.0000 0.76000  0.20270  0.85820  Biso   1.000  C
  C107     1.0000 0.78080  0.14910  0.92040  Biso   1.000  C
  C108     1.0000 0.82100  0.24630  0.96020  Biso   1.000  C
  C109     1.0000 0.84220  0.18890  0.01640  Biso   1.000  C
  H53      1.0000 0.86930  0.25110  0.04270  Biso   1.000  H
  C110     1.0000 0.82360  0.04210  0.03320  Biso   1.000  C
  H54      1.0000 0.83830  0.00570  0.07100  Biso   1.000  H
  C111     1.0000 0.78310  0.94560  0.99500  Biso   1.000  C
  C112     1.0000 0.76280  0.00130  0.93860  Biso   1.000  C
  H55      1.0000 0.73640  0.93730  0.91240  Biso   1.000  H
  Er8      1.0000 0.74755  0.03474  0.72838  Biso   1.000  Er
  H56      1.0000 0.83200  0.40800  0.91030  Biso   1.000  H
  N15      1.0000 0.51790  0.44620  0.51230  Biso   1.000  N
  N16      1.0000 0.76500  0.79660  0.01817  Biso   1.000  N
  O43      1.0000 0.66953  0.14720  0.65388  Biso   1.000  O
  O44      1.0000 0.71077  0.30860  0.72433  Biso   1.000  O
  O45      1.0000 0.77086  0.34540  0.84514  Biso   1.000  O
  O46      1.0000 0.65584  0.60370  0.72953  Biso   1.000  O
  O47      1.0000 0.73443  0.09880  0.82299  Biso   1.000  O
  O48      1.0000 0.84070  0.39450  0.94712  Biso   1.000  O
