data_image0
_cell_length_a       21.617
_cell_length_b       8.2378
_cell_length_c       23.158
_cell_angle_alpha    90
_cell_angle_beta     99.426
_cell_angle_gamma    90

_symmetry_space_group_name_H-M    "P 1"
_symmetry_int_tables_number       1

loop_
  _symmetry_equiv_pos_as_xyz
  'x, y, z'

loop_
  _atom_site_label
  _atom_site_occupancy
  _atom_site_fract_x
  _atom_site_fract_y
  _atom_site_fract_z
  _atom_site_thermal_displace_type
  _atom_site_B_iso_or_equiv
  _atom_site_type_symbol
  C1       1.0000 0.17230  0.78510  0.17800  Biso   1.000  C
  C2       1.0000 0.04920  0.99240  0.07020  Biso   1.000  C
  C3       1.0000 0.09240  0.88300  0.09750  Biso   1.000  C
  H1       1.0000 0.09880  0.78630  0.07860  Biso   1.000  H
  C4       1.0000 0.25970  0.70310  0.35880  Biso   1.000  C
  C5       1.0000 0.26300  0.50280  0.43880  Biso   1.000  C
  H2       1.0000 0.23620  0.43890  0.41270  Biso   1.000  H
  C6       1.0000 0.32540  0.53910  0.53310  Biso   1.000  C
  H3       1.0000 0.34160  0.49820  0.56990  Biso   1.000  H
  C7       1.0000 0.12690  0.91320  0.15260  Biso   1.000  C
  C8       1.0000 0.28160  0.65220  0.42150  Biso   1.000  C
  C9       1.0000 0.28400  0.44690  0.49520  Biso   1.000  C
  C10      1.0000 0.04320  0.14030  0.09520  Biso   1.000  C
  H4       1.0000 0.01650  0.21860  0.07590  Biso   1.000  H
  C11      1.0000 0.32250  0.75140  0.45960  Biso   1.000  C
  C12      1.0000 0.34370  0.69390  0.51700  Biso   1.000  C
  H5       1.0000 0.36950  0.75830  0.54390  Biso   1.000  H
  C13      1.0000 0.07790  0.17180  0.15010  Biso   1.000  C
  H6       1.0000 0.07140  0.26910  0.16860  Biso   1.000  H
  C14      1.0000 0.12170  0.06370  0.17830  Biso   1.000  C
  Lu1      1.0000 0.24790  0.53693  0.22855  Biso   1.000  Lu
  N1       1.0000 0.01810  0.94830  0.01290  Biso   1.000  N
  N2       1.0000 0.26460  0.30100  0.51840  Biso   1.000  N
  O1       1.0000 0.23790  0.58790  0.32210  Biso   1.000  O
  O2       1.0000 0.15460  0.10430  0.22940  Biso   1.000  O
  O3       1.0000 0.21220  0.80930  0.22490  Biso   1.000  O
  O4       1.0000 0.16840  0.64380  0.15530  Biso   1.000  O
  O5       1.0000 0.27070  0.84930  0.34500  Biso   1.000  O
  O6       1.0000 0.33990  0.89900  0.44590  Biso   1.000  O
  C15      1.0000 0.67230  0.28510  0.17800  Biso   1.000  C
  C16      1.0000 0.54920  0.49240  0.07020  Biso   1.000  C
  C17      1.0000 0.59240  0.38300  0.09750  Biso   1.000  C
  H7       1.0000 0.59880  0.28630  0.07860  Biso   1.000  H
  C18      1.0000 0.75970  0.20310  0.35880  Biso   1.000  C
  C19      1.0000 0.76300  0.00280  0.43880  Biso   1.000  C
  H8       1.0000 0.73620  0.93890  0.41270  Biso   1.000  H
  C20      1.0000 0.82540  0.03910  0.53310  Biso   1.000  C
  H9       1.0000 0.84160  0.99820  0.56990  Biso   1.000  H
  C21      1.0000 0.62690  0.41320  0.15260  Biso   1.000  C
  C22      1.0000 0.78160  0.15220  0.42150  Biso   1.000  C
  C23      1.0000 0.78400  0.94690  0.49520  Biso   1.000  C
  C24      1.0000 0.54320  0.64030  0.09520  Biso   1.000  C
  H10      1.0000 0.51650  0.71860  0.07590  Biso   1.000  H
  C25      1.0000 0.82250  0.25140  0.45960  Biso   1.000  C
  C26      1.0000 0.84370  0.19390  0.51700  Biso   1.000  C
  H11      1.0000 0.86950  0.25830  0.54390  Biso   1.000  H
  C27      1.0000 0.57790  0.67180  0.15010  Biso   1.000  C
  H12      1.0000 0.57140  0.76910  0.16860  Biso   1.000  H
  C28      1.0000 0.62170  0.56370  0.17830  Biso   1.000  C
  Lu2      1.0000 0.74790  0.03693  0.22855  Biso   1.000  Lu
  N3       1.0000 0.51810  0.44830  0.01290  Biso   1.000  N
  N4       1.0000 0.76460  0.80100  0.51840  Biso   1.000  N
  O7       1.0000 0.73790  0.08790  0.32210  Biso   1.000  O
  O8       1.0000 0.65460  0.60430  0.22940  Biso   1.000  O
  O9       1.0000 0.71220  0.30930  0.22490  Biso   1.000  O
  O10      1.0000 0.66840  0.14380  0.15530  Biso   1.000  O
  O11      1.0000 0.77070  0.34930  0.34500  Biso   1.000  O
  O12      1.0000 0.83990  0.39900  0.44590  Biso   1.000  O
  C29      1.0000 0.82770  0.78510  0.32200  Biso   1.000  C
  C30      1.0000 0.95080  0.99240  0.42980  Biso   1.000  C
  C31      1.0000 0.90760  0.88300  0.40250  Biso   1.000  C
  H13      1.0000 0.90120  0.78630  0.42140  Biso   1.000  H
  C32      1.0000 0.74030  0.70310  0.14120  Biso   1.000  C
  C33      1.0000 0.73700  0.50280  0.06120  Biso   1.000  C
  H14      1.0000 0.76380  0.43890  0.08730  Biso   1.000  H
  C34      1.0000 0.67460  0.53910  0.96690  Biso   1.000  C
  H15      1.0000 0.65840  0.49820  0.93010  Biso   1.000  H
  C35      1.0000 0.87310  0.91320  0.34740  Biso   1.000  C
  C36      1.0000 0.71840  0.65220  0.07850  Biso   1.000  C
  C37      1.0000 0.71600  0.44690  0.00480  Biso   1.000  C
  C38      1.0000 0.95680  0.14030  0.40480  Biso   1.000  C
  H16      1.0000 0.98350  0.21860  0.42410  Biso   1.000  H
  C39      1.0000 0.67750  0.75140  0.04040  Biso   1.000  C
  C40      1.0000 0.65630  0.69390  0.98300  Biso   1.000  C
  H17      1.0000 0.63050  0.75830  0.95610  Biso   1.000  H
  C41      1.0000 0.92210  0.17180  0.34990  Biso   1.000  C
  H18      1.0000 0.92860  0.26910  0.33140  Biso   1.000  H
  C42      1.0000 0.87830  0.06370  0.32170  Biso   1.000  C
  Lu3      1.0000 0.75210  0.53693  0.27145  Biso   1.000  Lu
  N5       1.0000 0.98190  0.94830  0.48710  Biso   1.000  N
  N6       1.0000 0.73540  0.30100  0.98160  Biso   1.000  N
  O13      1.0000 0.76210  0.58790  0.17790  Biso   1.000  O
  O14      1.0000 0.84540  0.10430  0.27060  Biso   1.000  O
  O15      1.0000 0.78780  0.80930  0.27510  Biso   1.000  O
  O16      1.0000 0.83160  0.64380  0.34470  Biso   1.000  O
  O17      1.0000 0.72930  0.84930  0.15500  Biso   1.000  O
  O18      1.0000 0.66010  0.89900  0.05410  Biso   1.000  O
  C43      1.0000 0.32770  0.28510  0.32200  Biso   1.000  C
  C44      1.0000 0.45080  0.49240  0.42980  Biso   1.000  C
  C45      1.0000 0.40760  0.38300  0.40250  Biso   1.000  C
  H19      1.0000 0.40120  0.28630  0.42140  Biso   1.000  H
  C46      1.0000 0.24030  0.20310  0.14120  Biso   1.000  C
  C47      1.0000 0.23700  0.00280  0.06120  Biso   1.000  C
  H20      1.0000 0.26380  0.93890  0.08730  Biso   1.000  H
  C48      1.0000 0.17460  0.03910  0.96690  Biso   1.000  C
  H21      1.0000 0.15840  0.99820  0.93010  Biso   1.000  H
  C49      1.0000 0.37310  0.41320  0.34740  Biso   1.000  C
  C50      1.0000 0.21840  0.15220  0.07850  Biso   1.000  C
  C51      1.0000 0.21600  0.94690  0.00480  Biso   1.000  C
  C52      1.0000 0.45680  0.64030  0.40480  Biso   1.000  C
  H22      1.0000 0.48350  0.71860  0.42410  Biso   1.000  H
  C53      1.0000 0.17750  0.25140  0.04040  Biso   1.000  C
  C54      1.0000 0.15630  0.19390  0.98300  Biso   1.000  C
  H23      1.0000 0.13050  0.25830  0.95610  Biso   1.000  H
  C55      1.0000 0.42210  0.67180  0.34990  Biso   1.000  C
  H24      1.0000 0.42860  0.76910  0.33140  Biso   1.000  H
  C56      1.0000 0.37830  0.56370  0.32170  Biso   1.000  C
  Lu4      1.0000 0.25210  0.03693  0.27145  Biso   1.000  Lu
  N7       1.0000 0.48190  0.44830  0.48710  Biso   1.000  N
  N8       1.0000 0.23540  0.80100  0.98160  Biso   1.000  N
  O19      1.0000 0.26210  0.08790  0.17790  Biso   1.000  O
  O20      1.0000 0.34540  0.60430  0.27060  Biso   1.000  O
  O21      1.0000 0.28780  0.30930  0.27510  Biso   1.000  O
  O22      1.0000 0.33160  0.14380  0.34470  Biso   1.000  O
  O23      1.0000 0.22930  0.34930  0.15500  Biso   1.000  O
  O24      1.0000 0.16010  0.39900  0.05410  Biso   1.000  O
  C57      1.0000 0.82770  0.21490  0.82200  Biso   1.000  C
  C58      1.0000 0.95080  0.00760  0.92980  Biso   1.000  C
  C59      1.0000 0.90760  0.11700  0.90250  Biso   1.000  C
  H25      1.0000 0.90120  0.21370  0.92140  Biso   1.000  H
  C60      1.0000 0.74030  0.29690  0.64120  Biso   1.000  C
  C61      1.0000 0.73700  0.49720  0.56120  Biso   1.000  C
  H26      1.0000 0.76380  0.56110  0.58730  Biso   1.000  H
  C62      1.0000 0.67460  0.46090  0.46690  Biso   1.000  C
  H27      1.0000 0.65840  0.50180  0.43010  Biso   1.000  H
  C63      1.0000 0.87310  0.08680  0.84740  Biso   1.000  C
  C64      1.0000 0.71840  0.34780  0.57850  Biso   1.000  C
  C65      1.0000 0.71600  0.55310  0.50480  Biso   1.000  C
  C66      1.0000 0.95680  0.85970  0.90480  Biso   1.000  C
  H28      1.0000 0.98350  0.78140  0.92410  Biso   1.000  H
  C67      1.0000 0.67750  0.24860  0.54040  Biso   1.000  C
  C68      1.0000 0.65630  0.30610  0.48300  Biso   1.000  C
  H29      1.0000 0.63050  0.24170  0.45610  Biso   1.000  H
  C69      1.0000 0.92210  0.82820  0.84990  Biso   1.000  C
  H30      1.0000 0.92860  0.73090  0.83140  Biso   1.000  H
  C70      1.0000 0.87830  0.93630  0.82170  Biso   1.000  C
  Lu5      1.0000 0.75210  0.46307  0.77145  Biso   1.000  Lu
  N9       1.0000 0.98190  0.05170  0.98710  Biso   1.000  N
  N10      1.0000 0.73540  0.69900  0.48160  Biso   1.000  N
  O25      1.0000 0.76210  0.41210  0.67790  Biso   1.000  O
  O26      1.0000 0.84540  0.89570  0.77060  Biso   1.000  O
  O27      1.0000 0.78780  0.19070  0.77510  Biso   1.000  O
  O28      1.0000 0.83160  0.35620  0.84470  Biso   1.000  O
  O29      1.0000 0.72930  0.15070  0.65500  Biso   1.000  O
  O30      1.0000 0.66010  0.10100  0.55410  Biso   1.000  O
  C71      1.0000 0.32770  0.71490  0.82200  Biso   1.000  C
  C72      1.0000 0.45080  0.50760  0.92980  Biso   1.000  C
  C73      1.0000 0.40760  0.61700  0.90250  Biso   1.000  C
  H31      1.0000 0.40120  0.71370  0.92140  Biso   1.000  H
  C74      1.0000 0.24030  0.79690  0.64120  Biso   1.000  C
  C75      1.0000 0.23700  0.99720  0.56120  Biso   1.000  C
  H32      1.0000 0.26380  0.06110  0.58730  Biso   1.000  H
  C76      1.0000 0.17460  0.96090  0.46690  Biso   1.000  C
  H33      1.0000 0.15840  0.00180  0.43010  Biso   1.000  H
  C77      1.0000 0.37310  0.58680  0.84740  Biso   1.000  C
  C78      1.0000 0.21840  0.84780  0.57850  Biso   1.000  C
  C79      1.0000 0.21600  0.05310  0.50480  Biso   1.000  C
  C80      1.0000 0.45680  0.35970  0.90480  Biso   1.000  C
  H34      1.0000 0.48350  0.28140  0.92410  Biso   1.000  H
  C81      1.0000 0.17750  0.74860  0.54040  Biso   1.000  C
  C82      1.0000 0.15630  0.80610  0.48300  Biso   1.000  C
  H35      1.0000 0.13050  0.74170  0.45610  Biso   1.000  H
  C83      1.0000 0.42210  0.32820  0.84990  Biso   1.000  C
  H36      1.0000 0.42860  0.23090  0.83140  Biso   1.000  H
  C84      1.0000 0.37830  0.43630  0.82170  Biso   1.000  C
  Lu6      1.0000 0.25210  0.96307  0.77145  Biso   1.000  Lu
  N11      1.0000 0.48190  0.55170  0.98710  Biso   1.000  N
  N12      1.0000 0.23540  0.19900  0.48160  Biso   1.000  N
  O31      1.0000 0.26210  0.91210  0.67790  Biso   1.000  O
  O32      1.0000 0.34540  0.39570  0.77060  Biso   1.000  O
  O33      1.0000 0.28780  0.69070  0.77510  Biso   1.000  O
  O34      1.0000 0.33160  0.85620  0.84470  Biso   1.000  O
  O35      1.0000 0.22930  0.65070  0.65500  Biso   1.000  O
  O36      1.0000 0.16010  0.60100  0.55410  Biso   1.000  O
  C85      1.0000 0.17230  0.21490  0.67800  Biso   1.000  C
  C86      1.0000 0.04920  0.00760  0.57020  Biso   1.000  C
  C87      1.0000 0.09240  0.11700  0.59750  Biso   1.000  C
  H37      1.0000 0.09880  0.21370  0.57860  Biso   1.000  H
  C88      1.0000 0.25970  0.29690  0.85880  Biso   1.000  C
  C89      1.0000 0.26300  0.49720  0.93880  Biso   1.000  C
  H38      1.0000 0.23620  0.56110  0.91270  Biso   1.000  H
  C90      1.0000 0.32540  0.46090  0.03310  Biso   1.000  C
  H39      1.0000 0.34160  0.50180  0.06990  Biso   1.000  H
  C91      1.0000 0.12690  0.08680  0.65260  Biso   1.000  C
  C92      1.0000 0.28160  0.34780  0.92150  Biso   1.000  C
  C93      1.0000 0.28400  0.55310  0.99520  Biso   1.000  C
  C94      1.0000 0.04320  0.85970  0.59520  Biso   1.000  C
  H40      1.0000 0.01650  0.78140  0.57590  Biso   1.000  H
  C95      1.0000 0.32250  0.24860  0.95960  Biso   1.000  C
  C96      1.0000 0.34370  0.30610  0.01700  Biso   1.000  C
  H41      1.0000 0.36950  0.24170  0.04390  Biso   1.000  H
  C97      1.0000 0.07790  0.82820  0.65010  Biso   1.000  C
  H42      1.0000 0.07140  0.73090  0.66860  Biso   1.000  H
  C98      1.0000 0.12170  0.93630  0.67830  Biso   1.000  C
  Lu7      1.0000 0.24790  0.46307  0.72855  Biso   1.000  Lu
  N13      1.0000 0.01810  0.05170  0.51290  Biso   1.000  N
  N14      1.0000 0.26460  0.69900  0.01840  Biso   1.000  N
  O37      1.0000 0.23790  0.41210  0.82210  Biso   1.000  O
  O38      1.0000 0.15460  0.89570  0.72940  Biso   1.000  O
  O39      1.0000 0.21220  0.19070  0.72490  Biso   1.000  O
  O40      1.0000 0.16840  0.35620  0.65530  Biso   1.000  O
  O41      1.0000 0.27070  0.15070  0.84500  Biso   1.000  O
  O42      1.0000 0.33990  0.10100  0.94590  Biso   1.000  O
  C99      1.0000 0.67230  0.71490  0.67800  Biso   1.000  C
  C100     1.0000 0.54920  0.50760  0.57020  Biso   1.000  C
  C101     1.0000 0.59240  0.61700  0.59750  Biso   1.000  C
  H43      1.0000 0.59880  0.71370  0.57860  Biso   1.000  H
  C102     1.0000 0.75970  0.79690  0.85880  Biso   1.000  C
  C103     1.0000 0.76300  0.99720  0.93880  Biso   1.000  C
  H44      1.0000 0.73620  0.06110  0.91270  Biso   1.000  H
  C104     1.0000 0.82540  0.96090  0.03310  Biso   1.000  C
  H45      1.0000 0.84160  0.00180  0.06990  Biso   1.000  H
  C105     1.0000 0.62690  0.58680  0.65260  Biso   1.000  C
  C106     1.0000 0.78160  0.84780  0.92150  Biso   1.000  C
  C107     1.0000 0.78400  0.05310  0.99520  Biso   1.000  C
  C108     1.0000 0.54320  0.35970  0.59520  Biso   1.000  C
  H46      1.0000 0.51650  0.28140  0.57590  Biso   1.000  H
  C109     1.0000 0.82250  0.74860  0.95960  Biso   1.000  C
  C110     1.0000 0.84370  0.80610  0.01700  Biso   1.000  C
  H47      1.0000 0.86950  0.74170  0.04390  Biso   1.000  H
  C111     1.0000 0.57790  0.32820  0.65010  Biso   1.000  C
  H48      1.0000 0.57140  0.23090  0.66860  Biso   1.000  H
  C112     1.0000 0.62170  0.43630  0.67830  Biso   1.000  C
  Lu8      1.0000 0.74790  0.96307  0.72855  Biso   1.000  Lu
  N15      1.0000 0.51810  0.55170  0.51290  Biso   1.000  N
  N16      1.0000 0.76460  0.19900  0.01840  Biso   1.000  N
  O43      1.0000 0.73790  0.91210  0.82210  Biso   1.000  O
  O44      1.0000 0.65460  0.39570  0.72940  Biso   1.000  O
  O45      1.0000 0.71220  0.69070  0.72490  Biso   1.000  O
  O46      1.0000 0.66840  0.85620  0.65530  Biso   1.000  O
  O47      1.0000 0.77070  0.65070  0.84500  Biso   1.000  O
  O48      1.0000 0.83990  0.60100  0.94590  Biso   1.000  O
