data_HAPVEB_clean
_audit_creation_date              2014-07-02
_audit_creation_method            'Materials Studio'
_symmetry_space_group_name_H-M    'P1'
_symmetry_Int_Tables_number       1
_symmetry_cell_setting            triclinic
loop_
_symmetry_equiv_pos_as_xyz
  x,y,z
_cell_length_a                    11.6280
_cell_length_b                    15.5780
_cell_length_c                    13.0650
_cell_angle_alpha                 90.0000
_cell_angle_beta                  90.0000
_cell_angle_gamma                 90.0000
loop_
_atom_site_label
_atom_site_type_symbol
_atom_site_fract_x
_atom_site_fract_y
_atom_site_fract_z
_atom_site_U_iso_or_equiv
_atom_site_adp_type
_atom_site_occupancy
Nd1    Nd    0.75000   0.71430   0.06014   0.01267  Uiso   1.00
Nd2    Nd    0.25000   0.78570   0.56014   0.01267  Uiso   1.00
Nd3    Nd    0.25000   0.28570   0.93986   0.01267  Uiso   1.00
Nd4    Nd    0.75000   0.21430   0.43986   0.01267  Uiso   1.00
U1     U     0.75000   0.75393   0.34056   0.01267  Uiso   1.00
U2     U     0.25000   0.74607   0.84056   0.01267  Uiso   1.00
U3     U     0.25000   0.24607   0.65944   0.01267  Uiso   1.00
U4     U     0.75000   0.25393   0.15944   0.01267  Uiso   1.00
U5     U     0.00000   0.00000   0.00000   0.01267  Uiso   1.00
U6     U     0.00000   0.50000   0.50000   0.01267  Uiso   1.00
U7     U     0.50000   0.00000   0.00000   0.01267  Uiso   1.00
U8     U     0.50000   0.50000   0.50000   0.01267  Uiso   1.00
C1     C     0.87050   0.76950   0.71700   0.01267  Uiso   1.00
C2     C     0.00120   0.76620   0.71710   0.01267  Uiso   1.00
C3     C     0.81010   0.80940   0.79530   0.01267  Uiso   1.00
C4     C     0.87300   0.85440   0.88110   0.01267  Uiso   1.00
C5     C     0.87480   0.67320   0.56360   0.01267  Uiso   1.00
C6     C     0.80980   0.72860   0.63830   0.01267  Uiso   1.00
C7     C     0.12950   0.73050   0.21700   0.01267  Uiso   1.00
C8     C     0.99880   0.73380   0.21710   0.01267  Uiso   1.00
C9     C     0.18990   0.69060   0.29530   0.01267  Uiso   1.00
C10    C     0.12700   0.64560   0.38110   0.01267  Uiso   1.00
C11    C     0.12520   0.82680   0.06360   0.01267  Uiso   1.00
C12    C     0.19020   0.77140   0.13830   0.01267  Uiso   1.00
C13    C     0.37050   0.23050   0.28300   0.01267  Uiso   1.00
C14    C     0.50120   0.23380   0.28290   0.01267  Uiso   1.00
C15    C     0.31010   0.19060   0.20470   0.01267  Uiso   1.00
C16    C     0.37300   0.14560   0.11890   0.01267  Uiso   1.00
C17    C     0.37480   0.32680   0.43640   0.01267  Uiso   1.00
C18    C     0.30980   0.27140   0.36170   0.01267  Uiso   1.00
C19    C     0.62950   0.26950   0.78300   0.01267  Uiso   1.00
C20    C     0.49880   0.26620   0.78290   0.01267  Uiso   1.00
C21    C     0.68990   0.30940   0.70470   0.01267  Uiso   1.00
C22    C     0.62700   0.35440   0.61890   0.01267  Uiso   1.00
C23    C     0.62520   0.17320   0.93640   0.01267  Uiso   1.00
C24    C     0.69020   0.22860   0.86170   0.01267  Uiso   1.00
C25    C     0.12950   0.23050   0.28300   0.01267  Uiso   1.00
C26    C     0.99880   0.23380   0.28290   0.01267  Uiso   1.00
C27    C     0.18990   0.19060   0.20470   0.01267  Uiso   1.00
C28    C     0.12700   0.14560   0.11890   0.01267  Uiso   1.00
C29    C     0.12520   0.32680   0.43640   0.01267  Uiso   1.00
C30    C     0.19020   0.27140   0.36170   0.01267  Uiso   1.00
C31    C     0.87050   0.26950   0.78300   0.01267  Uiso   1.00
C32    C     0.00120   0.26620   0.78290   0.01267  Uiso   1.00
C33    C     0.81010   0.30940   0.70470   0.01267  Uiso   1.00
C34    C     0.87300   0.35440   0.61890   0.01267  Uiso   1.00
C35    C     0.87480   0.17320   0.93640   0.01267  Uiso   1.00
C36    C     0.80980   0.22860   0.86170   0.01267  Uiso   1.00
C37    C     0.62950   0.76950   0.71700   0.01267  Uiso   1.00
C38    C     0.49880   0.76620   0.71710   0.01267  Uiso   1.00
C39    C     0.68990   0.80940   0.79530   0.01267  Uiso   1.00
C40    C     0.62700   0.85440   0.88110   0.01267  Uiso   1.00
C41    C     0.62520   0.67320   0.56360   0.01267  Uiso   1.00
C42    C     0.69020   0.72860   0.63830   0.01267  Uiso   1.00
C43    C     0.37050   0.73050   0.21700   0.01267  Uiso   1.00
C44    C     0.50120   0.73380   0.21710   0.01267  Uiso   1.00
C45    C     0.31010   0.69060   0.29530   0.01267  Uiso   1.00
C46    C     0.37300   0.64560   0.38110   0.01267  Uiso   1.00
C47    C     0.37480   0.82680   0.06360   0.01267  Uiso   1.00
C48    C     0.30980   0.77140   0.13830   0.01267  Uiso   1.00
O1     O     0.92610   0.92240   0.85780   0.01267  Uiso   1.00
O2     O     0.86950   0.82510   0.96900   0.01267  Uiso   1.00
O3     O     0.93030   0.61280   0.60370   0.01267  Uiso   1.00
O4     O     0.86820   0.68540   0.46990   0.01267  Uiso   1.00
O5     O     0.04700   0.73800   0.79860   0.01267  Uiso   1.00
O6     O     0.05210   0.79110   0.63880   0.01267  Uiso   1.00
O7     O     0.07390   0.57760   0.35780   0.01267  Uiso   1.00
O8     O     0.13050   0.67490   0.46900   0.01267  Uiso   1.00
O9     O     0.06970   0.88720   0.10370   0.01267  Uiso   1.00
O10    O     0.13180   0.81460   0.96990   0.01267  Uiso   1.00
O11    O     0.95300   0.76200   0.29860   0.01267  Uiso   1.00
O12    O     0.94790   0.70890   0.13880   0.01267  Uiso   1.00
O13    O     0.42610   0.07760   0.14220   0.01267  Uiso   1.00
O14    O     0.36950   0.17490   0.03100   0.01267  Uiso   1.00
O15    O     0.43030   0.38720   0.39630   0.01267  Uiso   1.00
O16    O     0.36820   0.31460   0.53010   0.01267  Uiso   1.00
O17    O     0.54700   0.26200   0.20140   0.01267  Uiso   1.00
O18    O     0.55210   0.20890   0.36120   0.01267  Uiso   1.00
O19    O     0.57390   0.42240   0.64220   0.01267  Uiso   1.00
O20    O     0.63050   0.32510   0.53100   0.01267  Uiso   1.00
O21    O     0.56970   0.11280   0.89630   0.01267  Uiso   1.00
O22    O     0.63180   0.18540   0.03010   0.01267  Uiso   1.00
O23    O     0.45300   0.23800   0.70140   0.01267  Uiso   1.00
O24    O     0.44790   0.29110   0.86120   0.01267  Uiso   1.00
O25    O     0.07390   0.07760   0.14220   0.01267  Uiso   1.00
O26    O     0.13050   0.17490   0.03100   0.01267  Uiso   1.00
O27    O     0.06970   0.38720   0.39630   0.01267  Uiso   1.00
O28    O     0.13180   0.31460   0.53010   0.01267  Uiso   1.00
O29    O     0.95300   0.26200   0.20140   0.01267  Uiso   1.00
O30    O     0.94790   0.20890   0.36120   0.01267  Uiso   1.00
O31    O     0.92610   0.42240   0.64220   0.01267  Uiso   1.00
O32    O     0.86950   0.32510   0.53100   0.01267  Uiso   1.00
O33    O     0.93030   0.11280   0.89630   0.01267  Uiso   1.00
O34    O     0.86820   0.18540   0.03010   0.01267  Uiso   1.00
O35    O     0.04700   0.23800   0.70140   0.01267  Uiso   1.00
O36    O     0.05210   0.29110   0.86120   0.01267  Uiso   1.00
O37    O     0.57390   0.92240   0.85780   0.01267  Uiso   1.00
O38    O     0.63050   0.82510   0.96900   0.01267  Uiso   1.00
O39    O     0.56970   0.61280   0.60370   0.01267  Uiso   1.00
O40    O     0.63180   0.68540   0.46990   0.01267  Uiso   1.00
O41    O     0.45300   0.73800   0.79860   0.01267  Uiso   1.00
O42    O     0.44790   0.79110   0.63880   0.01267  Uiso   1.00
O43    O     0.42610   0.57760   0.35780   0.01267  Uiso   1.00
O44    O     0.36950   0.67490   0.46900   0.01267  Uiso   1.00
O45    O     0.43030   0.88720   0.10370   0.01267  Uiso   1.00
O46    O     0.36820   0.81460   0.96990   0.01267  Uiso   1.00
O47    O     0.54700   0.76200   0.29860   0.01267  Uiso   1.00
O48    O     0.55210   0.70890   0.13880   0.01267  Uiso   1.00
O49    O     0.75000   0.65970   0.26370   0.01267  Uiso   1.00
O50    O     0.75000   0.82260   0.18840   0.01267  Uiso   1.00
O51    O     0.25000   0.84030   0.76370   0.01267  Uiso   1.00
O52    O     0.25000   0.67740   0.68840   0.01267  Uiso   1.00
O53    O     0.25000   0.34030   0.73630   0.01267  Uiso   1.00
O54    O     0.25000   0.17740   0.81160   0.01267  Uiso   1.00
O55    O     0.75000   0.15970   0.23630   0.01267  Uiso   1.00
O56    O     0.75000   0.32260   0.31160   0.01267  Uiso   1.00
