data_image0
_cell_length_a       18.616
_cell_length_b       18.616
_cell_length_c       37.566
_cell_angle_alpha    90
_cell_angle_beta     90
_cell_angle_gamma    120

_symmetry_space_group_name_H-M    "P 1"
_symmetry_int_tables_number       1

loop_
  _symmetry_equiv_pos_as_xyz
  'x, y, z'

loop_
  _atom_site_label
  _atom_site_occupancy
  _atom_site_fract_x
  _atom_site_fract_y
  _atom_site_fract_z
  _atom_site_thermal_displace_type
  _atom_site_B_iso_or_equiv
  _atom_site_type_symbol
  Cu1      1.0000 0.52331  0.04654  0.60803  Biso   1.000  Cu
  Cu2      1.0000 0.47677  0.95350  0.66603  Biso   1.000  Cu
  C1       1.0000 0.63620  0.08890  0.66360  Biso   1.000  C
  C2       1.0000 0.80690  0.19630  0.73490  Biso   1.000  C
  C3       1.0000 0.71840  0.15320  0.68310  Biso   1.000  C
  O1       1.0000 0.58600  0.03070  0.68260  Biso   1.000  O
  C4       1.0000 0.84690  0.28050  0.68280  Biso   1.000  C
  C5       1.0000 0.73390  0.13960  0.71720  Biso   1.000  C
  H1       1.0000 0.69521  0.09183  0.72893  Biso   1.000  H
  O2       1.0000 0.62850  0.11090  0.63220  Biso   1.000  O
  C6       1.0000 0.86200  0.26460  0.71670  Biso   1.000  C
  H2       1.0000 0.91173  0.30197  0.72764  Biso   1.000  H
  C7       1.0000 0.77250  0.22530  0.66280  Biso   1.000  C
  H3       1.0000 0.76152  0.23554  0.63979  Biso   1.000  H
  C8       1.0000 0.91090  0.36360  0.66470  Biso   1.000  C
  O3       1.0000 0.88960  0.37100  0.63240  Biso   1.000  O
  O4       1.0000 0.96980  0.41230  0.68210  Biso   1.000  O
  C9       1.0000 0.94780  0.18160  0.92840  Biso   1.000  C
  C10      1.0000 0.88710  0.11030  0.94380  Biso   1.000  C
  H4       1.0000 0.89471  0.10184  0.96761  Biso   1.000  H
  C11      1.0000 0.93230  0.19650  0.89500  Biso   1.000  C
  H5       1.0000 0.97013  0.24751  0.88523  Biso   1.000  H
  C12      1.0000 0.76470  0.97430  0.94580  Biso   1.000  C
  C13      1.0000 0.02370  0.23310  0.94470  Biso   1.000  C
  C14      1.0000 0.80610  0.06480  0.89420  Biso   1.000  C
  H6       1.0000 0.75916  0.02315  0.88294  Biso   1.000  H
  C15      1.0000 0.86170  0.14070  0.87250  Biso   1.000  C
  O5       1.0000 0.03840  0.22280  0.97410  Biso   1.000  O
  O6       1.0000 0.77650  0.96090  0.97460  Biso   1.000  O
  O7       1.0000 0.07370  0.29890  0.92670  Biso   1.000  O
  O8       1.0000 0.70150  0.92350  0.92590  Biso   1.000  O
  C16      1.0000 0.81800  0.05170  0.92820  Biso   1.000  C
  N1       1.0000 0.82050  0.18030  0.76910  Biso   1.000  N
  N2       1.0000 0.84980  0.15140  0.84100  Biso   1.000  N
  C17      1.0000 0.79010  0.09700  0.77990  Biso   1.000  C
  H7       1.0000 0.82496  0.07716  0.76988  Biso   1.000  H
  H8       1.0000 0.73448  0.06273  0.77061  Biso   1.000  H
  C18      1.0000 0.78820  0.08810  0.81820  Biso   1.000  C
  H9       1.0000 0.78900  0.03736  0.82312  Biso   1.000  H
  H10      1.0000 0.73463  0.07897  0.82612  Biso   1.000  H
  C19      1.0000 0.91330  0.21610  0.81920  Biso   1.000  C
  H11      1.0000 0.89105  0.25354  0.82213  Biso   1.000  H
  C20      1.0000 0.00341  0.28700  0.81550  Biso   1.000  C
  H12      1.0000 0.02766  0.30403  0.83871  Biso   1.000  H
  H13      1.0000 0.03456  0.26823  0.80191  Biso   1.000  H
  H14      1.0000 0.00430  0.33305  0.80358  Biso   1.000  H
  C21      1.0000 0.90330  0.21140  0.78110  Biso   1.000  C
  H15      1.0000 0.93762  0.26650  0.77126  Biso   1.000  H
  H16      1.0000 0.92356  0.17630  0.77174  Biso   1.000  H
  Cu3      1.0000 0.18998  0.37987  0.94136  Biso   1.000  Cu
  Cu4      1.0000 0.14344  0.28683  0.99936  Biso   1.000  Cu
  C22      1.0000 0.30287  0.42223  0.99693  Biso   1.000  C
  C23      1.0000 0.47357  0.52963  0.06823  Biso   1.000  C
  C24      1.0000 0.38507  0.48653  0.01643  Biso   1.000  C
  O9       1.0000 0.25267  0.36403  0.01593  Biso   1.000  O
  C25      1.0000 0.51357  0.61383  0.01613  Biso   1.000  C
  C26      1.0000 0.40057  0.47293  0.05053  Biso   1.000  C
  H17      1.0000 0.36188  0.42516  0.06226  Biso   1.000  H
  O10      1.0000 0.29517  0.44423  0.96553  Biso   1.000  O
  C27      1.0000 0.52867  0.59793  0.05003  Biso   1.000  C
  H18      1.0000 0.57840  0.63530  0.06097  Biso   1.000  H
  C28      1.0000 0.43917  0.55863  0.99613  Biso   1.000  C
  H19      1.0000 0.42819  0.56887  0.97312  Biso   1.000  H
  C29      1.0000 0.57757  0.69693  0.99803  Biso   1.000  C
  O11      1.0000 0.55627  0.70433  0.96573  Biso   1.000  O
  O12      1.0000 0.63647  0.74563  0.01543  Biso   1.000  O
  C30      1.0000 0.61447  0.51493  0.26173  Biso   1.000  C
  C31      1.0000 0.55377  0.44363  0.27713  Biso   1.000  C
  H20      1.0000 0.56138  0.43517  0.30094  Biso   1.000  H
  C32      1.0000 0.59897  0.52983  0.22833  Biso   1.000  C
  H21      1.0000 0.63680  0.58084  0.21856  Biso   1.000  H
  C33      1.0000 0.43137  0.30763  0.27913  Biso   1.000  C
  C34      1.0000 0.69037  0.56643  0.27803  Biso   1.000  C
  C35      1.0000 0.47277  0.39813  0.22753  Biso   1.000  C
  H22      1.0000 0.42583  0.35648  0.21627  Biso   1.000  H
  C36      1.0000 0.52837  0.47403  0.20583  Biso   1.000  C
  O13      1.0000 0.70507  0.55613  0.30743  Biso   1.000  O
  O14      1.0000 0.44317  0.29423  0.30793  Biso   1.000  O
  O15      1.0000 0.74037  0.63223  0.26003  Biso   1.000  O
  O16      1.0000 0.36817  0.25683  0.25923  Biso   1.000  O
  C37      1.0000 0.48467  0.38503  0.26153  Biso   1.000  C
  N3       1.0000 0.48717  0.51363  0.10243  Biso   1.000  N
  N4       1.0000 0.51647  0.48473  0.17433  Biso   1.000  N
  C38      1.0000 0.45677  0.43033  0.11323  Biso   1.000  C
  H23      1.0000 0.49163  0.41049  0.10321  Biso   1.000  H
  H24      1.0000 0.40115  0.39606  0.10394  Biso   1.000  H
  C39      1.0000 0.45487  0.42143  0.15153  Biso   1.000  C
  H25      1.0000 0.45567  0.37069  0.15645  Biso   1.000  H
  H26      1.0000 0.40130  0.41230  0.15945  Biso   1.000  H
  C40      1.0000 0.57997  0.54943  0.15253  Biso   1.000  C
  H27      1.0000 0.55772  0.58687  0.15546  Biso   1.000  H
  C41      1.0000 0.67008  0.62033  0.14883  Biso   1.000  C
  H28      1.0000 0.69433  0.63736  0.17204  Biso   1.000  H
  H29      1.0000 0.70123  0.60156  0.13524  Biso   1.000  H
  H30      1.0000 0.67097  0.66638  0.13691  Biso   1.000  H
  C42      1.0000 0.56997  0.54473  0.11443  Biso   1.000  C
  H31      1.0000 0.60429  0.59983  0.10459  Biso   1.000  H
  H32      1.0000 0.59023  0.50963  0.10507  Biso   1.000  H
  Cu5      1.0000 0.85664  0.71321  0.27470  Biso   1.000  Cu
  Cu6      1.0000 0.81010  0.62017  0.33270  Biso   1.000  Cu
  C43      1.0000 0.96953  0.75557  0.33027  Biso   1.000  C
  C44      1.0000 0.14023  0.86297  0.40157  Biso   1.000  C
  C45      1.0000 0.05173  0.81987  0.34977  Biso   1.000  C
  O17      1.0000 0.91933  0.69737  0.34927  Biso   1.000  O
  C46      1.0000 0.18023  0.94717  0.34947  Biso   1.000  C
  C47      1.0000 0.06723  0.80627  0.38387  Biso   1.000  C
  H33      1.0000 0.02854  0.75850  0.39560  Biso   1.000  H
  O18      1.0000 0.96183  0.77757  0.29887  Biso   1.000  O
  C48      1.0000 0.19533  0.93127  0.38337  Biso   1.000  C
  H34      1.0000 0.24506  0.96864  0.39431  Biso   1.000  H
  C49      1.0000 0.10583  0.89197  0.32947  Biso   1.000  C
  H35      1.0000 0.09485  0.90221  0.30646  Biso   1.000  H
  C50      1.0000 0.24423  0.03027  0.33137  Biso   1.000  C
  O19      1.0000 0.22293  0.03767  0.29907  Biso   1.000  O
  O20      1.0000 0.30313  0.07897  0.34877  Biso   1.000  O
  C51      1.0000 0.28113  0.84827  0.59507  Biso   1.000  C
  C52      1.0000 0.22043  0.77697  0.61047  Biso   1.000  C
  H36      1.0000 0.22804  0.76851  0.63428  Biso   1.000  H
  C53      1.0000 0.26563  0.86317  0.56167  Biso   1.000  C
  H37      1.0000 0.30346  0.91418  0.55190  Biso   1.000  H
  C54      1.0000 0.09803  0.64097  0.61247  Biso   1.000  C
  C55      1.0000 0.35703  0.89977  0.61137  Biso   1.000  C
  C56      1.0000 0.13943  0.73147  0.56087  Biso   1.000  C
  H38      1.0000 0.09249  0.68982  0.54961  Biso   1.000  H
  C57      1.0000 0.19503  0.80737  0.53917  Biso   1.000  C
  O21      1.0000 0.37173  0.88947  0.64077  Biso   1.000  O
  O22      1.0000 0.10983  0.62757  0.64127  Biso   1.000  O
  O23      1.0000 0.40703  0.96557  0.59337  Biso   1.000  O
  O24      1.0000 0.03483  0.59017  0.59257  Biso   1.000  O
  C58      1.0000 0.15133  0.71837  0.59487  Biso   1.000  C
  N5       1.0000 0.15383  0.84697  0.43577  Biso   1.000  N
  N6       1.0000 0.18313  0.81807  0.50767  Biso   1.000  N
  C59      1.0000 0.12343  0.76367  0.44657  Biso   1.000  C
  H39      1.0000 0.15829  0.74383  0.43655  Biso   1.000  H
  H40      1.0000 0.06781  0.72940  0.43728  Biso   1.000  H
  C60      1.0000 0.12153  0.75477  0.48487  Biso   1.000  C
  H41      1.0000 0.12233  0.70403  0.48979  Biso   1.000  H
  H42      1.0000 0.06796  0.74564  0.49279  Biso   1.000  H
  C61      1.0000 0.24663  0.88277  0.48587  Biso   1.000  C
  H43      1.0000 0.22438  0.92021  0.48880  Biso   1.000  H
  C62      1.0000 0.33674  0.95367  0.48217  Biso   1.000  C
  H44      1.0000 0.36099  0.97070  0.50538  Biso   1.000  H
  H45      1.0000 0.36789  0.93490  0.46858  Biso   1.000  H
  H46      1.0000 0.33763  0.99972  0.47025  Biso   1.000  H
  C63      1.0000 0.23663  0.87807  0.44777  Biso   1.000  C
  H47      1.0000 0.27095  0.93317  0.43793  Biso   1.000  H
  H48      1.0000 0.25689  0.84297  0.43841  Biso   1.000  H
  Cu7      1.0000 0.95346  0.47677  0.60803  Biso   1.000  Cu
  Cu8      1.0000 0.04650  0.52327  0.66603  Biso   1.000  Cu
  C64      1.0000 0.91110  0.54730  0.66360  Biso   1.000  C
  C65      1.0000 0.80370  0.61060  0.73490  Biso   1.000  C
  C66      1.0000 0.84680  0.56520  0.68310  Biso   1.000  C
  O25      1.0000 0.96930  0.55530  0.68260  Biso   1.000  O
  C67      1.0000 0.71950  0.56640  0.68280  Biso   1.000  C
  C68      1.0000 0.86040  0.59430  0.71720  Biso   1.000  C
  H49      1.0000 0.90817  0.60338  0.72893  Biso   1.000  H
  O26      1.0000 0.88910  0.51760  0.63220  Biso   1.000  O
  C69      1.0000 0.73540  0.59740  0.71670  Biso   1.000  C
  H50      1.0000 0.69803  0.60976  0.72764  Biso   1.000  H
  C70      1.0000 0.77470  0.54720  0.66280  Biso   1.000  C
  H51      1.0000 0.76446  0.52598  0.63979  Biso   1.000  H
  C71      1.0000 0.63640  0.54730  0.66470  Biso   1.000  C
  O27      1.0000 0.62900  0.51860  0.63240  Biso   1.000  O
  O28      1.0000 0.58770  0.55750  0.68210  Biso   1.000  O
  C72      1.0000 0.81840  0.76620  0.92840  Biso   1.000  C
  C73      1.0000 0.88970  0.77680  0.94380  Biso   1.000  C
  H52      1.0000 0.89816  0.79287  0.96761  Biso   1.000  H
  C74      1.0000 0.80350  0.73580  0.89500  Biso   1.000  C
  H53      1.0000 0.75249  0.72262  0.88523  Biso   1.000  H
  C75      1.0000 0.02570  0.79040  0.94580  Biso   1.000  C
  C76      1.0000 0.76690  0.79060  0.94470  Biso   1.000  C
  C77      1.0000 0.93520  0.74130  0.89420  Biso   1.000  C
  H54      1.0000 0.97685  0.73601  0.88294  Biso   1.000  H
  C78      1.0000 0.85930  0.72100  0.87250  Biso   1.000  C
  O29      1.0000 0.77720  0.81560  0.97410  Biso   1.000  O
  O30      1.0000 0.03910  0.81560  0.97460  Biso   1.000  O
  O31      1.0000 0.70110  0.77480  0.92670  Biso   1.000  O
  O32      1.0000 0.07650  0.77800  0.92590  Biso   1.000  O
  C79      1.0000 0.94830  0.76630  0.92820  Biso   1.000  C
  N7       1.0000 0.81970  0.64020  0.76910  Biso   1.000  N
  N8       1.0000 0.84860  0.69840  0.84100  Biso   1.000  N
  C80      1.0000 0.90300  0.69310  0.77990  Biso   1.000  C
  H55      1.0000 0.92284  0.74780  0.76988  Biso   1.000  H
  H56      1.0000 0.93727  0.67175  0.77061  Biso   1.000  H
  C81      1.0000 0.91190  0.70010  0.81820  Biso   1.000  C
  H57      1.0000 0.96264  0.75164  0.82312  Biso   1.000  H
  H58      1.0000 0.92103  0.65566  0.82612  Biso   1.000  H
  C82      1.0000 0.78390  0.69720  0.81920  Biso   1.000  C
  H59      1.0000 0.74646  0.63751  0.82213  Biso   1.000  H
  C83      1.0000 0.71300  0.71641  0.81550  Biso   1.000  C
  H60      1.0000 0.69597  0.72363  0.83871  Biso   1.000  H
  H61      1.0000 0.73177  0.76633  0.80191  Biso   1.000  H
  H62      1.0000 0.66695  0.67125  0.80358  Biso   1.000  H
  C84      1.0000 0.78860  0.69190  0.78110  Biso   1.000  C
  H63      1.0000 0.73350  0.67112  0.77126  Biso   1.000  H
  H64      1.0000 0.82370  0.74726  0.77174  Biso   1.000  H
  Cu9      1.0000 0.62013  0.81010  0.94136  Biso   1.000  Cu
  Cu10     1.0000 0.71317  0.85660  0.99936  Biso   1.000  Cu
  C85      1.0000 0.57777  0.88063  0.99693  Biso   1.000  C
  C86      1.0000 0.47037  0.94393  0.06823  Biso   1.000  C
  C87      1.0000 0.51347  0.89853  0.01643  Biso   1.000  C
  O33      1.0000 0.63597  0.88863  0.01593  Biso   1.000  O
  C88      1.0000 0.38617  0.89973  0.01613  Biso   1.000  C
  C89      1.0000 0.52707  0.92763  0.05053  Biso   1.000  C
  H65      1.0000 0.57484  0.93671  0.06226  Biso   1.000  H
  O34      1.0000 0.55577  0.85093  0.96553  Biso   1.000  O
  C90      1.0000 0.40207  0.93073  0.05003  Biso   1.000  C
  H66      1.0000 0.36470  0.94309  0.06097  Biso   1.000  H
  C91      1.0000 0.44137  0.88053  0.99613  Biso   1.000  C
  H67      1.0000 0.43113  0.85931  0.97312  Biso   1.000  H
  C92      1.0000 0.30307  0.88063  0.99803  Biso   1.000  C
  O35      1.0000 0.29567  0.85193  0.96573  Biso   1.000  O
  O36      1.0000 0.25437  0.89083  0.01543  Biso   1.000  O
  C93      1.0000 0.48507  0.09953  0.26173  Biso   1.000  C
  C94      1.0000 0.55637  0.11013  0.27713  Biso   1.000  C
  H68      1.0000 0.56483  0.12620  0.30094  Biso   1.000  H
  C95      1.0000 0.47017  0.06913  0.22833  Biso   1.000  C
  H69      1.0000 0.41916  0.05595  0.21856  Biso   1.000  H
  C96      1.0000 0.69237  0.12373  0.27913  Biso   1.000  C
  C97      1.0000 0.43357  0.12393  0.27803  Biso   1.000  C
  C98      1.0000 0.60187  0.07463  0.22753  Biso   1.000  C
  H70      1.0000 0.64352  0.06934  0.21627  Biso   1.000  H
  C99      1.0000 0.52597  0.05433  0.20583  Biso   1.000  C
  O37      1.0000 0.44387  0.14893  0.30743  Biso   1.000  O
  O38      1.0000 0.70577  0.14893  0.30793  Biso   1.000  O
  O39      1.0000 0.36777  0.10813  0.26003  Biso   1.000  O
  O40      1.0000 0.74317  0.11133  0.25923  Biso   1.000  O
  C100     1.0000 0.61497  0.09963  0.26153  Biso   1.000  C
  N9       1.0000 0.48637  0.97353  0.10243  Biso   1.000  N
  N10      1.0000 0.51527  0.03173  0.17433  Biso   1.000  N
  C101     1.0000 0.56967  0.02643  0.11323  Biso   1.000  C
  H71      1.0000 0.58951  0.08113  0.10321  Biso   1.000  H
  H72      1.0000 0.60394  0.00508  0.10394  Biso   1.000  H
  C102     1.0000 0.57857  0.03343  0.15153  Biso   1.000  C
  H73      1.0000 0.62931  0.08497  0.15645  Biso   1.000  H
  H74      1.0000 0.58770  0.98899  0.15945  Biso   1.000  H
  C103     1.0000 0.45057  0.03053  0.15253  Biso   1.000  C
  H75      1.0000 0.41313  0.97084  0.15546  Biso   1.000  H
  C104     1.0000 0.37967  0.04974  0.14883  Biso   1.000  C
  H76      1.0000 0.36264  0.05696  0.17204  Biso   1.000  H
  H77      1.0000 0.39844  0.09966  0.13524  Biso   1.000  H
  H78      1.0000 0.33362  0.00458  0.13691  Biso   1.000  H
  C105     1.0000 0.45527  0.02523  0.11443  Biso   1.000  C
  H79      1.0000 0.40017  0.00445  0.10459  Biso   1.000  H
  H80      1.0000 0.49037  0.08059  0.10507  Biso   1.000  H
  Cu11     1.0000 0.28679  0.14344  0.27470  Biso   1.000  Cu
  Cu12     1.0000 0.37983  0.18994  0.33270  Biso   1.000  Cu
  C106     1.0000 0.24443  0.21397  0.33027  Biso   1.000  C
  C107     1.0000 0.13703  0.27727  0.40157  Biso   1.000  C
  C108     1.0000 0.18013  0.23187  0.34977  Biso   1.000  C
  O41      1.0000 0.30263  0.22197  0.34927  Biso   1.000  O
  C109     1.0000 0.05283  0.23307  0.34947  Biso   1.000  C
  C110     1.0000 0.19373  0.26097  0.38387  Biso   1.000  C
  H81      1.0000 0.24150  0.27005  0.39560  Biso   1.000  H
  O42      1.0000 0.22243  0.18427  0.29887  Biso   1.000  O
  C111     1.0000 0.06873  0.26407  0.38337  Biso   1.000  C
  H82      1.0000 0.03136  0.27643  0.39431  Biso   1.000  H
  C112     1.0000 0.10803  0.21387  0.32947  Biso   1.000  C
  H83      1.0000 0.09779  0.19265  0.30646  Biso   1.000  H
  C113     1.0000 0.96973  0.21397  0.33137  Biso   1.000  C
  O43      1.0000 0.96233  0.18527  0.29907  Biso   1.000  O
  O44      1.0000 0.92103  0.22417  0.34877  Biso   1.000  O
  C114     1.0000 0.15173  0.43287  0.59507  Biso   1.000  C
  C115     1.0000 0.22303  0.44347  0.61047  Biso   1.000  C
  H84      1.0000 0.23149  0.45954  0.63428  Biso   1.000  H
  C116     1.0000 0.13683  0.40247  0.56167  Biso   1.000  C
  H85      1.0000 0.08582  0.38929  0.55190  Biso   1.000  H
  C117     1.0000 0.35903  0.45707  0.61247  Biso   1.000  C
  C118     1.0000 0.10023  0.45727  0.61137  Biso   1.000  C
  C119     1.0000 0.26853  0.40797  0.56087  Biso   1.000  C
  H86      1.0000 0.31018  0.40268  0.54961  Biso   1.000  H
  C120     1.0000 0.19263  0.38767  0.53917  Biso   1.000  C
  O45      1.0000 0.11053  0.48227  0.64077  Biso   1.000  O
  O46      1.0000 0.37243  0.48227  0.64127  Biso   1.000  O
  O47      1.0000 0.03443  0.44147  0.59337  Biso   1.000  O
  O48      1.0000 0.40983  0.44467  0.59257  Biso   1.000  O
  C121     1.0000 0.28163  0.43297  0.59487  Biso   1.000  C
  N11      1.0000 0.15303  0.30687  0.43577  Biso   1.000  N
  N12      1.0000 0.18193  0.36507  0.50767  Biso   1.000  N
  C122     1.0000 0.23633  0.35977  0.44657  Biso   1.000  C
  H87      1.0000 0.25617  0.41447  0.43655  Biso   1.000  H
  H88      1.0000 0.27060  0.33842  0.43728  Biso   1.000  H
  C123     1.0000 0.24523  0.36677  0.48487  Biso   1.000  C
  H89      1.0000 0.29597  0.41831  0.48979  Biso   1.000  H
  H90      1.0000 0.25436  0.32233  0.49279  Biso   1.000  H
  C124     1.0000 0.11723  0.36387  0.48587  Biso   1.000  C
  H91      1.0000 0.07979  0.30418  0.48880  Biso   1.000  H
  C125     1.0000 0.04633  0.38308  0.48217  Biso   1.000  C
  H92      1.0000 0.02930  0.39030  0.50538  Biso   1.000  H
  H93      1.0000 0.06510  0.43300  0.46858  Biso   1.000  H
  H94      1.0000 0.00028  0.33792  0.47025  Biso   1.000  H
  C126     1.0000 0.12193  0.35857  0.44777  Biso   1.000  C
  H95      1.0000 0.06683  0.33779  0.43793  Biso   1.000  H
  H96      1.0000 0.15703  0.41393  0.43841  Biso   1.000  H
  Cu13     1.0000 0.52323  0.47669  0.60803  Biso   1.000  Cu
  Cu14     1.0000 0.47673  0.52323  0.66603  Biso   1.000  Cu
  C127     1.0000 0.45270  0.36380  0.66360  Biso   1.000  C
  C128     1.0000 0.38940  0.19310  0.73490  Biso   1.000  C
  C129     1.0000 0.43480  0.28160  0.68310  Biso   1.000  C
  O49      1.0000 0.44470  0.41400  0.68260  Biso   1.000  O
  C130     1.0000 0.43360  0.15310  0.68280  Biso   1.000  C
  C131     1.0000 0.40570  0.26610  0.71720  Biso   1.000  C
  H97      1.0000 0.39662  0.30479  0.72893  Biso   1.000  H
  O50      1.0000 0.48240  0.37150  0.63220  Biso   1.000  O
  C132     1.0000 0.40260  0.13800  0.71670  Biso   1.000  C
  H98      1.0000 0.39024  0.08827  0.72764  Biso   1.000  H
  C133     1.0000 0.45280  0.22750  0.66280  Biso   1.000  C
  H99      1.0000 0.47402  0.23848  0.63979  Biso   1.000  H
  C134     1.0000 0.45270  0.08910  0.66470  Biso   1.000  C
  O51      1.0000 0.48140  0.11040  0.63240  Biso   1.000  O
  O52      1.0000 0.44250  0.03020  0.68210  Biso   1.000  O
  C135     1.0000 0.23380  0.05220  0.92840  Biso   1.000  C
  C136     1.0000 0.22320  0.11290  0.94380  Biso   1.000  C
  H100     1.0000 0.20713  0.10529  0.96761  Biso   1.000  H
  C137     1.0000 0.26420  0.06770  0.89500  Biso   1.000  C
  H101     1.0000 0.27738  0.02987  0.88523  Biso   1.000  H
  C138     1.0000 0.20960  0.23530  0.94580  Biso   1.000  C
  C139     1.0000 0.20940  0.97630  0.94470  Biso   1.000  C
  C140     1.0000 0.25870  0.19390  0.89420  Biso   1.000  C
  H102     1.0000 0.26399  0.24084  0.88294  Biso   1.000  H
  C141     1.0000 0.27900  0.13830  0.87250  Biso   1.000  C
  O53      1.0000 0.18440  0.96160  0.97410  Biso   1.000  O
  O54      1.0000 0.18440  0.22350  0.97460  Biso   1.000  O
  O55      1.0000 0.22520  0.92630  0.92670  Biso   1.000  O
  O56      1.0000 0.22200  0.29850  0.92590  Biso   1.000  O
  C142     1.0000 0.23370  0.18200  0.92820  Biso   1.000  C
  N13      1.0000 0.35980  0.17950  0.76910  Biso   1.000  N
  N14      1.0000 0.30160  0.15020  0.84100  Biso   1.000  N
  C143     1.0000 0.30690  0.20990  0.77990  Biso   1.000  C
  H103     1.0000 0.25220  0.17504  0.76988  Biso   1.000  H
  H104     1.0000 0.32825  0.26552  0.77061  Biso   1.000  H
  C144     1.0000 0.29990  0.21180  0.81820  Biso   1.000  C
  H105     1.0000 0.24836  0.21100  0.82312  Biso   1.000  H
  H106     1.0000 0.34434  0.26537  0.82612  Biso   1.000  H
  C145     1.0000 0.30280  0.08670  0.81920  Biso   1.000  C
  H107     1.0000 0.36249  0.10895  0.82213  Biso   1.000  H
  C146     1.0000 0.28359  0.99659  0.81550  Biso   1.000  C
  H108     1.0000 0.27637  0.97234  0.83871  Biso   1.000  H
  H109     1.0000 0.23367  0.96544  0.80191  Biso   1.000  H
  H110     1.0000 0.32875  0.99570  0.80358  Biso   1.000  H
  C147     1.0000 0.30810  0.09670  0.78110  Biso   1.000  C
  H111     1.0000 0.32888  0.06238  0.77126  Biso   1.000  H
  H112     1.0000 0.25274  0.07644  0.77174  Biso   1.000  H
  Cu15     1.0000 0.18990  0.81002  0.94136  Biso   1.000  Cu
  Cu16     1.0000 0.14340  0.85656  0.99936  Biso   1.000  Cu
  C148     1.0000 0.11937  0.69713  0.99693  Biso   1.000  C
  C149     1.0000 0.05607  0.52643  0.06823  Biso   1.000  C
  C150     1.0000 0.10147  0.61493  0.01643  Biso   1.000  C
  O57      1.0000 0.11137  0.74733  0.01593  Biso   1.000  O
  C151     1.0000 0.10027  0.48643  0.01613  Biso   1.000  C
  C152     1.0000 0.07237  0.59943  0.05053  Biso   1.000  C
  H113     1.0000 0.06329  0.63812  0.06226  Biso   1.000  H
  O58      1.0000 0.14907  0.70483  0.96553  Biso   1.000  O
  C153     1.0000 0.06927  0.47133  0.05003  Biso   1.000  C
  H114     1.0000 0.05691  0.42160  0.06097  Biso   1.000  H
  C154     1.0000 0.11947  0.56083  0.99613  Biso   1.000  C
  H115     1.0000 0.14069  0.57181  0.97312  Biso   1.000  H
  C155     1.0000 0.11937  0.42243  0.99803  Biso   1.000  C
  O59      1.0000 0.14807  0.44373  0.96573  Biso   1.000  O
  O60      1.0000 0.10917  0.36353  0.01543  Biso   1.000  O
  C156     1.0000 0.90047  0.38553  0.26173  Biso   1.000  C
  C157     1.0000 0.88987  0.44623  0.27713  Biso   1.000  C
  H116     1.0000 0.87380  0.43862  0.30094  Biso   1.000  H
  C158     1.0000 0.93087  0.40103  0.22833  Biso   1.000  C
  H117     1.0000 0.94405  0.36320  0.21856  Biso   1.000  H
  C159     1.0000 0.87627  0.56863  0.27913  Biso   1.000  C
  C160     1.0000 0.87607  0.30963  0.27803  Biso   1.000  C
  C161     1.0000 0.92537  0.52723  0.22753  Biso   1.000  C
  H118     1.0000 0.93066  0.57417  0.21627  Biso   1.000  H
  C162     1.0000 0.94567  0.47163  0.20583  Biso   1.000  C
  O61      1.0000 0.85107  0.29493  0.30743  Biso   1.000  O
  O62      1.0000 0.85107  0.55683  0.30793  Biso   1.000  O
  O63      1.0000 0.89187  0.25963  0.26003  Biso   1.000  O
  O64      1.0000 0.88867  0.63183  0.25923  Biso   1.000  O
  C163     1.0000 0.90037  0.51533  0.26153  Biso   1.000  C
  N15      1.0000 0.02647  0.51283  0.10243  Biso   1.000  N
  N16      1.0000 0.96827  0.48353  0.17433  Biso   1.000  N
  C164     1.0000 0.97357  0.54323  0.11323  Biso   1.000  C
  H119     1.0000 0.91887  0.50837  0.10321  Biso   1.000  H
  H120     1.0000 0.99492  0.59885  0.10394  Biso   1.000  H
  C165     1.0000 0.96657  0.54513  0.15153  Biso   1.000  C
  H121     1.0000 0.91503  0.54433  0.15645  Biso   1.000  H
  H122     1.0000 0.01101  0.59870  0.15945  Biso   1.000  H
  C166     1.0000 0.96947  0.42003  0.15253  Biso   1.000  C
  H123     1.0000 0.02916  0.44228  0.15546  Biso   1.000  H
  C167     1.0000 0.95026  0.32992  0.14883  Biso   1.000  C
  H124     1.0000 0.94304  0.30567  0.17204  Biso   1.000  H
  H125     1.0000 0.90034  0.29877  0.13524  Biso   1.000  H
  H126     1.0000 0.99542  0.32903  0.13691  Biso   1.000  H
  C168     1.0000 0.97477  0.43003  0.11443  Biso   1.000  C
  H127     1.0000 0.99555  0.39571  0.10459  Biso   1.000  H
  H128     1.0000 0.91941  0.40977  0.10507  Biso   1.000  H
  Cu17     1.0000 0.85656  0.14336  0.27470  Biso   1.000  Cu
  Cu18     1.0000 0.81006  0.18990  0.33270  Biso   1.000  Cu
  C169     1.0000 0.78603  0.03047  0.33027  Biso   1.000  C
  C170     1.0000 0.72273  0.85977  0.40157  Biso   1.000  C
  C171     1.0000 0.76813  0.94827  0.34977  Biso   1.000  C
  O65      1.0000 0.77803  0.08067  0.34927  Biso   1.000  O
  C172     1.0000 0.76693  0.81977  0.34947  Biso   1.000  C
  C173     1.0000 0.73903  0.93277  0.38387  Biso   1.000  C
  H129     1.0000 0.72995  0.97146  0.39560  Biso   1.000  H
  O66      1.0000 0.81573  0.03817  0.29887  Biso   1.000  O
  C174     1.0000 0.73593  0.80467  0.38337  Biso   1.000  C
  H130     1.0000 0.72357  0.75494  0.39431  Biso   1.000  H
  C175     1.0000 0.78613  0.89417  0.32947  Biso   1.000  C
  H131     1.0000 0.80735  0.90515  0.30646  Biso   1.000  H
  C176     1.0000 0.78603  0.75577  0.33137  Biso   1.000  C
  O67      1.0000 0.81473  0.77707  0.29907  Biso   1.000  O
  O68      1.0000 0.77583  0.69687  0.34877  Biso   1.000  O
  C177     1.0000 0.56713  0.71887  0.59507  Biso   1.000  C
  C178     1.0000 0.55653  0.77957  0.61047  Biso   1.000  C
  H132     1.0000 0.54046  0.77196  0.63428  Biso   1.000  H
  C179     1.0000 0.59753  0.73437  0.56167  Biso   1.000  C
  H133     1.0000 0.61071  0.69654  0.55190  Biso   1.000  H
  C180     1.0000 0.54293  0.90197  0.61247  Biso   1.000  C
  C181     1.0000 0.54273  0.64297  0.61137  Biso   1.000  C
  C182     1.0000 0.59203  0.86057  0.56087  Biso   1.000  C
  H134     1.0000 0.59732  0.90751  0.54961  Biso   1.000  H
  C183     1.0000 0.61233  0.80497  0.53917  Biso   1.000  C
  O69      1.0000 0.51773  0.62827  0.64077  Biso   1.000  O
  O70      1.0000 0.51773  0.89017  0.64127  Biso   1.000  O
  O71      1.0000 0.55853  0.59297  0.59337  Biso   1.000  O
  O72      1.0000 0.55533  0.96517  0.59257  Biso   1.000  O
  C184     1.0000 0.56703  0.84867  0.59487  Biso   1.000  C
  N17      1.0000 0.69313  0.84617  0.43577  Biso   1.000  N
  N18      1.0000 0.63493  0.81687  0.50767  Biso   1.000  N
  C185     1.0000 0.64023  0.87657  0.44657  Biso   1.000  C
  H135     1.0000 0.58553  0.84171  0.43655  Biso   1.000  H
  H136     1.0000 0.66158  0.93219  0.43728  Biso   1.000  H
  C186     1.0000 0.63323  0.87847  0.48487  Biso   1.000  C
  H137     1.0000 0.58169  0.87767  0.48979  Biso   1.000  H
  H138     1.0000 0.67767  0.93204  0.49279  Biso   1.000  H
  C187     1.0000 0.63613  0.75337  0.48587  Biso   1.000  C
  H139     1.0000 0.69582  0.77562  0.48880  Biso   1.000  H
  C188     1.0000 0.61692  0.66326  0.48217  Biso   1.000  C
  H140     1.0000 0.60970  0.63901  0.50538  Biso   1.000  H
  H141     1.0000 0.56700  0.63211  0.46858  Biso   1.000  H
  H142     1.0000 0.66208  0.66237  0.47025  Biso   1.000  H
  C189     1.0000 0.64143  0.76337  0.44777  Biso   1.000  C
  H143     1.0000 0.66221  0.72905  0.43793  Biso   1.000  H
  H144     1.0000 0.58607  0.74311  0.43841  Biso   1.000  H
