data_image0
_cell_length_a       10.923
_cell_length_b       15.424
_cell_length_c       15.037
_cell_angle_alpha    90
_cell_angle_beta     105.67
_cell_angle_gamma    90

_symmetry_space_group_name_H-M    "P 1"
_symmetry_int_tables_number       1

loop_
  _symmetry_equiv_pos_as_xyz
  'x, y, z'

loop_
  _atom_site_label
  _atom_site_occupancy
  _atom_site_fract_x
  _atom_site_fract_y
  _atom_site_fract_z
  _atom_site_thermal_displace_type
  _atom_site_B_iso_or_equiv
  _atom_site_type_symbol
  Bi1      1.0000 0.52917  0.34960  0.03254  Biso   1.000  Bi
  Bi2      1.0000 0.04259  0.53525  0.15542  Biso   1.000  Bi
  K1       1.0000 0.78100  0.19070  0.72540  Biso   1.000  K
  O1       1.0000 0.02600  0.37600  0.15900  Biso   1.000  O
  O2       1.0000 0.92100  0.43800  0.02900  Biso   1.000  O
  O3       1.0000 0.52000  0.21300  0.94700  Biso   1.000  O
  O4       1.0000 0.57300  0.08000  0.92100  Biso   1.000  O
  O5       1.0000 0.62700  0.38400  0.91700  Biso   1.000  O
  O6       1.0000 0.76400  0.32100  0.85200  Biso   1.000  O
  O7       1.0000 0.71800  0.30300  0.07900  Biso   1.000  O
  O8       1.0000 0.61800  0.49800  0.07900  Biso   1.000  O
  O9       1.0000 0.60400  0.40700  0.18800  Biso   1.000  O
  O10      1.0000 0.03600  0.74600  0.36600  Biso   1.000  O
  O11      1.0000 0.06700  0.65800  0.26100  Biso   1.000  O
  O12      1.0000 0.87300  0.62000  0.08400  Biso   1.000  O
  O13      1.0000 0.72200  0.69500  0.12300  Biso   1.000  O
  O14      1.0000 0.90000  0.50730  0.22240  Biso   1.000  O
  C1       1.0000 0.95800  0.37200  0.08000  Biso   1.000  C
  C2       1.0000 0.91600  0.28200  0.04200  Biso   1.000  C
  C3       1.0000 0.77100  0.27600  0.00800  Biso   1.000  C
  C4       1.0000 0.74100  0.17800  0.98500  Biso   1.000  C
  C5       1.0000 0.60400  0.15600  0.95000  Biso   1.000  C
  C6       1.0000 0.72200  0.33000  0.92300  Biso   1.000  C
  C7       1.0000 0.63600  0.48100  0.16200  Biso   1.000  C
  C8       1.0000 0.69300  0.54900  0.23500  Biso   1.000  C
  C9       1.0000 0.82200  0.58100  0.22700  Biso   1.000  C
  C10      1.0000 0.87900  0.63600  0.31200  Biso   1.000  C
  C11      1.0000 0.00000  0.68400  0.31200  Biso   1.000  C
  C12      1.0000 0.80300  0.63600  0.13800  Biso   1.000  C
  Bi3      1.0000 0.97083  0.84960  0.46746  Biso   1.000  Bi
  Bi4      1.0000 0.45741  0.03525  0.34458  Biso   1.000  Bi
  K2       1.0000 0.71900  0.69070  0.77460  Biso   1.000  K
  O15      1.0000 0.47400  0.87600  0.34100  Biso   1.000  O
  O16      1.0000 0.57900  0.93800  0.47100  Biso   1.000  O
  O17      1.0000 0.98000  0.71300  0.55300  Biso   1.000  O
  O18      1.0000 0.92700  0.58000  0.57900  Biso   1.000  O
  O19      1.0000 0.87300  0.88400  0.58300  Biso   1.000  O
  O20      1.0000 0.73600  0.82100  0.64800  Biso   1.000  O
  O21      1.0000 0.78200  0.80300  0.42100  Biso   1.000  O
  O22      1.0000 0.88200  0.99800  0.42100  Biso   1.000  O
  O23      1.0000 0.89600  0.90700  0.31200  Biso   1.000  O
  O24      1.0000 0.46400  0.24600  0.13400  Biso   1.000  O
  O25      1.0000 0.43300  0.15800  0.23900  Biso   1.000  O
  O26      1.0000 0.62700  0.12000  0.41600  Biso   1.000  O
  O27      1.0000 0.77800  0.19500  0.37700  Biso   1.000  O
  O28      1.0000 0.60000  0.00730  0.27760  Biso   1.000  O
  C13      1.0000 0.54200  0.87200  0.42000  Biso   1.000  C
  C14      1.0000 0.58400  0.78200  0.45800  Biso   1.000  C
  C15      1.0000 0.72900  0.77600  0.49200  Biso   1.000  C
  C16      1.0000 0.75900  0.67800  0.51500  Biso   1.000  C
  C17      1.0000 0.89600  0.65600  0.55000  Biso   1.000  C
  C18      1.0000 0.77800  0.83000  0.57700  Biso   1.000  C
  C19      1.0000 0.86400  0.98100  0.33800  Biso   1.000  C
  C20      1.0000 0.80700  0.04900  0.26500  Biso   1.000  C
  C21      1.0000 0.67800  0.08100  0.27300  Biso   1.000  C
  C22      1.0000 0.62100  0.13600  0.18800  Biso   1.000  C
  C23      1.0000 0.50000  0.18400  0.18800  Biso   1.000  C
  C24      1.0000 0.69700  0.13600  0.36200  Biso   1.000  C
  Bi5      1.0000 0.47083  0.65040  0.96746  Biso   1.000  Bi
  Bi6      1.0000 0.95741  0.46475  0.84458  Biso   1.000  Bi
  K3       1.0000 0.21900  0.80930  0.27460  Biso   1.000  K
  O29      1.0000 0.97400  0.62400  0.84100  Biso   1.000  O
  O30      1.0000 0.07900  0.56200  0.97100  Biso   1.000  O
  O31      1.0000 0.48000  0.78700  0.05300  Biso   1.000  O
  O32      1.0000 0.42700  0.92000  0.07900  Biso   1.000  O
  O33      1.0000 0.37300  0.61600  0.08300  Biso   1.000  O
  O34      1.0000 0.23600  0.67900  0.14800  Biso   1.000  O
  O35      1.0000 0.28200  0.69700  0.92100  Biso   1.000  O
  O36      1.0000 0.38200  0.50200  0.92100  Biso   1.000  O
  O37      1.0000 0.39600  0.59300  0.81200  Biso   1.000  O
  O38      1.0000 0.96400  0.25400  0.63400  Biso   1.000  O
  O39      1.0000 0.93300  0.34200  0.73900  Biso   1.000  O
  O40      1.0000 0.12700  0.38000  0.91600  Biso   1.000  O
  O41      1.0000 0.27800  0.30500  0.87700  Biso   1.000  O
  O42      1.0000 0.10000  0.49270  0.77760  Biso   1.000  O
  C25      1.0000 0.04200  0.62800  0.92000  Biso   1.000  C
  C26      1.0000 0.08400  0.71800  0.95800  Biso   1.000  C
  C27      1.0000 0.22900  0.72400  0.99200  Biso   1.000  C
  C28      1.0000 0.25900  0.82200  0.01500  Biso   1.000  C
  C29      1.0000 0.39600  0.84400  0.05000  Biso   1.000  C
  C30      1.0000 0.27800  0.67000  0.07700  Biso   1.000  C
  C31      1.0000 0.36400  0.51900  0.83800  Biso   1.000  C
  C32      1.0000 0.30700  0.45100  0.76500  Biso   1.000  C
  C33      1.0000 0.17800  0.41900  0.77300  Biso   1.000  C
  C34      1.0000 0.12100  0.36400  0.68800  Biso   1.000  C
  C35      1.0000 0.00000  0.31600  0.68800  Biso   1.000  C
  C36      1.0000 0.19700  0.36400  0.86200  Biso   1.000  C
  Bi7      1.0000 0.02917  0.15040  0.53254  Biso   1.000  Bi
  Bi8      1.0000 0.54259  0.96475  0.65542  Biso   1.000  Bi
  K4       1.0000 0.28100  0.30930  0.22540  Biso   1.000  K
  O43      1.0000 0.52600  0.12400  0.65900  Biso   1.000  O
  O44      1.0000 0.42100  0.06200  0.52900  Biso   1.000  O
  O45      1.0000 0.02000  0.28700  0.44700  Biso   1.000  O
  O46      1.0000 0.07300  0.42000  0.42100  Biso   1.000  O
  O47      1.0000 0.12700  0.11600  0.41700  Biso   1.000  O
  O48      1.0000 0.26400  0.17900  0.35200  Biso   1.000  O
  O49      1.0000 0.21800  0.19700  0.57900  Biso   1.000  O
  O50      1.0000 0.11800  0.00200  0.57900  Biso   1.000  O
  O51      1.0000 0.10400  0.09300  0.68800  Biso   1.000  O
  O52      1.0000 0.53600  0.75400  0.86600  Biso   1.000  O
  O53      1.0000 0.56700  0.84200  0.76100  Biso   1.000  O
  O54      1.0000 0.37300  0.88000  0.58400  Biso   1.000  O
  O55      1.0000 0.22200  0.80500  0.62300  Biso   1.000  O
  O56      1.0000 0.40000  0.99270  0.72240  Biso   1.000  O
  C37      1.0000 0.45800  0.12800  0.58000  Biso   1.000  C
  C38      1.0000 0.41600  0.21800  0.54200  Biso   1.000  C
  C39      1.0000 0.27100  0.22400  0.50800  Biso   1.000  C
  C40      1.0000 0.24100  0.32200  0.48500  Biso   1.000  C
  C41      1.0000 0.10400  0.34400  0.45000  Biso   1.000  C
  C42      1.0000 0.22200  0.17000  0.42300  Biso   1.000  C
  C43      1.0000 0.13600  0.01900  0.66200  Biso   1.000  C
  C44      1.0000 0.19300  0.95100  0.73500  Biso   1.000  C
  C45      1.0000 0.32200  0.91900  0.72700  Biso   1.000  C
  C46      1.0000 0.37900  0.86400  0.81200  Biso   1.000  C
  C47      1.0000 0.50000  0.81600  0.81200  Biso   1.000  C
  C48      1.0000 0.30300  0.86400  0.63800  Biso   1.000  C
