data_HASMIZ_clean
_audit_creation_date              2014-07-02
_audit_creation_method            'Materials Studio'
_symmetry_space_group_name_H-M    'P1'
_symmetry_Int_Tables_number       1
_symmetry_cell_setting            triclinic
loop_
_symmetry_equiv_pos_as_xyz
  x,y,z
_cell_length_a                    11.3737
_cell_length_b                    17.6013
_cell_length_c                    17.9058
_cell_angle_alpha                 90.0000
_cell_angle_beta                  90.0000
_cell_angle_gamma                 99.2340
loop_
_atom_site_label
_atom_site_type_symbol
_atom_site_fract_x
_atom_site_fract_y
_atom_site_fract_z
_atom_site_U_iso_or_equiv
_atom_site_adp_type
_atom_site_occupancy
Co1    Co    0.96566   0.07561   0.92205   0.01267  Uiso   1.00
Co2    Co    0.03434   0.42439   0.42205   0.01267  Uiso   1.00
Co3    Co    0.03434   0.92439   0.07795   0.01267  Uiso   1.00
Co4    Co    0.96566   0.57561   0.57795   0.01267  Uiso   1.00
H1     H     0.99850   0.78090   0.98120   0.01267  Uiso   1.00
H2     H     0.01130   0.70020   0.95510   0.01267  Uiso   1.00
H3     H     0.94670   0.90100   0.75470   0.01267  Uiso   1.00
H4     H     0.99730   0.66360   0.82650   0.01267  Uiso   1.00
H5     H     0.95140   0.82360   0.66990   0.01267  Uiso   1.00
H6     H     0.52880   0.98430   0.85090   0.01267  Uiso   1.00
H7     H     0.73070   0.98250   0.85360   0.01267  Uiso   1.00
H8     H     0.77920   0.16280   0.99340   0.01267  Uiso   1.00
H9     H     0.57890   0.16510   0.99230   0.01267  Uiso   1.00
H10    H     0.35510   0.00070   0.83560   0.01267  Uiso   1.00
H11    H     0.15240   0.99960   0.83900   0.01267  Uiso   1.00
H12    H     0.19460   0.15750   0.00040   0.01267  Uiso   1.00
H13    H     0.39640   0.15120   0.00570   0.01267  Uiso   1.00
H14    H     0.00150   0.71910   0.48120   0.01267  Uiso   1.00
H15    H     0.98870   0.79980   0.45510   0.01267  Uiso   1.00
H16    H     0.05330   0.59900   0.25470   0.01267  Uiso   1.00
H17    H     0.00270   0.83640   0.32650   0.01267  Uiso   1.00
H18    H     0.04860   0.67640   0.16990   0.01267  Uiso   1.00
H19    H     0.47120   0.51570   0.35090   0.01267  Uiso   1.00
H20    H     0.26930   0.51750   0.35360   0.01267  Uiso   1.00
H21    H     0.22080   0.33720   0.49340   0.01267  Uiso   1.00
H22    H     0.42110   0.33490   0.49230   0.01267  Uiso   1.00
H23    H     0.64490   0.49930   0.33560   0.01267  Uiso   1.00
H24    H     0.84760   0.50040   0.33900   0.01267  Uiso   1.00
H25    H     0.80540   0.34250   0.50040   0.01267  Uiso   1.00
H26    H     0.60360   0.34880   0.50570   0.01267  Uiso   1.00
H27    H     0.00150   0.21910   0.01880   0.01267  Uiso   1.00
H28    H     0.98870   0.29980   0.04490   0.01267  Uiso   1.00
H29    H     0.05330   0.09900   0.24530   0.01267  Uiso   1.00
H30    H     0.00270   0.33640   0.17350   0.01267  Uiso   1.00
H31    H     0.04860   0.17640   0.33010   0.01267  Uiso   1.00
H32    H     0.47120   0.01570   0.14910   0.01267  Uiso   1.00
H33    H     0.26930   0.01750   0.14640   0.01267  Uiso   1.00
H34    H     0.22080   0.83720   0.00660   0.01267  Uiso   1.00
H35    H     0.42110   0.83490   0.00770   0.01267  Uiso   1.00
H36    H     0.64490   0.99930   0.16440   0.01267  Uiso   1.00
H37    H     0.84760   0.00040   0.16100   0.01267  Uiso   1.00
H38    H     0.80540   0.84250   0.99960   0.01267  Uiso   1.00
H39    H     0.60360   0.84880   0.99430   0.01267  Uiso   1.00
H40    H     0.99850   0.28090   0.51880   0.01267  Uiso   1.00
H41    H     0.01130   0.20020   0.54490   0.01267  Uiso   1.00
H42    H     0.94670   0.40100   0.74530   0.01267  Uiso   1.00
H43    H     0.99730   0.16360   0.67350   0.01267  Uiso   1.00
H44    H     0.95140   0.32360   0.83010   0.01267  Uiso   1.00
H45    H     0.52880   0.48430   0.64910   0.01267  Uiso   1.00
H46    H     0.73070   0.48250   0.64640   0.01267  Uiso   1.00
H47    H     0.77920   0.66280   0.50660   0.01267  Uiso   1.00
H48    H     0.57890   0.66510   0.50770   0.01267  Uiso   1.00
H49    H     0.35510   0.50070   0.66440   0.01267  Uiso   1.00
H50    H     0.15240   0.49960   0.66100   0.01267  Uiso   1.00
H51    H     0.19460   0.65750   0.49960   0.01267  Uiso   1.00
H52    H     0.39640   0.65120   0.49430   0.01267  Uiso   1.00
C1     C     0.99260   0.84690   0.84870   0.01267  Uiso   1.00
C2     C     0.00290   0.77380   0.86670   0.01267  Uiso   1.00
C3     C     0.99510   0.71560   0.81310   0.01267  Uiso   1.00
C4     C     0.98380   0.73730   0.73940   0.01267  Uiso   1.00
C5     C     0.96530   0.81100   0.72040   0.01267  Uiso   1.00
C6     C     0.96720   0.86490   0.77520   0.01267  Uiso   1.00
C7     C     0.98460   0.90370   0.91450   0.01267  Uiso   1.00
C8     C     0.98080   0.67320   0.67700   0.01267  Uiso   1.00
C9     C     0.53020   0.07420   0.92200   0.01267  Uiso   1.00
C10    C     0.57900   0.02080   0.88050   0.01267  Uiso   1.00
C11    C     0.69910   0.02020   0.88190   0.01267  Uiso   1.00
C12    C     0.72850   0.12620   0.96420   0.01267  Uiso   1.00
C13    C     0.60950   0.12730   0.96360   0.01267  Uiso   1.00
C14    C     0.40880   0.07600   0.92060   0.01267  Uiso   1.00
C15    C     0.32490   0.03240   0.87150   0.01267  Uiso   1.00
C16    C     0.20320   0.03240   0.87180   0.01267  Uiso   1.00
C17    C     0.22840   0.12430   0.96780   0.01267  Uiso   1.00
C18    C     0.34950   0.12090   0.96920   0.01267  Uiso   1.00
C19    C     0.00740   0.65310   0.34870   0.01267  Uiso   1.00
C20    C     0.99710   0.72620   0.36670   0.01267  Uiso   1.00
C21    C     0.00490   0.78440   0.31310   0.01267  Uiso   1.00
C22    C     0.01620   0.76270   0.23940   0.01267  Uiso   1.00
C23    C     0.03470   0.68900   0.22040   0.01267  Uiso   1.00
C24    C     0.03280   0.63510   0.27520   0.01267  Uiso   1.00
C25    C     0.01540   0.59630   0.41450   0.01267  Uiso   1.00
C26    C     0.01920   0.82680   0.17700   0.01267  Uiso   1.00
C27    C     0.46980   0.42580   0.42200   0.01267  Uiso   1.00
C28    C     0.42100   0.47920   0.38050   0.01267  Uiso   1.00
C29    C     0.30090   0.47980   0.38190   0.01267  Uiso   1.00
C30    C     0.27150   0.37380   0.46420   0.01267  Uiso   1.00
C31    C     0.39050   0.37270   0.46360   0.01267  Uiso   1.00
C32    C     0.59120   0.42400   0.42060   0.01267  Uiso   1.00
C33    C     0.67510   0.46760   0.37150   0.01267  Uiso   1.00
C34    C     0.79680   0.46760   0.37180   0.01267  Uiso   1.00
C35    C     0.77160   0.37570   0.46780   0.01267  Uiso   1.00
C36    C     0.65050   0.37910   0.46920   0.01267  Uiso   1.00
C37    C     0.00740   0.15310   0.15130   0.01267  Uiso   1.00
C38    C     0.99710   0.22620   0.13330   0.01267  Uiso   1.00
C39    C     0.00490   0.28440   0.18690   0.01267  Uiso   1.00
C40    C     0.01620   0.26270   0.26060   0.01267  Uiso   1.00
C41    C     0.03470   0.18900   0.27960   0.01267  Uiso   1.00
C42    C     0.03280   0.13510   0.22480   0.01267  Uiso   1.00
C43    C     0.01540   0.09630   0.08550   0.01267  Uiso   1.00
C44    C     0.01920   0.32680   0.32300   0.01267  Uiso   1.00
C45    C     0.46980   0.92580   0.07800   0.01267  Uiso   1.00
C46    C     0.42100   0.97920   0.11950   0.01267  Uiso   1.00
C47    C     0.30090   0.97980   0.11810   0.01267  Uiso   1.00
C48    C     0.27150   0.87380   0.03580   0.01267  Uiso   1.00
C49    C     0.39050   0.87270   0.03640   0.01267  Uiso   1.00
C50    C     0.59120   0.92400   0.07940   0.01267  Uiso   1.00
C51    C     0.67510   0.96760   0.12850   0.01267  Uiso   1.00
C52    C     0.79680   0.96760   0.12820   0.01267  Uiso   1.00
C53    C     0.77160   0.87570   0.03220   0.01267  Uiso   1.00
C54    C     0.65050   0.87910   0.03080   0.01267  Uiso   1.00
C55    C     0.99260   0.34690   0.65130   0.01267  Uiso   1.00
C56    C     0.00290   0.27380   0.63330   0.01267  Uiso   1.00
C57    C     0.99510   0.21560   0.68690   0.01267  Uiso   1.00
C58    C     0.98380   0.23730   0.76060   0.01267  Uiso   1.00
C59    C     0.96530   0.31100   0.77960   0.01267  Uiso   1.00
C60    C     0.96720   0.36490   0.72480   0.01267  Uiso   1.00
C61    C     0.98460   0.40370   0.58550   0.01267  Uiso   1.00
C62    C     0.98080   0.17320   0.82300   0.01267  Uiso   1.00
C63    C     0.53020   0.57420   0.57800   0.01267  Uiso   1.00
C64    C     0.57900   0.52080   0.61950   0.01267  Uiso   1.00
C65    C     0.69910   0.52020   0.61810   0.01267  Uiso   1.00
C66    C     0.72850   0.62620   0.53580   0.01267  Uiso   1.00
C67    C     0.60950   0.62730   0.53640   0.01267  Uiso   1.00
C68    C     0.40880   0.57600   0.57940   0.01267  Uiso   1.00
C69    C     0.32490   0.53240   0.62850   0.01267  Uiso   1.00
C70    C     0.20320   0.53240   0.62820   0.01267  Uiso   1.00
C71    C     0.22840   0.62430   0.53220   0.01267  Uiso   1.00
C72    C     0.34950   0.62090   0.53080   0.01267  Uiso   1.00
N1     N     0.00400   0.74820   0.94480   0.01267  Uiso   1.00
N2     N     0.77630   0.07330   0.92360   0.01267  Uiso   1.00
N3     N     0.15920   0.07810   0.91780   0.01267  Uiso   1.00
N4     N     0.99600   0.75180   0.44480   0.01267  Uiso   1.00
N5     N     0.22370   0.42670   0.42360   0.01267  Uiso   1.00
N6     N     0.84080   0.42190   0.41780   0.01267  Uiso   1.00
N7     N     0.99600   0.25180   0.05520   0.01267  Uiso   1.00
N8     N     0.22370   0.92670   0.07640   0.01267  Uiso   1.00
N9     N     0.84080   0.92190   0.08220   0.01267  Uiso   1.00
N10    N     0.00400   0.24820   0.55520   0.01267  Uiso   1.00
N11    N     0.77630   0.57330   0.57640   0.01267  Uiso   1.00
N12    N     0.15920   0.57810   0.58220   0.01267  Uiso   1.00
O1     O     0.93750   0.96410   0.89550   0.01267  Uiso   1.00
O2     O     0.03340   0.89380   0.97070   0.01267  Uiso   1.00
O3     O     0.96820   0.60450   0.69730   0.01267  Uiso   1.00
O4     O     0.98890   0.69660   0.61120   0.01267  Uiso   1.00
O5     O     0.06250   0.53590   0.39550   0.01267  Uiso   1.00
O6     O     0.96660   0.60620   0.47070   0.01267  Uiso   1.00
O7     O     0.03180   0.89550   0.19730   0.01267  Uiso   1.00
O8     O     0.01110   0.80340   0.11120   0.01267  Uiso   1.00
O9     O     0.06250   0.03590   0.10450   0.01267  Uiso   1.00
O10    O     0.96660   0.10620   0.02930   0.01267  Uiso   1.00
O11    O     0.03180   0.39550   0.30270   0.01267  Uiso   1.00
O12    O     0.01110   0.30340   0.38880   0.01267  Uiso   1.00
O13    O     0.93750   0.46410   0.60450   0.01267  Uiso   1.00
O14    O     0.03340   0.39380   0.52930   0.01267  Uiso   1.00
O15    O     0.96820   0.10450   0.80270   0.01267  Uiso   1.00
O16    O     0.98890   0.19660   0.88880   0.01267  Uiso   1.00
