data_image0
_cell_length_a       9.8029
_cell_length_b       17.5059
_cell_length_c       14.6324
_cell_angle_alpha    90
_cell_angle_beta     97.1208
_cell_angle_gamma    90

_symmetry_space_group_name_H-M    "P 1"
_symmetry_int_tables_number       1

loop_
  _symmetry_equiv_pos_as_xyz
  'x, y, z'

loop_
  _atom_site_label
  _atom_site_occupancy
  _atom_site_fract_x
  _atom_site_fract_y
  _atom_site_fract_z
  _atom_site_thermal_displace_type
  _atom_site_B_iso_or_equiv
  _atom_site_type_symbol
  Eu1      1.0000 0.49477  0.12162  0.15829  Biso   1.000  Eu
  Eu2      1.0000 0.51936  0.83688  0.41241  Biso   1.000  Eu
  O1       1.0000 0.58000  0.88360  0.26240  Biso   1.000  O
  O2       1.0000 0.61050  0.99950  0.20110  Biso   1.000  O
  O3       1.0000 0.37450  0.04620  0.26100  Biso   1.000  O
  O4       1.0000 0.36280  0.93640  0.33550  Biso   1.000  O
  C1       1.0000 0.41660  0.98090  0.28310  Biso   1.000  C
  C2       1.0000 0.54850  0.95220  0.24520  Biso   1.000  C
  O5       1.0000 0.74390  0.13490  0.15920  Biso   1.000  O
  O6       1.0000 0.31500  0.17400  0.04630  Biso   1.000  O
  O7       1.0000 0.32950  0.19900  0.22670  Biso   1.000  O
  O8       1.0000 0.57150  0.09100  0.00950  Biso   1.000  O
  C3       1.0000 0.23890  0.23470  0.17720  Biso   1.000  C
  C4       1.0000 0.23320  0.22280  0.07240  Biso   1.000  C
  O9       1.0000 0.41420  0.91640  0.52400  Biso   1.000  O
  O10      1.0000 0.62650  0.99080  0.92690  Biso   1.000  O
  O11      1.0000 0.73530  0.32570  0.09400  Biso   1.000  O
  O12      1.0000 0.15110  0.27990  0.20320  Biso   1.000  O
  O13      1.0000 0.14900  0.26300  0.02160  Biso   1.000  O
  C5       1.0000 0.55730  0.02400  0.98140  Biso   1.000  C
  C6       1.0000 0.43720  0.98650  0.52340  Biso   1.000  C
  O14      1.0000 0.91050  0.20820  0.11680  Biso   1.000  O
  O15      1.0000 0.56450  0.24980  0.12740  Biso   1.000  O
  C7       1.0000 0.68650  0.26350  0.11610  Biso   1.000  C
  C8       1.0000 0.78960  0.19550  0.13190  Biso   1.000  C
  O16      1.0000 0.36990  0.03700  0.55820  Biso   1.000  O
  Eu3      1.0000 0.00523  0.62162  0.34171  Biso   1.000  Eu
  Eu4      1.0000 0.98064  0.33688  0.08759  Biso   1.000  Eu
  O17      1.0000 0.92000  0.38360  0.23760  Biso   1.000  O
  O18      1.0000 0.88950  0.49950  0.29890  Biso   1.000  O
  O19      1.0000 0.12550  0.54620  0.23900  Biso   1.000  O
  O20      1.0000 0.13720  0.43640  0.16450  Biso   1.000  O
  C9       1.0000 0.08340  0.48090  0.21690  Biso   1.000  C
  C10      1.0000 0.95150  0.45220  0.25480  Biso   1.000  C
  O21      1.0000 0.75610  0.63490  0.34080  Biso   1.000  O
  O22      1.0000 0.18500  0.67400  0.45370  Biso   1.000  O
  O23      1.0000 0.17050  0.69900  0.27330  Biso   1.000  O
  O24      1.0000 0.92850  0.59100  0.49050  Biso   1.000  O
  C11      1.0000 0.26110  0.73470  0.32280  Biso   1.000  C
  C12      1.0000 0.26680  0.72280  0.42760  Biso   1.000  C
  O25      1.0000 0.08580  0.41640  0.97600  Biso   1.000  O
  O26      1.0000 0.87350  0.49080  0.57310  Biso   1.000  O
  O27      1.0000 0.76470  0.82570  0.40600  Biso   1.000  O
  O28      1.0000 0.34890  0.77990  0.29680  Biso   1.000  O
  O29      1.0000 0.35100  0.76300  0.47840  Biso   1.000  O
  C13      1.0000 0.94270  0.52400  0.51860  Biso   1.000  C
  C14      1.0000 0.06280  0.48650  0.97660  Biso   1.000  C
  O30      1.0000 0.58950  0.70820  0.38320  Biso   1.000  O
  O31      1.0000 0.93550  0.74980  0.37260  Biso   1.000  O
  C15      1.0000 0.81350  0.76350  0.38390  Biso   1.000  C
  C16      1.0000 0.71040  0.69550  0.36810  Biso   1.000  C
  O32      1.0000 0.13010  0.53700  0.94180  Biso   1.000  O
  Eu5      1.0000 0.50523  0.87838  0.84171  Biso   1.000  Eu
  Eu6      1.0000 0.48064  0.16312  0.58759  Biso   1.000  Eu
  O33      1.0000 0.42000  0.11640  0.73760  Biso   1.000  O
  O34      1.0000 0.38950  0.00050  0.79890  Biso   1.000  O
  O35      1.0000 0.62550  0.95380  0.73900  Biso   1.000  O
  O36      1.0000 0.63720  0.06360  0.66450  Biso   1.000  O
  C17      1.0000 0.58340  0.01910  0.71690  Biso   1.000  C
  C18      1.0000 0.45150  0.04780  0.75480  Biso   1.000  C
  O37      1.0000 0.25610  0.86510  0.84080  Biso   1.000  O
  O38      1.0000 0.68500  0.82600  0.95370  Biso   1.000  O
  O39      1.0000 0.67050  0.80100  0.77330  Biso   1.000  O
  O40      1.0000 0.42850  0.90900  0.99050  Biso   1.000  O
  C19      1.0000 0.76110  0.76530  0.82280  Biso   1.000  C
  C20      1.0000 0.76680  0.77720  0.92760  Biso   1.000  C
  O41      1.0000 0.58580  0.08360  0.47600  Biso   1.000  O
  O42      1.0000 0.37350  0.00920  0.07310  Biso   1.000  O
  O43      1.0000 0.26470  0.67430  0.90600  Biso   1.000  O
  O44      1.0000 0.84890  0.72010  0.79680  Biso   1.000  O
  O45      1.0000 0.85100  0.73700  0.97840  Biso   1.000  O
  C21      1.0000 0.44270  0.97600  0.01860  Biso   1.000  C
  C22      1.0000 0.56280  0.01350  0.47660  Biso   1.000  C
  O46      1.0000 0.08950  0.79180  0.88320  Biso   1.000  O
  O47      1.0000 0.43550  0.75020  0.87260  Biso   1.000  O
  C23      1.0000 0.31350  0.73650  0.88390  Biso   1.000  C
  C24      1.0000 0.21040  0.80450  0.86810  Biso   1.000  C
  O48      1.0000 0.63010  0.96300  0.44180  Biso   1.000  O
  Eu7      1.0000 0.99477  0.37838  0.65829  Biso   1.000  Eu
  Eu8      1.0000 0.01936  0.66312  0.91241  Biso   1.000  Eu
  O49      1.0000 0.08000  0.61640  0.76240  Biso   1.000  O
  O50      1.0000 0.11050  0.50050  0.70110  Biso   1.000  O
  O51      1.0000 0.87450  0.45380  0.76100  Biso   1.000  O
  O52      1.0000 0.86280  0.56360  0.83550  Biso   1.000  O
  C25      1.0000 0.91660  0.51910  0.78310  Biso   1.000  C
  C26      1.0000 0.04850  0.54780  0.74520  Biso   1.000  C
  O53      1.0000 0.24390  0.36510  0.65920  Biso   1.000  O
  O54      1.0000 0.81500  0.32600  0.54630  Biso   1.000  O
  O55      1.0000 0.82950  0.30100  0.72670  Biso   1.000  O
  O56      1.0000 0.07150  0.40900  0.50950  Biso   1.000  O
  C27      1.0000 0.73890  0.26530  0.67720  Biso   1.000  C
  C28      1.0000 0.73320  0.27720  0.57240  Biso   1.000  C
  O57      1.0000 0.91420  0.58360  0.02400  Biso   1.000  O
  O58      1.0000 0.12650  0.50920  0.42690  Biso   1.000  O
  O59      1.0000 0.23530  0.17430  0.59400  Biso   1.000  O
  O60      1.0000 0.65110  0.22010  0.70320  Biso   1.000  O
  O61      1.0000 0.64900  0.23700  0.52160  Biso   1.000  O
  C29      1.0000 0.05730  0.47600  0.48140  Biso   1.000  C
  C30      1.0000 0.93720  0.51350  0.02340  Biso   1.000  C
  O62      1.0000 0.41050  0.29180  0.61680  Biso   1.000  O
  O63      1.0000 0.06450  0.25020  0.62740  Biso   1.000  O
  C31      1.0000 0.18650  0.23650  0.61610  Biso   1.000  C
  C32      1.0000 0.28960  0.30450  0.63190  Biso   1.000  C
  O64      1.0000 0.86990  0.46300  0.05820  Biso   1.000  O
