data_image0
_cell_length_a       9.7909
_cell_length_b       17.2987
_cell_length_c       14.5929
_cell_angle_alpha    90
_cell_angle_beta     97.1322
_cell_angle_gamma    90

_symmetry_space_group_name_H-M    "P 1"
_symmetry_int_tables_number       1

loop_
  _symmetry_equiv_pos_as_xyz
  'x, y, z'

loop_
  _atom_site_label
  _atom_site_occupancy
  _atom_site_fract_x
  _atom_site_fract_y
  _atom_site_fract_z
  _atom_site_thermal_displace_type
  _atom_site_B_iso_or_equiv
  _atom_site_type_symbol
  Tb1      1.0000 0.50465  0.37811  0.34159  Biso   1.000  Tb
  Tb2      1.0000 0.01903  0.16358  0.41219  Biso   1.000  Tb
  O1       1.0000 0.39010  0.50080  0.29960  Biso   1.000  O
  O2       1.0000 0.41880  0.61710  0.23690  Biso   1.000  O
  O3       1.0000 0.62580  0.45300  0.23990  Biso   1.000  O
  O4       1.0000 0.63700  0.56380  0.16360  Biso   1.000  O
  O5       1.0000 0.25590  0.36610  0.33960  Biso   1.000  O
  O6       1.0000 0.08840  0.29200  0.38220  Biso   1.000  O
  O7       1.0000 0.43500  0.24970  0.37220  Biso   1.000  O
  O8       1.0000 0.26370  0.17360  0.40740  Biso   1.000  O
  O9       1.0000 0.84970  0.22010  0.29700  Biso   1.000  O
  O10      1.0000 0.66780  0.29970  0.27290  Biso   1.000  O
  O11      1.0000 0.85320  0.23850  0.47830  Biso   1.000  O
  O12      1.0000 0.68300  0.32620  0.45330  Biso   1.000  O
  O13      1.0000 0.42750  0.40880  0.48880  Biso   1.000  O
  O14      1.0000 0.37410  0.50950  0.57390  Biso   1.000  O
  O15      1.0000 0.91360  0.08440  0.52350  Biso   1.000  O
  O16      1.0000 0.87130  0.96210  0.55870  Biso   1.000  O
  O17      1.0000 0.13100  0.19490  0.56430  Biso   1.000  O
  C1       1.0000 0.45230  0.54880  0.25460  Biso   1.000  C
  C2       1.0000 0.58280  0.51850  0.21660  Biso   1.000  C
  C3       1.0000 0.20950  0.30490  0.36670  Biso   1.000  C
  C4       1.0000 0.31290  0.23560  0.38360  Biso   1.000  C
  C5       1.0000 0.76020  0.26510  0.32250  Biso   1.000  C
  C6       1.0000 0.76710  0.27740  0.42800  Biso   1.000  C
  C7       1.0000 0.44220  0.47580  0.51810  Biso   1.000  C
  C8       1.0000 0.93830  0.01340  0.52420  Biso   1.000  C
  H1       1.0000 0.10700  0.18200  0.61500  Biso   1.000  H
  H2       1.0000 0.19100  0.18600  0.52900  Biso   1.000  H
  Tb3      1.0000 0.99535  0.87811  0.15841  Biso   1.000  Tb
  Tb4      1.0000 0.48097  0.66358  0.08781  Biso   1.000  Tb
  O18      1.0000 0.10990  0.00080  0.20040  Biso   1.000  O
  O19      1.0000 0.08120  0.11710  0.26310  Biso   1.000  O
  O20      1.0000 0.87420  0.95300  0.26010  Biso   1.000  O
  O21      1.0000 0.86300  0.06380  0.33640  Biso   1.000  O
  O22      1.0000 0.24410  0.86610  0.16040  Biso   1.000  O
  O23      1.0000 0.41160  0.79200  0.11780  Biso   1.000  O
  O24      1.0000 0.06500  0.74970  0.12780  Biso   1.000  O
  O25      1.0000 0.23630  0.67360  0.09260  Biso   1.000  O
  O26      1.0000 0.65030  0.72010  0.20300  Biso   1.000  O
  O27      1.0000 0.83220  0.79970  0.22710  Biso   1.000  O
  O28      1.0000 0.64680  0.73850  0.02170  Biso   1.000  O
  O29      1.0000 0.81700  0.82620  0.04670  Biso   1.000  O
  O30      1.0000 0.07250  0.90880  0.01120  Biso   1.000  O
  O31      1.0000 0.12590  0.00950  0.92610  Biso   1.000  O
  O32      1.0000 0.58640  0.58440  0.97650  Biso   1.000  O
  O33      1.0000 0.62870  0.46210  0.94130  Biso   1.000  O
  O34      1.0000 0.36900  0.69490  0.93570  Biso   1.000  O
  C9       1.0000 0.04770  0.04880  0.24540  Biso   1.000  C
  C10      1.0000 0.91720  0.01850  0.28340  Biso   1.000  C
  C11      1.0000 0.29050  0.80490  0.13330  Biso   1.000  C
  C12      1.0000 0.18710  0.73560  0.11640  Biso   1.000  C
  C13      1.0000 0.73980  0.76510  0.17750  Biso   1.000  C
  C14      1.0000 0.73290  0.77740  0.07200  Biso   1.000  C
  C15      1.0000 0.05780  0.97580  0.98190  Biso   1.000  C
  C16      1.0000 0.56170  0.51340  0.97580  Biso   1.000  C
  H3       1.0000 0.39300  0.68200  0.88500  Biso   1.000  H
  H4       1.0000 0.30900  0.68600  0.97100  Biso   1.000  H
  Tb5      1.0000 0.49535  0.62189  0.65841  Biso   1.000  Tb
  Tb6      1.0000 0.98097  0.83642  0.58781  Biso   1.000  Tb
  O35      1.0000 0.60990  0.49920  0.70040  Biso   1.000  O
  O36      1.0000 0.58120  0.38290  0.76310  Biso   1.000  O
  O37      1.0000 0.37420  0.54700  0.76010  Biso   1.000  O
  O38      1.0000 0.36300  0.43620  0.83640  Biso   1.000  O
  O39      1.0000 0.74410  0.63390  0.66040  Biso   1.000  O
  O40      1.0000 0.91160  0.70800  0.61780  Biso   1.000  O
  O41      1.0000 0.56500  0.75030  0.62780  Biso   1.000  O
  O42      1.0000 0.73630  0.82640  0.59260  Biso   1.000  O
  O43      1.0000 0.15030  0.77990  0.70300  Biso   1.000  O
  O44      1.0000 0.33220  0.70030  0.72710  Biso   1.000  O
  O45      1.0000 0.14680  0.76150  0.52170  Biso   1.000  O
  O46      1.0000 0.31700  0.67380  0.54670  Biso   1.000  O
  O47      1.0000 0.57250  0.59120  0.51120  Biso   1.000  O
  O48      1.0000 0.62590  0.49050  0.42610  Biso   1.000  O
  O49      1.0000 0.08640  0.91560  0.47650  Biso   1.000  O
  O50      1.0000 0.12870  0.03790  0.44130  Biso   1.000  O
  O51      1.0000 0.86900  0.80510  0.43570  Biso   1.000  O
  C17      1.0000 0.54770  0.45120  0.74540  Biso   1.000  C
  C18      1.0000 0.41720  0.48150  0.78340  Biso   1.000  C
  C19      1.0000 0.79050  0.69510  0.63330  Biso   1.000  C
  C20      1.0000 0.68710  0.76440  0.61640  Biso   1.000  C
  C21      1.0000 0.23980  0.73490  0.67750  Biso   1.000  C
  C22      1.0000 0.23290  0.72260  0.57200  Biso   1.000  C
  C23      1.0000 0.55780  0.52420  0.48190  Biso   1.000  C
  C24      1.0000 0.06170  0.98660  0.47580  Biso   1.000  C
  H5       1.0000 0.89300  0.81800  0.38500  Biso   1.000  H
  H6       1.0000 0.80900  0.81400  0.47100  Biso   1.000  H
  Tb7      1.0000 0.00465  0.12189  0.84159  Biso   1.000  Tb
  Tb8      1.0000 0.51903  0.33642  0.91219  Biso   1.000  Tb
  O52      1.0000 0.89010  0.99920  0.79960  Biso   1.000  O
  O53      1.0000 0.91880  0.88290  0.73690  Biso   1.000  O
  O54      1.0000 0.12580  0.04700  0.73990  Biso   1.000  O
  O55      1.0000 0.13700  0.93620  0.66360  Biso   1.000  O
  O56      1.0000 0.75590  0.13390  0.83960  Biso   1.000  O
  O57      1.0000 0.58840  0.20800  0.88220  Biso   1.000  O
  O58      1.0000 0.93500  0.25030  0.87220  Biso   1.000  O
  O59      1.0000 0.76370  0.32640  0.90740  Biso   1.000  O
  O60      1.0000 0.34970  0.27990  0.79700  Biso   1.000  O
  O61      1.0000 0.16780  0.20030  0.77290  Biso   1.000  O
  O62      1.0000 0.35320  0.26150  0.97830  Biso   1.000  O
  O63      1.0000 0.18300  0.17380  0.95330  Biso   1.000  O
  O64      1.0000 0.92750  0.09120  0.98880  Biso   1.000  O
  O65      1.0000 0.87410  0.99050  0.07390  Biso   1.000  O
  O66      1.0000 0.41360  0.41560  0.02350  Biso   1.000  O
  O67      1.0000 0.37130  0.53790  0.05870  Biso   1.000  O
  O68      1.0000 0.63100  0.30510  0.06430  Biso   1.000  O
  C25      1.0000 0.95230  0.95120  0.75460  Biso   1.000  C
  C26      1.0000 0.08280  0.98150  0.71660  Biso   1.000  C
  C27      1.0000 0.70950  0.19510  0.86670  Biso   1.000  C
  C28      1.0000 0.81290  0.26440  0.88360  Biso   1.000  C
  C29      1.0000 0.26020  0.23490  0.82250  Biso   1.000  C
  C30      1.0000 0.26710  0.22260  0.92800  Biso   1.000  C
  C31      1.0000 0.94220  0.02420  0.01810  Biso   1.000  C
  C32      1.0000 0.43830  0.48660  0.02420  Biso   1.000  C
  H7       1.0000 0.60700  0.31800  0.11500  Biso   1.000  H
  H8       1.0000 0.69100  0.31400  0.02900  Biso   1.000  H
