data_HASTAY_clean
_audit_creation_date              2014-07-02
_audit_creation_method            'Materials Studio'
_symmetry_space_group_name_H-M    'P1'
_symmetry_Int_Tables_number       1
_symmetry_cell_setting            triclinic
loop_
_symmetry_equiv_pos_as_xyz
  x,y,z
_cell_length_a                    16.4835
_cell_length_b                    21.1293
_cell_length_c                    24.9690
_cell_angle_alpha                 92.7600
_cell_angle_beta                  90.0000
_cell_angle_gamma                 90.0000
loop_
_atom_site_label
_atom_site_type_symbol
_atom_site_fract_x
_atom_site_fract_y
_atom_site_fract_z
_atom_site_U_iso_or_equiv
_atom_site_adp_type
_atom_site_occupancy
Zn1    Zn    0.01280   0.33930   0.30741   0.01267  Uiso   1.00
Zn2    Zn    0.45850   0.33716   0.24552   0.01267  Uiso   1.00
Zn3    Zn    0.07129   0.65863   0.81354   0.01267  Uiso   1.00
Zn4    Zn    0.01984   0.34914   0.00407   0.01267  Uiso   1.00
Zn5    Zn    0.46656   0.84313   0.01023   0.01267  Uiso   1.00
Zn6    Zn    0.01280   0.16070   0.19259   0.01267  Uiso   1.00
Zn7    Zn    0.45850   0.16284   0.25448   0.01267  Uiso   1.00
Zn8    Zn    0.07129   0.84137   0.68646   0.01267  Uiso   1.00
Zn9    Zn    0.01984   0.15086   0.49593   0.01267  Uiso   1.00
Zn10   Zn    0.46656   0.65687   0.48977   0.01267  Uiso   1.00
Zn11   Zn    0.98720   0.66070   0.69259   0.01267  Uiso   1.00
Zn12   Zn    0.54150   0.66284   0.75448   0.01267  Uiso   1.00
Zn13   Zn    0.92871   0.34137   0.18646   0.01267  Uiso   1.00
Zn14   Zn    0.98016   0.65086   0.99593   0.01267  Uiso   1.00
Zn15   Zn    0.53344   0.15687   0.98977   0.01267  Uiso   1.00
Zn16   Zn    0.98720   0.83930   0.80741   0.01267  Uiso   1.00
Zn17   Zn    0.54150   0.83716   0.74552   0.01267  Uiso   1.00
Zn18   Zn    0.92871   0.15863   0.31354   0.01267  Uiso   1.00
Zn19   Zn    0.98016   0.84914   0.50407   0.01267  Uiso   1.00
Zn20   Zn    0.53344   0.34313   0.51023   0.01267  Uiso   1.00
H1     H     0.86170   0.51670   0.63840   0.01267  Uiso   1.00
H2     H     0.77190   0.57810   0.69090   0.01267  Uiso   1.00
H3     H     0.63310   0.60400   0.56070   0.01267  Uiso   1.00
H4     H     0.93780   0.46100   0.58410   0.01267  Uiso   1.00
H5     H     0.01740   0.40560   0.52050   0.01267  Uiso   1.00
H6     H     0.85530   0.44440   0.40550   0.01267  Uiso   1.00
H7     H     0.82910   0.64690   0.31550   0.01267  Uiso   1.00
H8     H     0.89670   0.72520   0.36710   0.01267  Uiso   1.00
H9     H     0.81760   0.64740   0.50200   0.01267  Uiso   1.00
H10    H     0.74220   0.58340   0.27550   0.01267  Uiso   1.00
H11    H     0.66150   0.50380   0.23580   0.01267  Uiso   1.00
H12    H     0.63400   0.42650   0.37930   0.01267  Uiso   1.00
H13    H     0.22930   0.59660   0.24020   0.01267  Uiso   1.00
H14    H     0.14230   0.52120   0.27370   0.01267  Uiso   1.00
H15    H     0.11860   0.43920   0.12520   0.01267  Uiso   1.00
H16    H     0.30450   0.66780   0.20240   0.01267  Uiso   1.00
H17    H     0.37860   0.74000   0.15450   0.01267  Uiso   1.00
H18    H     0.33500   0.63640   0.01750   0.01267  Uiso   1.00
H19    H     0.47320   0.42560   0.96460   0.01267  Uiso   1.00
H20    H     0.51730   0.36730   0.03590   0.01267  Uiso   1.00
H21    H     0.32930   0.43420   0.12540   0.01267  Uiso   1.00
H22    H     0.43540   0.49180   0.90590   0.01267  Uiso   1.00
H23    H     0.37230   0.55010   0.84080   0.01267  Uiso   1.00
H24    H     0.18200   0.58270   0.94000   0.01267  Uiso   1.00
H25    H     0.86170   0.98330   0.86160   0.01267  Uiso   1.00
H26    H     0.77190   0.92190   0.80910   0.01267  Uiso   1.00
H27    H     0.63310   0.89600   0.93930   0.01267  Uiso   1.00
H28    H     0.93780   0.03900   0.91590   0.01267  Uiso   1.00
H29    H     0.01740   0.09440   0.97950   0.01267  Uiso   1.00
H30    H     0.85530   0.05560   0.09450   0.01267  Uiso   1.00
H31    H     0.82910   0.85310   0.18450   0.01267  Uiso   1.00
H32    H     0.89670   0.77480   0.13290   0.01267  Uiso   1.00
H33    H     0.81760   0.85260   0.99800   0.01267  Uiso   1.00
H34    H     0.74220   0.91660   0.22450   0.01267  Uiso   1.00
H35    H     0.66150   0.99620   0.26420   0.01267  Uiso   1.00
H36    H     0.63400   0.07350   0.12070   0.01267  Uiso   1.00
H37    H     0.22930   0.90340   0.25980   0.01267  Uiso   1.00
H38    H     0.14230   0.97880   0.22630   0.01267  Uiso   1.00
H39    H     0.11860   0.06080   0.37480   0.01267  Uiso   1.00
H40    H     0.30450   0.83220   0.29760   0.01267  Uiso   1.00
H41    H     0.37860   0.76000   0.34550   0.01267  Uiso   1.00
H42    H     0.33500   0.86360   0.48250   0.01267  Uiso   1.00
H43    H     0.47320   0.07440   0.53540   0.01267  Uiso   1.00
H44    H     0.51730   0.13270   0.46410   0.01267  Uiso   1.00
H45    H     0.32930   0.06580   0.37460   0.01267  Uiso   1.00
H46    H     0.43540   0.00820   0.59410   0.01267  Uiso   1.00
H47    H     0.37230   0.94990   0.65920   0.01267  Uiso   1.00
H48    H     0.18200   0.91730   0.56000   0.01267  Uiso   1.00
H49    H     0.13830   0.48330   0.36160   0.01267  Uiso   1.00
H50    H     0.22810   0.42190   0.30910   0.01267  Uiso   1.00
H51    H     0.36690   0.39600   0.43930   0.01267  Uiso   1.00
H52    H     0.06220   0.53900   0.41590   0.01267  Uiso   1.00
H53    H     0.98260   0.59440   0.47950   0.01267  Uiso   1.00
H54    H     0.14470   0.55560   0.59450   0.01267  Uiso   1.00
H55    H     0.17090   0.35310   0.68450   0.01267  Uiso   1.00
H56    H     0.10330   0.27480   0.63290   0.01267  Uiso   1.00
H57    H     0.18240   0.35260   0.49800   0.01267  Uiso   1.00
H58    H     0.25780   0.41660   0.72450   0.01267  Uiso   1.00
H59    H     0.33850   0.49620   0.76420   0.01267  Uiso   1.00
H60    H     0.36600   0.57350   0.62070   0.01267  Uiso   1.00
H61    H     0.77070   0.40340   0.75980   0.01267  Uiso   1.00
H62    H     0.85770   0.47880   0.72630   0.01267  Uiso   1.00
H63    H     0.88140   0.56080   0.87480   0.01267  Uiso   1.00
H64    H     0.69550   0.33220   0.79760   0.01267  Uiso   1.00
H65    H     0.62140   0.26000   0.84550   0.01267  Uiso   1.00
H66    H     0.66500   0.36360   0.98250   0.01267  Uiso   1.00
H67    H     0.52680   0.57440   0.03540   0.01267  Uiso   1.00
H68    H     0.48270   0.63270   0.96410   0.01267  Uiso   1.00
H69    H     0.67070   0.56580   0.87460   0.01267  Uiso   1.00
H70    H     0.56460   0.50820   0.09410   0.01267  Uiso   1.00
H71    H     0.62770   0.44990   0.15920   0.01267  Uiso   1.00
H72    H     0.81800   0.41730   0.06000   0.01267  Uiso   1.00
H73    H     0.13830   0.01670   0.13840   0.01267  Uiso   1.00
H74    H     0.22810   0.07810   0.19090   0.01267  Uiso   1.00
H75    H     0.36690   0.10400   0.06070   0.01267  Uiso   1.00
H76    H     0.06220   0.96100   0.08410   0.01267  Uiso   1.00
H77    H     0.98260   0.90560   0.02050   0.01267  Uiso   1.00
H78    H     0.14470   0.94440   0.90550   0.01267  Uiso   1.00
H79    H     0.17090   0.14690   0.81550   0.01267  Uiso   1.00
H80    H     0.10330   0.22520   0.86710   0.01267  Uiso   1.00
H81    H     0.18240   0.14740   0.00200   0.01267  Uiso   1.00
H82    H     0.25780   0.08340   0.77550   0.01267  Uiso   1.00
H83    H     0.33850   0.00380   0.73580   0.01267  Uiso   1.00
H84    H     0.36600   0.92650   0.87930   0.01267  Uiso   1.00
H85    H     0.77070   0.09660   0.74020   0.01267  Uiso   1.00
H86    H     0.85770   0.02120   0.77370   0.01267  Uiso   1.00
H87    H     0.88140   0.93920   0.62520   0.01267  Uiso   1.00
H88    H     0.69550   0.16780   0.70240   0.01267  Uiso   1.00
H89    H     0.62140   0.24000   0.65450   0.01267  Uiso   1.00
H90    H     0.66500   0.13640   0.51750   0.01267  Uiso   1.00
H91    H     0.52680   0.92560   0.46460   0.01267  Uiso   1.00
H92    H     0.48270   0.86730   0.53590   0.01267  Uiso   1.00
H93    H     0.67070   0.93420   0.62540   0.01267  Uiso   1.00
H94    H     0.56460   0.99180   0.40590   0.01267  Uiso   1.00
H95    H     0.62770   0.05010   0.34080   0.01267  Uiso   1.00
H96    H     0.81800   0.08270   0.44000   0.01267  Uiso   1.00
Ru1    Ru    0.22418   0.52131   0.04851   0.01267  Uiso   1.00
Ru2    Ru    0.71316   0.52561   0.46409   0.01267  Uiso   1.00
Ru3    Ru    0.22418   0.97869   0.45149   0.01267  Uiso   1.00
Ru4    Ru    0.71316   0.97439   0.03591   0.01267  Uiso   1.00
Ru5    Ru    0.77582   0.47869   0.95149   0.01267  Uiso   1.00
Ru6    Ru    0.28684   0.47439   0.53591   0.01267  Uiso   1.00
Ru7    Ru    0.77582   0.02131   0.54851   0.01267  Uiso   1.00
Ru8    Ru    0.28684   0.02561   0.96409   0.01267  Uiso   1.00
C1     C     0.58960   0.40380   0.28420   0.01267  Uiso   1.00
C2     C     0.63090   0.63380   0.66220   0.01267  Uiso   1.00
C3     C     0.89650   0.74510   0.47580   0.01267  Uiso   1.00
C4     C     0.40200   0.74470   0.04810   0.01267  Uiso   1.00
C5     C     0.80090   0.52370   0.56820   0.01267  Uiso   1.00
C6     C     0.81560   0.53430   0.62270   0.01267  Uiso   1.00
C7     C     0.76200   0.57090   0.65410   0.01267  Uiso   1.00
C8     C     0.69380   0.59700   0.63090   0.01267  Uiso   1.00
C9     C     0.67920   0.58640   0.57640   0.01267  Uiso   1.00
C10    C     0.84910   0.48580   0.53270   0.01267  Uiso   1.00
C11    C     0.92120   0.45770   0.54810   0.01267  Uiso   1.00
C12    C     0.96860   0.42460   0.51020   0.01267  Uiso   1.00
C13    C     0.94400   0.41970   0.45690   0.01267  Uiso   1.00
C14    C     0.87190   0.44780   0.44150   0.01267  Uiso   1.00
C15    C     0.78300   0.60050   0.37800   0.01267  Uiso   1.00
C16    C     0.82680   0.64700   0.35320   0.01267  Uiso   1.00
C17    C     0.86710   0.69370   0.38390   0.01267  Uiso   1.00
C18    C     0.86370   0.69380   0.43960   0.01267  Uiso   1.00
C19    C     0.81990   0.64730   0.46440   0.01267  Uiso   1.00
C20    C     0.73630   0.55250   0.35120   0.01267  Uiso   1.00
C21    C     0.72040   0.55170   0.29650   0.01267  Uiso   1.00
C22    C     0.67220   0.50420   0.27270   0.01267  Uiso   1.00
C23    C     0.63990   0.45750   0.30370   0.01267  Uiso   1.00
C24    C     0.65580   0.45820   0.35840   0.01267  Uiso   1.00
C25    C     0.22590   0.56290   0.16270   0.01267  Uiso   1.00
C26    C     0.20700   0.56490   0.21700   0.01267  Uiso   1.00
C27    C     0.15510   0.51980   0.23700   0.01267  Uiso   1.00
C28    C     0.12200   0.47290   0.20270   0.01267  Uiso   1.00
C29    C     0.14090   0.47100   0.14840   0.01267  Uiso   1.00
C30    C     0.27550   0.60900   0.13850   0.01267  Uiso   1.00
C31    C     0.31060   0.66150   0.16510   0.01267  Uiso   1.00
C32    C     0.35480   0.70460   0.13650   0.01267  Uiso   1.00
C33    C     0.36400   0.69520   0.08140   0.01267  Uiso   1.00
C34    C     0.32890   0.64280   0.05480   0.01267  Uiso   1.00
C35    C     0.37490   0.46460   0.00240   0.01267  Uiso   1.00
C36    C     0.44420   0.42730   0.99700   0.01267  Uiso   1.00
C37    C     0.47050   0.39260   0.03960   0.01267  Uiso   1.00
C38    C     0.42760   0.39510   0.08760   0.01267  Uiso   1.00
C39    C     0.35830   0.43240   0.09300   0.01267  Uiso   1.00
C40    C     0.34640   0.50250   0.96180   0.01267  Uiso   1.00
C41    C     0.38430   0.51010   0.91280   0.01267  Uiso   1.00
C42    C     0.34660   0.54490   0.87400   0.01267  Uiso   1.00
C43    C     0.27100   0.57200   0.88410   0.01267  Uiso   1.00
C44    C     0.23310   0.56440   0.93310   0.01267  Uiso   1.00
C45    C     0.13120   0.57540   0.03670   0.01267  Uiso   1.00
C46    C     0.99540   0.38890   0.41480   0.01267  Uiso   1.00
C47    C     0.61240   0.92430   0.03990   0.01267  Uiso   1.00
C48    C     0.15740   0.45010   0.02350   0.01267  Uiso   1.00
C49    C     0.02370   0.72740   0.90730   0.01267  Uiso   1.00
C50    C     0.34940   0.95120   0.98440   0.01267  Uiso   1.00
C51    C     0.06490   0.42400   0.22200   0.01267  Uiso   1.00
C52    C     0.45440   0.35790   0.13440   0.01267  Uiso   1.00
C53    C     0.22640   0.60660   0.84420   0.01267  Uiso   1.00
C54    C     0.58960   0.09620   0.21580   0.01267  Uiso   1.00
C55    C     0.63090   0.86620   0.83780   0.01267  Uiso   1.00
C56    C     0.89650   0.75490   0.02420   0.01267  Uiso   1.00
C57    C     0.40200   0.75530   0.45190   0.01267  Uiso   1.00
C58    C     0.80090   0.97630   0.93180   0.01267  Uiso   1.00
C59    C     0.81560   0.96570   0.87730   0.01267  Uiso   1.00
C60    C     0.76200   0.92910   0.84590   0.01267  Uiso   1.00
C61    C     0.69380   0.90300   0.86910   0.01267  Uiso   1.00
C62    C     0.67920   0.91360   0.92360   0.01267  Uiso   1.00
C63    C     0.84910   0.01420   0.96730   0.01267  Uiso   1.00
C64    C     0.92120   0.04230   0.95190   0.01267  Uiso   1.00
C65    C     0.96860   0.07540   0.98980   0.01267  Uiso   1.00
C66    C     0.94400   0.08030   0.04310   0.01267  Uiso   1.00
C67    C     0.87190   0.05220   0.05850   0.01267  Uiso   1.00
C68    C     0.78300   0.89950   0.12200   0.01267  Uiso   1.00
C69    C     0.82680   0.85300   0.14680   0.01267  Uiso   1.00
C70    C     0.86710   0.80630   0.11610   0.01267  Uiso   1.00
C71    C     0.86370   0.80620   0.06040   0.01267  Uiso   1.00
C72    C     0.81990   0.85270   0.03560   0.01267  Uiso   1.00
C73    C     0.73630   0.94750   0.14880   0.01267  Uiso   1.00
C74    C     0.72040   0.94830   0.20350   0.01267  Uiso   1.00
C75    C     0.67220   0.99580   0.22730   0.01267  Uiso   1.00
C76    C     0.63990   0.04250   0.19630   0.01267  Uiso   1.00
C77    C     0.65580   0.04180   0.14160   0.01267  Uiso   1.00
C78    C     0.22590   0.93710   0.33730   0.01267  Uiso   1.00
C79    C     0.20700   0.93510   0.28300   0.01267  Uiso   1.00
C80    C     0.15510   0.98020   0.26300   0.01267  Uiso   1.00
C81    C     0.12200   0.02710   0.29730   0.01267  Uiso   1.00
C82    C     0.14090   0.02900   0.35160   0.01267  Uiso   1.00
C83    C     0.27550   0.89100   0.36150   0.01267  Uiso   1.00
C84    C     0.31060   0.83850   0.33490   0.01267  Uiso   1.00
C85    C     0.35480   0.79540   0.36350   0.01267  Uiso   1.00
C86    C     0.36400   0.80480   0.41860   0.01267  Uiso   1.00
C87    C     0.32890   0.85720   0.44520   0.01267  Uiso   1.00
C88    C     0.37490   0.03540   0.49760   0.01267  Uiso   1.00
C89    C     0.44420   0.07270   0.50300   0.01267  Uiso   1.00
C90    C     0.47050   0.10740   0.46040   0.01267  Uiso   1.00
C91    C     0.42760   0.10490   0.41240   0.01267  Uiso   1.00
C92    C     0.35830   0.06760   0.40700   0.01267  Uiso   1.00
C93    C     0.34640   0.99750   0.53820   0.01267  Uiso   1.00
C94    C     0.38430   0.98990   0.58720   0.01267  Uiso   1.00
C95    C     0.34660   0.95510   0.62600   0.01267  Uiso   1.00
C96    C     0.27100   0.92800   0.61590   0.01267  Uiso   1.00
C97    C     0.23310   0.93560   0.56690   0.01267  Uiso   1.00
C98    C     0.13120   0.92460   0.46330   0.01267  Uiso   1.00
C99    C     0.99540   0.11110   0.08520   0.01267  Uiso   1.00
C100   C     0.61240   0.57570   0.46010   0.01267  Uiso   1.00
C101   C     0.15740   0.04990   0.47650   0.01267  Uiso   1.00
C102   C     0.02370   0.77260   0.59270   0.01267  Uiso   1.00
C103   C     0.34940   0.54880   0.51560   0.01267  Uiso   1.00
C104   C     0.06490   0.07600   0.27800   0.01267  Uiso   1.00
C105   C     0.45440   0.14210   0.36560   0.01267  Uiso   1.00
C106   C     0.22640   0.89340   0.65580   0.01267  Uiso   1.00
C107   C     0.41040   0.59620   0.71580   0.01267  Uiso   1.00
C108   C     0.36910   0.36620   0.33780   0.01267  Uiso   1.00
C109   C     0.10350   0.25490   0.52420   0.01267  Uiso   1.00
C110   C     0.59800   0.25530   0.95190   0.01267  Uiso   1.00
C111   C     0.19910   0.47630   0.43180   0.01267  Uiso   1.00
C112   C     0.18440   0.46570   0.37730   0.01267  Uiso   1.00
C113   C     0.23800   0.42910   0.34590   0.01267  Uiso   1.00
C114   C     0.30620   0.40300   0.36910   0.01267  Uiso   1.00
C115   C     0.32080   0.41360   0.42360   0.01267  Uiso   1.00
C116   C     0.15090   0.51420   0.46730   0.01267  Uiso   1.00
C117   C     0.07880   0.54230   0.45190   0.01267  Uiso   1.00
C118   C     0.03140   0.57540   0.48980   0.01267  Uiso   1.00
C119   C     0.05600   0.58030   0.54310   0.01267  Uiso   1.00
C120   C     0.12810   0.55220   0.55850   0.01267  Uiso   1.00
C121   C     0.21700   0.39950   0.62200   0.01267  Uiso   1.00
C122   C     0.17320   0.35300   0.64680   0.01267  Uiso   1.00
C123   C     0.13290   0.30630   0.61610   0.01267  Uiso   1.00
C124   C     0.13630   0.30620   0.56040   0.01267  Uiso   1.00
C125   C     0.18010   0.35270   0.53560   0.01267  Uiso   1.00
C126   C     0.26370   0.44750   0.64880   0.01267  Uiso   1.00
C127   C     0.27960   0.44830   0.70350   0.01267  Uiso   1.00
C128   C     0.32780   0.49580   0.72730   0.01267  Uiso   1.00
C129   C     0.36010   0.54250   0.69630   0.01267  Uiso   1.00
C130   C     0.34420   0.54180   0.64160   0.01267  Uiso   1.00
C131   C     0.77410   0.43710   0.83730   0.01267  Uiso   1.00
C132   C     0.79300   0.43510   0.78300   0.01267  Uiso   1.00
C133   C     0.84490   0.48020   0.76300   0.01267  Uiso   1.00
C134   C     0.87800   0.52710   0.79730   0.01267  Uiso   1.00
C135   C     0.85910   0.52900   0.85160   0.01267  Uiso   1.00
C136   C     0.72450   0.39100   0.86150   0.01267  Uiso   1.00
C137   C     0.68940   0.33850   0.83490   0.01267  Uiso   1.00
C138   C     0.64520   0.29540   0.86350   0.01267  Uiso   1.00
C139   C     0.63600   0.30480   0.91860   0.01267  Uiso   1.00
C140   C     0.67110   0.35720   0.94520   0.01267  Uiso   1.00
C141   C     0.62510   0.53540   0.99760   0.01267  Uiso   1.00
C142   C     0.55580   0.57270   0.00300   0.01267  Uiso   1.00
C143   C     0.52950   0.60740   0.96040   0.01267  Uiso   1.00
C144   C     0.57240   0.60490   0.91240   0.01267  Uiso   1.00
C145   C     0.64170   0.56760   0.90700   0.01267  Uiso   1.00
C146   C     0.65360   0.49750   0.03820   0.01267  Uiso   1.00
C147   C     0.61570   0.48990   0.08720   0.01267  Uiso   1.00
C148   C     0.65340   0.45510   0.12600   0.01267  Uiso   1.00
C149   C     0.72900   0.42800   0.11590   0.01267  Uiso   1.00
C150   C     0.76690   0.43560   0.06690   0.01267  Uiso   1.00
C151   C     0.86880   0.42460   0.96330   0.01267  Uiso   1.00
C152   C     0.00460   0.61110   0.58520   0.01267  Uiso   1.00
C153   C     0.38760   0.07570   0.96010   0.01267  Uiso   1.00
C154   C     0.84260   0.54990   0.97650   0.01267  Uiso   1.00
C155   C     0.97630   0.27260   0.09270   0.01267  Uiso   1.00
C156   C     0.65060   0.04880   0.01560   0.01267  Uiso   1.00
C157   C     0.93510   0.57600   0.77800   0.01267  Uiso   1.00
C158   C     0.54560   0.64210   0.86560   0.01267  Uiso   1.00
C159   C     0.77360   0.39340   0.15580   0.01267  Uiso   1.00
C160   C     0.41040   0.90380   0.78420   0.01267  Uiso   1.00
C161   C     0.36910   0.13380   0.16220   0.01267  Uiso   1.00
C162   C     0.10350   0.24510   0.97580   0.01267  Uiso   1.00
C163   C     0.59800   0.24470   0.54810   0.01267  Uiso   1.00
C164   C     0.19910   0.02370   0.06820   0.01267  Uiso   1.00
C165   C     0.18440   0.03430   0.12270   0.01267  Uiso   1.00
C166   C     0.23800   0.07090   0.15410   0.01267  Uiso   1.00
C167   C     0.30620   0.09700   0.13090   0.01267  Uiso   1.00
C168   C     0.32080   0.08640   0.07640   0.01267  Uiso   1.00
C169   C     0.15090   0.98580   0.03270   0.01267  Uiso   1.00
C170   C     0.07880   0.95770   0.04810   0.01267  Uiso   1.00
C171   C     0.03140   0.92460   0.01020   0.01267  Uiso   1.00
C172   C     0.05600   0.91970   0.95690   0.01267  Uiso   1.00
C173   C     0.12810   0.94780   0.94150   0.01267  Uiso   1.00
C174   C     0.21700   0.10050   0.87800   0.01267  Uiso   1.00
C175   C     0.17320   0.14700   0.85320   0.01267  Uiso   1.00
C176   C     0.13290   0.19370   0.88390   0.01267  Uiso   1.00
C177   C     0.13630   0.19380   0.93960   0.01267  Uiso   1.00
C178   C     0.18010   0.14730   0.96440   0.01267  Uiso   1.00
C179   C     0.26370   0.05250   0.85120   0.01267  Uiso   1.00
C180   C     0.27960   0.05170   0.79650   0.01267  Uiso   1.00
C181   C     0.32780   0.00420   0.77270   0.01267  Uiso   1.00
C182   C     0.36010   0.95750   0.80370   0.01267  Uiso   1.00
C183   C     0.34420   0.95820   0.85840   0.01267  Uiso   1.00
C184   C     0.77410   0.06290   0.66270   0.01267  Uiso   1.00
C185   C     0.79300   0.06490   0.71700   0.01267  Uiso   1.00
C186   C     0.84490   0.01980   0.73700   0.01267  Uiso   1.00
C187   C     0.87800   0.97290   0.70270   0.01267  Uiso   1.00
C188   C     0.85910   0.97100   0.64840   0.01267  Uiso   1.00
C189   C     0.72450   0.10900   0.63850   0.01267  Uiso   1.00
C190   C     0.68940   0.16150   0.66510   0.01267  Uiso   1.00
C191   C     0.64520   0.20460   0.63650   0.01267  Uiso   1.00
C192   C     0.63600   0.19520   0.58140   0.01267  Uiso   1.00
C193   C     0.67110   0.14280   0.55480   0.01267  Uiso   1.00
C194   C     0.62510   0.96460   0.50240   0.01267  Uiso   1.00
C195   C     0.55580   0.92730   0.49700   0.01267  Uiso   1.00
C196   C     0.52950   0.89260   0.53960   0.01267  Uiso   1.00
C197   C     0.57240   0.89510   0.58760   0.01267  Uiso   1.00
C198   C     0.64170   0.93240   0.59300   0.01267  Uiso   1.00
C199   C     0.65360   0.00250   0.46180   0.01267  Uiso   1.00
C200   C     0.61570   0.01010   0.41280   0.01267  Uiso   1.00
C201   C     0.65340   0.04490   0.37400   0.01267  Uiso   1.00
C202   C     0.72900   0.07200   0.38410   0.01267  Uiso   1.00
C203   C     0.76690   0.06440   0.43310   0.01267  Uiso   1.00
C204   C     0.86880   0.07540   0.53670   0.01267  Uiso   1.00
C205   C     0.00460   0.88890   0.91480   0.01267  Uiso   1.00
C206   C     0.38760   0.42430   0.53990   0.01267  Uiso   1.00
C207   C     0.84260   0.95010   0.52350   0.01267  Uiso   1.00
C208   C     0.97630   0.22740   0.40730   0.01267  Uiso   1.00
C209   C     0.65060   0.45120   0.48440   0.01267  Uiso   1.00
C210   C     0.93510   0.92400   0.72200   0.01267  Uiso   1.00
C211   C     0.54560   0.85790   0.63440   0.01267  Uiso   1.00
C212   C     0.77360   0.10660   0.34420   0.01267  Uiso   1.00
N1     N     0.38290   0.90490   0.99400   0.01267  Uiso   1.00
N2     N     0.11230   0.40800   0.01330   0.01267  Uiso   1.00
N3     N     0.73270   0.54970   0.54500   0.01267  Uiso   1.00
N4     N     0.82450   0.48080   0.47950   0.01267  Uiso   1.00
N5     N     0.77950   0.60060   0.43360   0.01267  Uiso   1.00
N6     N     0.70400   0.50570   0.38210   0.01267  Uiso   1.00
N7     N     0.19290   0.51600   0.12840   0.01267  Uiso   1.00
N8     N     0.28470   0.59970   0.08340   0.01267  Uiso   1.00
N9     N     0.33200   0.46720   0.05040   0.01267  Uiso   1.00
N10    N     0.27070   0.52960   0.97190   0.01267  Uiso   1.00
N11    N     0.07430   0.60660   0.02690   0.01267  Uiso   1.00
N12    N     0.55780   0.89270   0.04040   0.01267  Uiso   1.00
N13    N     0.38290   0.59510   0.50600   0.01267  Uiso   1.00
N14    N     0.11230   0.09200   0.48670   0.01267  Uiso   1.00
N15    N     0.73270   0.95030   0.95500   0.01267  Uiso   1.00
N16    N     0.82450   0.01920   0.02050   0.01267  Uiso   1.00
N17    N     0.77950   0.89940   0.06640   0.01267  Uiso   1.00
N18    N     0.70400   0.99430   0.11790   0.01267  Uiso   1.00
N19    N     0.19290   0.98400   0.37160   0.01267  Uiso   1.00
N20    N     0.28470   0.90030   0.41660   0.01267  Uiso   1.00
N21    N     0.33200   0.03280   0.44960   0.01267  Uiso   1.00
N22    N     0.27070   0.97040   0.52810   0.01267  Uiso   1.00
N23    N     0.07430   0.89340   0.47310   0.01267  Uiso   1.00
N24    N     0.55780   0.60730   0.45960   0.01267  Uiso   1.00
N25    N     0.61710   0.09510   0.00600   0.01267  Uiso   1.00
N26    N     0.88770   0.59200   0.98670   0.01267  Uiso   1.00
N27    N     0.26730   0.45030   0.45500   0.01267  Uiso   1.00
N28    N     0.17550   0.51920   0.52050   0.01267  Uiso   1.00
N29    N     0.22050   0.39940   0.56640   0.01267  Uiso   1.00
N30    N     0.29600   0.49430   0.61790   0.01267  Uiso   1.00
N31    N     0.80710   0.48400   0.87160   0.01267  Uiso   1.00
N32    N     0.71530   0.40030   0.91660   0.01267  Uiso   1.00
N33    N     0.66800   0.53280   0.94960   0.01267  Uiso   1.00
N34    N     0.72930   0.47040   0.02810   0.01267  Uiso   1.00
N35    N     0.92570   0.39340   0.97310   0.01267  Uiso   1.00
N36    N     0.44220   0.10730   0.95960   0.01267  Uiso   1.00
N37    N     0.61710   0.40490   0.49400   0.01267  Uiso   1.00
N38    N     0.88770   0.90800   0.51330   0.01267  Uiso   1.00
N39    N     0.26730   0.04970   0.04500   0.01267  Uiso   1.00
N40    N     0.17550   0.98080   0.97950   0.01267  Uiso   1.00
N41    N     0.22050   0.10060   0.93360   0.01267  Uiso   1.00
N42    N     0.29600   0.00570   0.88210   0.01267  Uiso   1.00
N43    N     0.80710   0.01600   0.62840   0.01267  Uiso   1.00
N44    N     0.71530   0.09970   0.58340   0.01267  Uiso   1.00
N45    N     0.66800   0.96720   0.55040   0.01267  Uiso   1.00
N46    N     0.72930   0.02960   0.47190   0.01267  Uiso   1.00
N47    N     0.92570   0.10660   0.52690   0.01267  Uiso   1.00
N48    N     0.44220   0.39270   0.54040   0.01267  Uiso   1.00
O1     O     0.60080   0.35040   0.30600   0.01267  Uiso   1.00
O2     O     0.54390   0.40470   0.24910   0.01267  Uiso   1.00
O3     O     0.63820   0.63360   0.71210   0.01267  Uiso   1.00
O4     O     0.95460   0.77680   0.45550   0.01267  Uiso   1.00
O5     O     0.42850   0.79190   0.07310   0.01267  Uiso   1.00
O6     O     0.15310   0.61520   0.84900   0.01267  Uiso   1.00
O7     O     0.02050   0.39870   0.18570   0.01267  Uiso   1.00
O8     O     0.04280   0.73660   0.85950   0.01267  Uiso   1.00
O9     O     0.06980   0.41150   0.26820   0.01267  Uiso   1.00
O10    O     0.41330   0.36550   0.17640   0.01267  Uiso   1.00
O11    O     0.06230   0.37070   0.42670   0.01267  Uiso   1.00
O12    O     0.86960   0.75570   0.52060   0.01267  Uiso   1.00
O13    O     0.50920   0.31980   0.12840   0.01267  Uiso   1.00
O14    O     0.96560   0.38780   0.36760   0.01267  Uiso   1.00
O15    O     0.92800   0.31270   0.25770   0.01267  Uiso   1.00
O16    O     0.02230   0.67270   0.92480   0.01267  Uiso   1.00
O17    O     0.25770   0.61630   0.79930   0.01267  Uiso   1.00
O18    O     0.40400   0.73370   0.99980   0.01267  Uiso   1.00
O19    O     0.58020   0.66380   0.63950   0.01267  Uiso   1.00
O20    O     0.60080   0.14960   0.19400   0.01267  Uiso   1.00
O21    O     0.54390   0.09530   0.25090   0.01267  Uiso   1.00
O22    O     0.63820   0.86640   0.78790   0.01267  Uiso   1.00
O23    O     0.95460   0.72320   0.04450   0.01267  Uiso   1.00
O24    O     0.42850   0.70810   0.42690   0.01267  Uiso   1.00
O25    O     0.15310   0.88480   0.65100   0.01267  Uiso   1.00
O26    O     0.02050   0.10130   0.31430   0.01267  Uiso   1.00
O27    O     0.04280   0.76340   0.64050   0.01267  Uiso   1.00
O28    O     0.06980   0.08850   0.23180   0.01267  Uiso   1.00
O29    O     0.41330   0.13450   0.32360   0.01267  Uiso   1.00
O30    O     0.06230   0.12930   0.07330   0.01267  Uiso   1.00
O31    O     0.86960   0.74430   0.97940   0.01267  Uiso   1.00
O32    O     0.50920   0.18020   0.37160   0.01267  Uiso   1.00
O33    O     0.96560   0.11220   0.13240   0.01267  Uiso   1.00
O34    O     0.92800   0.18730   0.24230   0.01267  Uiso   1.00
O35    O     0.02230   0.82730   0.57520   0.01267  Uiso   1.00
O36    O     0.25770   0.88370   0.70070   0.01267  Uiso   1.00
O37    O     0.40400   0.76630   0.50020   0.01267  Uiso   1.00
O38    O     0.58020   0.83620   0.86050   0.01267  Uiso   1.00
O39    O     0.39920   0.64960   0.69400   0.01267  Uiso   1.00
O40    O     0.45610   0.59530   0.75090   0.01267  Uiso   1.00
O41    O     0.36180   0.36640   0.28790   0.01267  Uiso   1.00
O42    O     0.04540   0.22320   0.54450   0.01267  Uiso   1.00
O43    O     0.57150   0.20810   0.92690   0.01267  Uiso   1.00
O44    O     0.84690   0.38480   0.15100   0.01267  Uiso   1.00
O45    O     0.97950   0.60130   0.81430   0.01267  Uiso   1.00
O46    O     0.95720   0.26340   0.14050   0.01267  Uiso   1.00
O47    O     0.93020   0.58850   0.73180   0.01267  Uiso   1.00
O48    O     0.58670   0.63450   0.82360   0.01267  Uiso   1.00
O49    O     0.93770   0.62930   0.57330   0.01267  Uiso   1.00
O50    O     0.13040   0.24430   0.47940   0.01267  Uiso   1.00
O51    O     0.49080   0.68020   0.87160   0.01267  Uiso   1.00
O52    O     0.03440   0.61220   0.63240   0.01267  Uiso   1.00
O53    O     0.07200   0.68730   0.74230   0.01267  Uiso   1.00
O54    O     0.97770   0.32730   0.07520   0.01267  Uiso   1.00
O55    O     0.74230   0.38370   0.20070   0.01267  Uiso   1.00
O56    O     0.59600   0.26630   0.00020   0.01267  Uiso   1.00
O57    O     0.41980   0.33620   0.36050   0.01267  Uiso   1.00
O58    O     0.39920   0.85040   0.80600   0.01267  Uiso   1.00
O59    O     0.45610   0.90470   0.74910   0.01267  Uiso   1.00
O60    O     0.36180   0.13360   0.21210   0.01267  Uiso   1.00
O61    O     0.04540   0.27680   0.95550   0.01267  Uiso   1.00
O62    O     0.57150   0.29190   0.57310   0.01267  Uiso   1.00
O63    O     0.84690   0.11520   0.34900   0.01267  Uiso   1.00
O64    O     0.97950   0.89870   0.68570   0.01267  Uiso   1.00
O65    O     0.95720   0.23660   0.35950   0.01267  Uiso   1.00
O66    O     0.93020   0.91150   0.76820   0.01267  Uiso   1.00
O67    O     0.58670   0.86550   0.67640   0.01267  Uiso   1.00
O68    O     0.93770   0.87070   0.92670   0.01267  Uiso   1.00
O69    O     0.13040   0.25570   0.02060   0.01267  Uiso   1.00
O70    O     0.49080   0.81980   0.62840   0.01267  Uiso   1.00
O71    O     0.03440   0.88780   0.86760   0.01267  Uiso   1.00
O72    O     0.07200   0.81270   0.75770   0.01267  Uiso   1.00
O73    O     0.97770   0.17270   0.42480   0.01267  Uiso   1.00
O74    O     0.74230   0.11630   0.29930   0.01267  Uiso   1.00
O75    O     0.59600   0.23370   0.49980   0.01267  Uiso   1.00
O76    O     0.41980   0.16380   0.13950   0.01267  Uiso   1.00
O77    O     0.48360   0.25000   0.25000   0.01267  Uiso   1.00
O78    O     0.51640   0.75000   0.75000   0.01267  Uiso   1.00
