data_image0
_cell_length_a       10.2355
_cell_length_b       10.2355
_cell_length_c       28.105
_cell_angle_alpha    90
_cell_angle_beta     90
_cell_angle_gamma    90

_symmetry_space_group_name_H-M    "P 1"
_symmetry_int_tables_number       1

loop_
  _symmetry_equiv_pos_as_xyz
  'x, y, z'

loop_
  _atom_site_label
  _atom_site_occupancy
  _atom_site_fract_x
  _atom_site_fract_y
  _atom_site_fract_z
  _atom_site_thermal_displace_type
  _atom_site_B_iso_or_equiv
  _atom_site_type_symbol
  Ag1      1.0000 0.60614  0.19679  0.23360  Biso   1.000  Ag
  N1       1.0000 0.81060  0.03620  0.02303  Biso   1.000  N
  N2       1.0000 0.75190  0.04390  0.22032  Biso   1.000  N
  O1       1.0000 0.78770  0.25960  0.16550  Biso   1.000  O
  C1       1.0000 0.79220  0.04600  0.06988  Biso   1.000  C
  H1       1.0000 0.73930  0.98460  0.08490  Biso   1.000  H
  C2       1.0000 0.84850  0.14360  0.09707  Biso   1.000  C
  C3       1.0000 0.92910  0.23360  0.07572  Biso   1.000  C
  H2       1.0000 0.96670  0.30080  0.09330  Biso   1.000  H
  C4       1.0000 0.95290  0.22170  0.02730  Biso   1.000  C
  H3       1.0000 0.00880  0.27960  0.01190  Biso   1.000  H
  C5       1.0000 0.89280  0.12340  0.00247  Biso   1.000  C
  H4       1.0000 0.90910  0.11620  0.97000  Biso   1.000  H
  C6       1.0000 0.81510  0.15510  0.14851  Biso   1.000  C
  C7       1.0000 0.82140  0.03660  0.17966  Biso   1.000  C
  C8       1.0000 0.90300  0.93430  0.16966  Biso   1.000  C
  H5       1.0000 0.94590  0.93020  0.14050  Biso   1.000  H
  C9       1.0000 0.92140  0.83640  0.20342  Biso   1.000  C
  H6       1.0000 0.97760  0.76680  0.19770  Biso   1.000  H
  C10      1.0000 0.85410  0.84610  0.24511  Biso   1.000  C
  H7       1.0000 0.86610  0.78360  0.26880  Biso   1.000  H
  C11      1.0000 0.76850  0.94800  0.25235  Biso   1.000  C
  H8       1.0000 0.72050  0.95040  0.28040  Biso   1.000  H
  Ag2      1.0000 0.39386  0.80321  0.73360  Biso   1.000  Ag
  N3       1.0000 0.18940  0.96380  0.52303  Biso   1.000  N
  N4       1.0000 0.24810  0.95610  0.72032  Biso   1.000  N
  O2       1.0000 0.21230  0.74040  0.66550  Biso   1.000  O
  C12      1.0000 0.20780  0.95400  0.56988  Biso   1.000  C
  H9       1.0000 0.26070  0.01540  0.58490  Biso   1.000  H
  C13      1.0000 0.15150  0.85640  0.59707  Biso   1.000  C
  C14      1.0000 0.07090  0.76640  0.57572  Biso   1.000  C
  H10      1.0000 0.03330  0.69920  0.59330  Biso   1.000  H
  C15      1.0000 0.04710  0.77830  0.52730  Biso   1.000  C
  H11      1.0000 0.99120  0.72040  0.51190  Biso   1.000  H
  C16      1.0000 0.10720  0.87660  0.50247  Biso   1.000  C
  H12      1.0000 0.09090  0.88380  0.47000  Biso   1.000  H
  C17      1.0000 0.18490  0.84490  0.64851  Biso   1.000  C
  C18      1.0000 0.17860  0.96340  0.67966  Biso   1.000  C
  C19      1.0000 0.09700  0.06570  0.66966  Biso   1.000  C
  H13      1.0000 0.05410  0.06980  0.64050  Biso   1.000  H
  C20      1.0000 0.07860  0.16360  0.70342  Biso   1.000  C
  H14      1.0000 0.02240  0.23320  0.69770  Biso   1.000  H
  C21      1.0000 0.14590  0.15390  0.74511  Biso   1.000  C
  H15      1.0000 0.13390  0.21640  0.76880  Biso   1.000  H
  C22      1.0000 0.23150  0.05200  0.75235  Biso   1.000  C
  H16      1.0000 0.27950  0.04960  0.78040  Biso   1.000  H
  Ag3      1.0000 0.30321  0.10614  0.48360  Biso   1.000  Ag
  N5       1.0000 0.46380  0.31060  0.27303  Biso   1.000  N
  N6       1.0000 0.45610  0.25190  0.47032  Biso   1.000  N
  O3       1.0000 0.24040  0.28770  0.41550  Biso   1.000  O
  C23      1.0000 0.45400  0.29220  0.31988  Biso   1.000  C
  H17      1.0000 0.51540  0.23930  0.33490  Biso   1.000  H
  C24      1.0000 0.35640  0.34850  0.34707  Biso   1.000  C
  C25      1.0000 0.26640  0.42910  0.32572  Biso   1.000  C
  H18      1.0000 0.19920  0.46670  0.34330  Biso   1.000  H
  C26      1.0000 0.27830  0.45290  0.27730  Biso   1.000  C
  H19      1.0000 0.22040  0.50880  0.26190  Biso   1.000  H
  C27      1.0000 0.37660  0.39280  0.25247  Biso   1.000  C
  H20      1.0000 0.38380  0.40910  0.22000  Biso   1.000  H
  C28      1.0000 0.34490  0.31510  0.39851  Biso   1.000  C
  C29      1.0000 0.46340  0.32140  0.42966  Biso   1.000  C
  C30      1.0000 0.56570  0.40300  0.41966  Biso   1.000  C
  H21      1.0000 0.56980  0.44590  0.39050  Biso   1.000  H
  C31      1.0000 0.66360  0.42140  0.45342  Biso   1.000  C
  H22      1.0000 0.73320  0.47760  0.44770  Biso   1.000  H
  C32      1.0000 0.65390  0.35410  0.49511  Biso   1.000  C
  H23      1.0000 0.71640  0.36610  0.51880  Biso   1.000  H
  C33      1.0000 0.55200  0.26850  0.50235  Biso   1.000  C
  H24      1.0000 0.54960  0.22050  0.53040  Biso   1.000  H
  Ag4      1.0000 0.69679  0.89386  0.98360  Biso   1.000  Ag
  N7       1.0000 0.53620  0.68940  0.77303  Biso   1.000  N
  N8       1.0000 0.54390  0.74810  0.97032  Biso   1.000  N
  O4       1.0000 0.75960  0.71230  0.91550  Biso   1.000  O
  C34      1.0000 0.54600  0.70780  0.81988  Biso   1.000  C
  H25      1.0000 0.48460  0.76070  0.83490  Biso   1.000  H
  C35      1.0000 0.64360  0.65150  0.84707  Biso   1.000  C
  C36      1.0000 0.73360  0.57090  0.82572  Biso   1.000  C
  H26      1.0000 0.80080  0.53330  0.84330  Biso   1.000  H
  C37      1.0000 0.72170  0.54710  0.77730  Biso   1.000  C
  H27      1.0000 0.77960  0.49120  0.76190  Biso   1.000  H
  C38      1.0000 0.62340  0.60720  0.75247  Biso   1.000  C
  H28      1.0000 0.61620  0.59090  0.72000  Biso   1.000  H
  C39      1.0000 0.65510  0.68490  0.89851  Biso   1.000  C
  C40      1.0000 0.53660  0.67860  0.92966  Biso   1.000  C
  C41      1.0000 0.43430  0.59700  0.91966  Biso   1.000  C
  H29      1.0000 0.43020  0.55410  0.89050  Biso   1.000  H
  C42      1.0000 0.33640  0.57860  0.95342  Biso   1.000  C
  H30      1.0000 0.26680  0.52240  0.94770  Biso   1.000  H
  C43      1.0000 0.34610  0.64590  0.99511  Biso   1.000  C
  H31      1.0000 0.28360  0.63390  0.01880  Biso   1.000  H
  C44      1.0000 0.44800  0.73150  0.00235  Biso   1.000  C
  H32      1.0000 0.45040  0.77950  0.03040  Biso   1.000  H
  Ag5      1.0000 0.89386  0.69679  0.01640  Biso   1.000  Ag
  N9       1.0000 0.68940  0.53620  0.22697  Biso   1.000  N
  N10      1.0000 0.74810  0.54390  0.02968  Biso   1.000  N
  O5       1.0000 0.71230  0.75960  0.08450  Biso   1.000  O
  C45      1.0000 0.70780  0.54600  0.18012  Biso   1.000  C
  H33      1.0000 0.76070  0.48460  0.16510  Biso   1.000  H
  C46      1.0000 0.65150  0.64360  0.15293  Biso   1.000  C
  C47      1.0000 0.57090  0.73360  0.17428  Biso   1.000  C
  H34      1.0000 0.53330  0.80080  0.15670  Biso   1.000  H
  C48      1.0000 0.54710  0.72170  0.22270  Biso   1.000  C
  H35      1.0000 0.49120  0.77960  0.23810  Biso   1.000  H
  C49      1.0000 0.60720  0.62340  0.24753  Biso   1.000  C
  H36      1.0000 0.59090  0.61620  0.28000  Biso   1.000  H
  C50      1.0000 0.68490  0.65510  0.10149  Biso   1.000  C
  C51      1.0000 0.67860  0.53660  0.07034  Biso   1.000  C
  C52      1.0000 0.59700  0.43430  0.08034  Biso   1.000  C
  H37      1.0000 0.55410  0.43020  0.10950  Biso   1.000  H
  C53      1.0000 0.57860  0.33640  0.04658  Biso   1.000  C
  H38      1.0000 0.52240  0.26680  0.05230  Biso   1.000  H
  C54      1.0000 0.64590  0.34610  0.00489  Biso   1.000  C
  H39      1.0000 0.63390  0.28360  0.98120  Biso   1.000  H
  C55      1.0000 0.73150  0.44800  0.99765  Biso   1.000  C
  H40      1.0000 0.77950  0.45040  0.96960  Biso   1.000  H
  Ag6      1.0000 0.10614  0.30321  0.51640  Biso   1.000  Ag
  N11      1.0000 0.31060  0.46380  0.72697  Biso   1.000  N
  N12      1.0000 0.25190  0.45610  0.52968  Biso   1.000  N
  O6       1.0000 0.28770  0.24040  0.58450  Biso   1.000  O
  C56      1.0000 0.29220  0.45400  0.68012  Biso   1.000  C
  H41      1.0000 0.23930  0.51540  0.66510  Biso   1.000  H
  C57      1.0000 0.34850  0.35640  0.65293  Biso   1.000  C
  C58      1.0000 0.42910  0.26640  0.67428  Biso   1.000  C
  H42      1.0000 0.46670  0.19920  0.65670  Biso   1.000  H
  C59      1.0000 0.45290  0.27830  0.72270  Biso   1.000  C
  H43      1.0000 0.50880  0.22040  0.73810  Biso   1.000  H
  C60      1.0000 0.39280  0.37660  0.74753  Biso   1.000  C
  H44      1.0000 0.40910  0.38380  0.78000  Biso   1.000  H
  C61      1.0000 0.31510  0.34490  0.60149  Biso   1.000  C
  C62      1.0000 0.32140  0.46340  0.57034  Biso   1.000  C
  C63      1.0000 0.40300  0.56570  0.58034  Biso   1.000  C
  H45      1.0000 0.44590  0.56980  0.60950  Biso   1.000  H
  C64      1.0000 0.42140  0.66360  0.54658  Biso   1.000  C
  H46      1.0000 0.47760  0.73320  0.55230  Biso   1.000  H
  C65      1.0000 0.35410  0.65390  0.50489  Biso   1.000  C
  H47      1.0000 0.36610  0.71640  0.48120  Biso   1.000  H
  C66      1.0000 0.26850  0.55200  0.49765  Biso   1.000  C
  H48      1.0000 0.22050  0.54960  0.46960  Biso   1.000  H
  Ag7      1.0000 0.19679  0.60614  0.76640  Biso   1.000  Ag
  N13      1.0000 0.03620  0.81060  0.97697  Biso   1.000  N
  N14      1.0000 0.04390  0.75190  0.77968  Biso   1.000  N
  O7       1.0000 0.25960  0.78770  0.83450  Biso   1.000  O
  C67      1.0000 0.04600  0.79220  0.93012  Biso   1.000  C
  H49      1.0000 0.98460  0.73930  0.91510  Biso   1.000  H
  C68      1.0000 0.14360  0.84850  0.90293  Biso   1.000  C
  C69      1.0000 0.23360  0.92910  0.92428  Biso   1.000  C
  H50      1.0000 0.30080  0.96670  0.90670  Biso   1.000  H
  C70      1.0000 0.22170  0.95290  0.97270  Biso   1.000  C
  H51      1.0000 0.27960  0.00880  0.98810  Biso   1.000  H
  C71      1.0000 0.12340  0.89280  0.99753  Biso   1.000  C
  H52      1.0000 0.11620  0.90910  0.03000  Biso   1.000  H
  C72      1.0000 0.15510  0.81510  0.85149  Biso   1.000  C
  C73      1.0000 0.03660  0.82140  0.82034  Biso   1.000  C
  C74      1.0000 0.93430  0.90300  0.83034  Biso   1.000  C
  H53      1.0000 0.93020  0.94590  0.85950  Biso   1.000  H
  C75      1.0000 0.83640  0.92140  0.79658  Biso   1.000  C
  H54      1.0000 0.76680  0.97760  0.80230  Biso   1.000  H
  C76      1.0000 0.84610  0.85410  0.75489  Biso   1.000  C
  H55      1.0000 0.78360  0.86610  0.73120  Biso   1.000  H
  C77      1.0000 0.94800  0.76850  0.74765  Biso   1.000  C
  H56      1.0000 0.95040  0.72050  0.71960  Biso   1.000  H
  Ag8      1.0000 0.80321  0.39386  0.26640  Biso   1.000  Ag
  N15      1.0000 0.96380  0.18940  0.47697  Biso   1.000  N
  N16      1.0000 0.95610  0.24810  0.27968  Biso   1.000  N
  O8       1.0000 0.74040  0.21230  0.33450  Biso   1.000  O
  C78      1.0000 0.95400  0.20780  0.43012  Biso   1.000  C
  H57      1.0000 0.01540  0.26070  0.41510  Biso   1.000  H
  C79      1.0000 0.85640  0.15150  0.40293  Biso   1.000  C
  C80      1.0000 0.76640  0.07090  0.42428  Biso   1.000  C
  H58      1.0000 0.69920  0.03330  0.40670  Biso   1.000  H
  C81      1.0000 0.77830  0.04710  0.47270  Biso   1.000  C
  H59      1.0000 0.72040  0.99120  0.48810  Biso   1.000  H
  C82      1.0000 0.87660  0.10720  0.49753  Biso   1.000  C
  H60      1.0000 0.88380  0.09090  0.53000  Biso   1.000  H
  C83      1.0000 0.84490  0.18490  0.35149  Biso   1.000  C
  C84      1.0000 0.96340  0.17860  0.32034  Biso   1.000  C
  C85      1.0000 0.06570  0.09700  0.33034  Biso   1.000  C
  H61      1.0000 0.06980  0.05410  0.35950  Biso   1.000  H
  C86      1.0000 0.16360  0.07860  0.29658  Biso   1.000  C
  H62      1.0000 0.23320  0.02240  0.30230  Biso   1.000  H
  C87      1.0000 0.15390  0.14590  0.25489  Biso   1.000  C
  H63      1.0000 0.21640  0.13390  0.23120  Biso   1.000  H
  C88      1.0000 0.05200  0.23150  0.24765  Biso   1.000  C
  H64      1.0000 0.04960  0.27950  0.21960  Biso   1.000  H
