data_image0
_cell_length_a       10.2364
_cell_length_b       10.2364
_cell_length_c       28.109
_cell_angle_alpha    90
_cell_angle_beta     90
_cell_angle_gamma    90

_symmetry_space_group_name_H-M    "P 1"
_symmetry_int_tables_number       1

loop_
  _symmetry_equiv_pos_as_xyz
  'x, y, z'

loop_
  _atom_site_label
  _atom_site_occupancy
  _atom_site_fract_x
  _atom_site_fract_y
  _atom_site_fract_z
  _atom_site_thermal_displace_type
  _atom_site_B_iso_or_equiv
  _atom_site_type_symbol
  Ag1      1.0000 0.80322  0.60615  0.51640  Biso   1.000  Ag
  N1       1.0000 0.96360  0.81080  0.72690  Biso   1.000  N
  N2       1.0000 0.95620  0.75210  0.52959  Biso   1.000  N
  O1       1.0000 0.74020  0.78800  0.58450  Biso   1.000  O
  C1       1.0000 0.95410  0.79210  0.68016  Biso   1.000  C
  H1       1.0000 0.01540  0.73910  0.66520  Biso   1.000  H
  C2       1.0000 0.85640  0.84860  0.65286  Biso   1.000  C
  C3       1.0000 0.76610  0.92900  0.67430  Biso   1.000  C
  H2       1.0000 0.69870  0.96650  0.65680  Biso   1.000  H
  C4       1.0000 0.77820  0.95270  0.72274  Biso   1.000  C
  H3       1.0000 0.72030  0.00860  0.73810  Biso   1.000  H
  C5       1.0000 0.87640  0.89280  0.74756  Biso   1.000  C
  H4       1.0000 0.88350  0.90900  0.78000  Biso   1.000  H
  C6       1.0000 0.84480  0.81520  0.60149  Biso   1.000  C
  C7       1.0000 0.96320  0.82150  0.57032  Biso   1.000  C
  C8       1.0000 0.06570  0.90330  0.58033  Biso   1.000  C
  H5       1.0000 0.06980  0.94620  0.60950  Biso   1.000  H
  C9       1.0000 0.16330  0.92170  0.54666  Biso   1.000  C
  H6       1.0000 0.23280  0.97810  0.55240  Biso   1.000  H
  C10      1.0000 0.15400  0.85450  0.50490  Biso   1.000  C
  H7       1.0000 0.21650  0.86650  0.48130  Biso   1.000  H
  C11      1.0000 0.05200  0.76870  0.49763  Biso   1.000  C
  H8       1.0000 0.04960  0.72060  0.46960  Biso   1.000  H
  Ag2      1.0000 0.19678  0.39385  0.01640  Biso   1.000  Ag
  N3       1.0000 0.03640  0.18920  0.22690  Biso   1.000  N
  N4       1.0000 0.04380  0.24790  0.02959  Biso   1.000  N
  O2       1.0000 0.25980  0.21200  0.08450  Biso   1.000  O
  C12      1.0000 0.04590  0.20790  0.18016  Biso   1.000  C
  H9       1.0000 0.98460  0.26090  0.16520  Biso   1.000  H
  C13      1.0000 0.14360  0.15140  0.15286  Biso   1.000  C
  C14      1.0000 0.23390  0.07100  0.17430  Biso   1.000  C
  H10      1.0000 0.30130  0.03350  0.15680  Biso   1.000  H
  C15      1.0000 0.22180  0.04730  0.22274  Biso   1.000  C
  H11      1.0000 0.27970  0.99140  0.23810  Biso   1.000  H
  C16      1.0000 0.12360  0.10720  0.24756  Biso   1.000  C
  H12      1.0000 0.11650  0.09100  0.28000  Biso   1.000  H
  C17      1.0000 0.15520  0.18480  0.10149  Biso   1.000  C
  C18      1.0000 0.03680  0.17850  0.07032  Biso   1.000  C
  C19      1.0000 0.93430  0.09670  0.08033  Biso   1.000  C
  H13      1.0000 0.93020  0.05380  0.10950  Biso   1.000  H
  C20      1.0000 0.83670  0.07830  0.04666  Biso   1.000  C
  H14      1.0000 0.76720  0.02190  0.05240  Biso   1.000  H
  C21      1.0000 0.84600  0.14550  0.00490  Biso   1.000  C
  H15      1.0000 0.78350  0.13350  0.98130  Biso   1.000  H
  C22      1.0000 0.94800  0.23130  0.99763  Biso   1.000  C
  H16      1.0000 0.95040  0.27940  0.96960  Biso   1.000  H
  Ag3      1.0000 0.89385  0.30322  0.26640  Biso   1.000  Ag
  N5       1.0000 0.68920  0.46360  0.47690  Biso   1.000  N
  N6       1.0000 0.74790  0.45620  0.27959  Biso   1.000  N
  O3       1.0000 0.71200  0.24020  0.33450  Biso   1.000  O
  C23      1.0000 0.70790  0.45410  0.43016  Biso   1.000  C
  H17      1.0000 0.76090  0.51540  0.41520  Biso   1.000  H
  C24      1.0000 0.65140  0.35640  0.40286  Biso   1.000  C
  C25      1.0000 0.57100  0.26610  0.42430  Biso   1.000  C
  H18      1.0000 0.53350  0.19870  0.40680  Biso   1.000  H
  C26      1.0000 0.54730  0.27820  0.47274  Biso   1.000  C
  H19      1.0000 0.49140  0.22030  0.48810  Biso   1.000  H
  C27      1.0000 0.60720  0.37640  0.49756  Biso   1.000  C
  H20      1.0000 0.59100  0.38350  0.53000  Biso   1.000  H
  C28      1.0000 0.68480  0.34480  0.35149  Biso   1.000  C
  C29      1.0000 0.67850  0.46320  0.32032  Biso   1.000  C
  C30      1.0000 0.59670  0.56570  0.33033  Biso   1.000  C
  H21      1.0000 0.55380  0.56980  0.35950  Biso   1.000  H
  C31      1.0000 0.57830  0.66330  0.29666  Biso   1.000  C
  H22      1.0000 0.52190  0.73280  0.30240  Biso   1.000  H
  C32      1.0000 0.64550  0.65400  0.25490  Biso   1.000  C
  H23      1.0000 0.63350  0.71650  0.23130  Biso   1.000  H
  C33      1.0000 0.73130  0.55200  0.24763  Biso   1.000  C
  H24      1.0000 0.77940  0.54960  0.21960  Biso   1.000  H
  Ag4      1.0000 0.10615  0.69678  0.76640  Biso   1.000  Ag
  N7       1.0000 0.31080  0.53640  0.97690  Biso   1.000  N
  N8       1.0000 0.25210  0.54380  0.77959  Biso   1.000  N
  O4       1.0000 0.28800  0.75980  0.83450  Biso   1.000  O
  C34      1.0000 0.29210  0.54590  0.93016  Biso   1.000  C
  H25      1.0000 0.23910  0.48460  0.91520  Biso   1.000  H
  C35      1.0000 0.34860  0.64360  0.90286  Biso   1.000  C
  C36      1.0000 0.42900  0.73390  0.92430  Biso   1.000  C
  H26      1.0000 0.46650  0.80130  0.90680  Biso   1.000  H
  C37      1.0000 0.45270  0.72180  0.97274  Biso   1.000  C
  H27      1.0000 0.50860  0.77970  0.98810  Biso   1.000  H
  C38      1.0000 0.39280  0.62360  0.99756  Biso   1.000  C
  H28      1.0000 0.40900  0.61650  0.03000  Biso   1.000  H
  C39      1.0000 0.31520  0.65520  0.85149  Biso   1.000  C
  C40      1.0000 0.32150  0.53680  0.82032  Biso   1.000  C
  C41      1.0000 0.40330  0.43430  0.83033  Biso   1.000  C
  H29      1.0000 0.44620  0.43020  0.85950  Biso   1.000  H
  C42      1.0000 0.42170  0.33670  0.79666  Biso   1.000  C
  H30      1.0000 0.47810  0.26720  0.80240  Biso   1.000  H
  C43      1.0000 0.35450  0.34600  0.75490  Biso   1.000  C
  H31      1.0000 0.36650  0.28350  0.73130  Biso   1.000  H
  C44      1.0000 0.26870  0.44800  0.74763  Biso   1.000  C
  H32      1.0000 0.22060  0.45040  0.71960  Biso   1.000  H
  Ag5      1.0000 0.69678  0.10615  0.23360  Biso   1.000  Ag
  N9       1.0000 0.53640  0.31080  0.02310  Biso   1.000  N
  N10      1.0000 0.54380  0.25210  0.22041  Biso   1.000  N
  O5       1.0000 0.75980  0.28800  0.16550  Biso   1.000  O
  C45      1.0000 0.54590  0.29210  0.06984  Biso   1.000  C
  H33      1.0000 0.48460  0.23910  0.08480  Biso   1.000  H
  C46      1.0000 0.64360  0.34860  0.09714  Biso   1.000  C
  C47      1.0000 0.73390  0.42900  0.07570  Biso   1.000  C
  H34      1.0000 0.80130  0.46650  0.09320  Biso   1.000  H
  C48      1.0000 0.72180  0.45270  0.02726  Biso   1.000  C
  H35      1.0000 0.77970  0.50860  0.01190  Biso   1.000  H
  C49      1.0000 0.62360  0.39280  0.00244  Biso   1.000  C
  H36      1.0000 0.61650  0.40900  0.97000  Biso   1.000  H
  C50      1.0000 0.65520  0.31520  0.14851  Biso   1.000  C
  C51      1.0000 0.53680  0.32150  0.17968  Biso   1.000  C
  C52      1.0000 0.43430  0.40330  0.16967  Biso   1.000  C
  H37      1.0000 0.43020  0.44620  0.14050  Biso   1.000  H
  C53      1.0000 0.33670  0.42170  0.20334  Biso   1.000  C
  H38      1.0000 0.26720  0.47810  0.19760  Biso   1.000  H
  C54      1.0000 0.34600  0.35450  0.24510  Biso   1.000  C
  H39      1.0000 0.28350  0.36650  0.26870  Biso   1.000  H
  C55      1.0000 0.44800  0.26870  0.25237  Biso   1.000  C
  H40      1.0000 0.45040  0.22060  0.28040  Biso   1.000  H
  Ag6      1.0000 0.30322  0.89385  0.73360  Biso   1.000  Ag
  N11      1.0000 0.46360  0.68920  0.52310  Biso   1.000  N
  N12      1.0000 0.45620  0.74790  0.72041  Biso   1.000  N
  O6       1.0000 0.24020  0.71200  0.66550  Biso   1.000  O
  C56      1.0000 0.45410  0.70790  0.56984  Biso   1.000  C
  H41      1.0000 0.51540  0.76090  0.58480  Biso   1.000  H
  C57      1.0000 0.35640  0.65140  0.59714  Biso   1.000  C
  C58      1.0000 0.26610  0.57100  0.57570  Biso   1.000  C
  H42      1.0000 0.19870  0.53350  0.59320  Biso   1.000  H
  C59      1.0000 0.27820  0.54730  0.52726  Biso   1.000  C
  H43      1.0000 0.22030  0.49140  0.51190  Biso   1.000  H
  C60      1.0000 0.37640  0.60720  0.50244  Biso   1.000  C
  H44      1.0000 0.38350  0.59100  0.47000  Biso   1.000  H
  C61      1.0000 0.34480  0.68480  0.64851  Biso   1.000  C
  C62      1.0000 0.46320  0.67850  0.67968  Biso   1.000  C
  C63      1.0000 0.56570  0.59670  0.66967  Biso   1.000  C
  H45      1.0000 0.56980  0.55380  0.64050  Biso   1.000  H
  C64      1.0000 0.66330  0.57830  0.70334  Biso   1.000  C
  H46      1.0000 0.73280  0.52190  0.69760  Biso   1.000  H
  C65      1.0000 0.65400  0.64550  0.74510  Biso   1.000  C
  H47      1.0000 0.71650  0.63350  0.76870  Biso   1.000  H
  C66      1.0000 0.55200  0.73130  0.75237  Biso   1.000  C
  H48      1.0000 0.54960  0.77940  0.78040  Biso   1.000  H
  Ag7      1.0000 0.60615  0.80322  0.48360  Biso   1.000  Ag
  N13      1.0000 0.81080  0.96360  0.27310  Biso   1.000  N
  N14      1.0000 0.75210  0.95620  0.47041  Biso   1.000  N
  O7       1.0000 0.78800  0.74020  0.41550  Biso   1.000  O
  C67      1.0000 0.79210  0.95410  0.31984  Biso   1.000  C
  H49      1.0000 0.73910  0.01540  0.33480  Biso   1.000  H
  C68      1.0000 0.84860  0.85640  0.34714  Biso   1.000  C
  C69      1.0000 0.92900  0.76610  0.32570  Biso   1.000  C
  H50      1.0000 0.96650  0.69870  0.34320  Biso   1.000  H
  C70      1.0000 0.95270  0.77820  0.27726  Biso   1.000  C
  H51      1.0000 0.00860  0.72030  0.26190  Biso   1.000  H
  C71      1.0000 0.89280  0.87640  0.25244  Biso   1.000  C
  H52      1.0000 0.90900  0.88350  0.22000  Biso   1.000  H
  C72      1.0000 0.81520  0.84480  0.39851  Biso   1.000  C
  C73      1.0000 0.82150  0.96320  0.42968  Biso   1.000  C
  C74      1.0000 0.90330  0.06570  0.41967  Biso   1.000  C
  H53      1.0000 0.94620  0.06980  0.39050  Biso   1.000  H
  C75      1.0000 0.92170  0.16330  0.45334  Biso   1.000  C
  H54      1.0000 0.97810  0.23280  0.44760  Biso   1.000  H
  C76      1.0000 0.85450  0.15400  0.49510  Biso   1.000  C
  H55      1.0000 0.86650  0.21650  0.51870  Biso   1.000  H
  C77      1.0000 0.76870  0.05200  0.50237  Biso   1.000  C
  H56      1.0000 0.72060  0.04960  0.53040  Biso   1.000  H
  Ag8      1.0000 0.39385  0.19678  0.98360  Biso   1.000  Ag
  N15      1.0000 0.18920  0.03640  0.77310  Biso   1.000  N
  N16      1.0000 0.24790  0.04380  0.97041  Biso   1.000  N
  O8       1.0000 0.21200  0.25980  0.91550  Biso   1.000  O
  C78      1.0000 0.20790  0.04590  0.81984  Biso   1.000  C
  H57      1.0000 0.26090  0.98460  0.83480  Biso   1.000  H
  C79      1.0000 0.15140  0.14360  0.84714  Biso   1.000  C
  C80      1.0000 0.07100  0.23390  0.82570  Biso   1.000  C
  H58      1.0000 0.03350  0.30130  0.84320  Biso   1.000  H
  C81      1.0000 0.04730  0.22180  0.77726  Biso   1.000  C
  H59      1.0000 0.99140  0.27970  0.76190  Biso   1.000  H
  C82      1.0000 0.10720  0.12360  0.75244  Biso   1.000  C
  H60      1.0000 0.09100  0.11650  0.72000  Biso   1.000  H
  C83      1.0000 0.18480  0.15520  0.89851  Biso   1.000  C
  C84      1.0000 0.17850  0.03680  0.92968  Biso   1.000  C
  C85      1.0000 0.09670  0.93430  0.91967  Biso   1.000  C
  H61      1.0000 0.05380  0.93020  0.89050  Biso   1.000  H
  C86      1.0000 0.07830  0.83670  0.95334  Biso   1.000  C
  H62      1.0000 0.02190  0.76720  0.94760  Biso   1.000  H
  C87      1.0000 0.14550  0.84600  0.99510  Biso   1.000  C
  H63      1.0000 0.13350  0.78350  0.01870  Biso   1.000  H
  C88      1.0000 0.23130  0.94800  0.00237  Biso   1.000  C
  H64      1.0000 0.27940  0.95040  0.03040  Biso   1.000  H
