data_image0
_cell_length_a       12.7031
_cell_length_b       12.7031
_cell_length_c       35.759
_cell_angle_alpha    90
_cell_angle_beta     90
_cell_angle_gamma    90

_symmetry_space_group_name_H-M    "P 1"
_symmetry_int_tables_number       1

loop_
  _symmetry_equiv_pos_as_xyz
  'x, y, z'

loop_
  _atom_site_label
  _atom_site_occupancy
  _atom_site_fract_x
  _atom_site_fract_y
  _atom_site_fract_z
  _atom_site_thermal_displace_type
  _atom_site_B_iso_or_equiv
  _atom_site_type_symbol
  O1       1.0000 0.56230  0.17970  0.95260  Biso   1.000  O
  O2       1.0000 0.70360  0.53180  0.99440  Biso   1.000  O
  O3       1.0000 0.51770  0.50470  0.04060  Biso   1.000  O
  O4       1.0000 0.68130  0.35420  0.02950  Biso   1.000  O
  O5       1.0000 0.47880  0.30680  0.07480  Biso   1.000  O
  C1       1.0000 0.71770  0.14640  0.10660  Biso   1.000  C
  O6       1.0000 0.38220  0.14190  0.99300  Biso   1.000  O
  O7       1.0000 0.45090  0.33860  0.91660  Biso   1.000  O
  O8       1.0000 0.61170  0.99390  0.10890  Biso   1.000  O
  O9       1.0000 0.59480  0.48320  0.89750  Biso   1.000  O
  O10      1.0000 0.28590  0.29760  0.95730  Biso   1.000  O
  O11      1.0000 0.66700  0.36160  0.95630  Biso   1.000  O
  O12      1.0000 0.57240  0.16720  0.02920  Biso   1.000  O
  O13      1.0000 0.48000  0.31470  0.99498  Biso   1.000  O
  O14      1.0000 0.38060  0.13050  0.91680  Biso   1.000  O
  O15      1.0000 0.63670  0.44880  0.09378  Biso   1.000  O
  O16      1.0000 0.65490  0.63800  0.05970  Biso   1.000  O
  C2       1.0000 0.89010  0.25890  0.08520  Biso   1.000  C
  H1       1.0000 0.94820  0.29820  0.07770  Biso   1.000  H
  C3       1.0000 0.61880  0.08990  0.11790  Biso   1.000  C
  N1       1.0000 0.82560  0.29910  0.11150  Biso   1.000  N
  O17      1.0000 0.54930  0.13940  0.13540  Biso   1.000  O
  C4       1.0000 0.73290  0.24510  0.12170  Biso   1.000  C
  H2       1.0000 0.68410  0.27490  0.13800  Biso   1.000  H
  C5       1.0000 0.78600  0.10410  0.08000  Biso   1.000  C
  H3       1.0000 0.77350  0.03800  0.06980  Biso   1.000  H
  Ag1      1.0000 0.14640  0.17730  0.98227  Biso   1.000  Ag
  O18      1.0000 0.93270  0.03420  0.02700  Biso   1.000  O
  O19      1.0000 0.01540  0.18790  0.02800  Biso   1.000  O
  C6       1.0000 0.94690  0.12510  0.03870  Biso   1.000  C
  C7       1.0000 0.87350  0.16300  0.06890  Biso   1.000  C
  W1       1.0000 0.69443  0.49956  0.04547  Biso   1.000  W
  W2       1.0000 0.67226  0.50278  0.94225  Biso   1.000  W
  W3       1.0000 0.64041  0.25313  0.99395  Biso   1.000  W
  W4       1.0000 0.41937  0.22751  0.94804  Biso   1.000  W
  W5       1.0000 0.42385  0.20730  0.03870  Biso   1.000  W
  W6       1.0000 0.48925  0.43895  0.09727  Biso   1.000  W
  Ag2      1.0000 0.95089  0.43331  0.89035  Biso   1.000  Ag
  O20      1.0000 0.43770  0.82030  0.45260  Biso   1.000  O
  O21      1.0000 0.29640  0.46820  0.49440  Biso   1.000  O
  O22      1.0000 0.48230  0.49530  0.54060  Biso   1.000  O
  O23      1.0000 0.31870  0.64580  0.52950  Biso   1.000  O
  O24      1.0000 0.52120  0.69320  0.57480  Biso   1.000  O
  C8       1.0000 0.28230  0.85360  0.60660  Biso   1.000  C
  O25      1.0000 0.61780  0.85810  0.49300  Biso   1.000  O
  O26      1.0000 0.54910  0.66140  0.41660  Biso   1.000  O
  O27      1.0000 0.38830  0.00610  0.60890  Biso   1.000  O
  O28      1.0000 0.40520  0.51680  0.39750  Biso   1.000  O
  O29      1.0000 0.71410  0.70240  0.45730  Biso   1.000  O
  O30      1.0000 0.33300  0.63840  0.45630  Biso   1.000  O
  O31      1.0000 0.42760  0.83280  0.52920  Biso   1.000  O
  O32      1.0000 0.52000  0.68530  0.49498  Biso   1.000  O
  O33      1.0000 0.61940  0.86950  0.41680  Biso   1.000  O
  O34      1.0000 0.36330  0.55120  0.59378  Biso   1.000  O
  O35      1.0000 0.34510  0.36200  0.55970  Biso   1.000  O
  C9       1.0000 0.10990  0.74110  0.58520  Biso   1.000  C
  H4       1.0000 0.05180  0.70180  0.57770  Biso   1.000  H
  C10      1.0000 0.38120  0.91010  0.61790  Biso   1.000  C
  N2       1.0000 0.17440  0.70090  0.61150  Biso   1.000  N
  O36      1.0000 0.45070  0.86060  0.63540  Biso   1.000  O
  C11      1.0000 0.26710  0.75490  0.62170  Biso   1.000  C
  H5       1.0000 0.31590  0.72510  0.63800  Biso   1.000  H
  C12      1.0000 0.21400  0.89590  0.58000  Biso   1.000  C
  H6       1.0000 0.22650  0.96200  0.56980  Biso   1.000  H
  Ag3      1.0000 0.85360  0.82270  0.48227  Biso   1.000  Ag
  O37      1.0000 0.06730  0.96580  0.52700  Biso   1.000  O
  O38      1.0000 0.98460  0.81210  0.52800  Biso   1.000  O
  C13      1.0000 0.05310  0.87490  0.53870  Biso   1.000  C
  C14      1.0000 0.12650  0.83700  0.56890  Biso   1.000  C
  W7       1.0000 0.30557  0.50044  0.54547  Biso   1.000  W
  W8       1.0000 0.32774  0.49722  0.44225  Biso   1.000  W
  W9       1.0000 0.35959  0.74687  0.49395  Biso   1.000  W
  W10      1.0000 0.58063  0.77249  0.44804  Biso   1.000  W
  W11      1.0000 0.57615  0.79270  0.53870  Biso   1.000  W
  W12      1.0000 0.51075  0.56105  0.59727  Biso   1.000  W
  Ag4      1.0000 0.04911  0.56669  0.39035  Biso   1.000  Ag
  O39      1.0000 0.32030  0.06230  0.20260  Biso   1.000  O
  O40      1.0000 0.96820  0.20360  0.24440  Biso   1.000  O
  O41      1.0000 0.99530  0.01770  0.29060  Biso   1.000  O
  O42      1.0000 0.14580  0.18130  0.27950  Biso   1.000  O
  O43      1.0000 0.19320  0.97880  0.32480  Biso   1.000  O
  C15      1.0000 0.35360  0.21770  0.35660  Biso   1.000  C
  O44      1.0000 0.35810  0.88220  0.24300  Biso   1.000  O
  O45      1.0000 0.16140  0.95090  0.16660  Biso   1.000  O
  O46      1.0000 0.50610  0.11170  0.35890  Biso   1.000  O
  O47      1.0000 0.01680  0.09480  0.14750  Biso   1.000  O
  O48      1.0000 0.20240  0.78590  0.20730  Biso   1.000  O
  O49      1.0000 0.13840  0.16700  0.20630  Biso   1.000  O
  O50      1.0000 0.33280  0.07240  0.27920  Biso   1.000  O
  O51      1.0000 0.18530  0.98000  0.24498  Biso   1.000  O
  O52      1.0000 0.36950  0.88060  0.16680  Biso   1.000  O
  O53      1.0000 0.05120  0.13670  0.34378  Biso   1.000  O
  O54      1.0000 0.86200  0.15490  0.30970  Biso   1.000  O
  C16      1.0000 0.24110  0.39010  0.33520  Biso   1.000  C
  H7       1.0000 0.20180  0.44820  0.32770  Biso   1.000  H
  C17      1.0000 0.41010  0.11880  0.36790  Biso   1.000  C
  N3       1.0000 0.20090  0.32560  0.36150  Biso   1.000  N
  O55      1.0000 0.36060  0.04930  0.38540  Biso   1.000  O
  C18      1.0000 0.25490  0.23290  0.37170  Biso   1.000  C
  H8       1.0000 0.22510  0.18410  0.38800  Biso   1.000  H
  C19      1.0000 0.39590  0.28600  0.33000  Biso   1.000  C
  H9       1.0000 0.46200  0.27350  0.31980  Biso   1.000  H
  Ag5      1.0000 0.32270  0.64640  0.23227  Biso   1.000  Ag
  O56      1.0000 0.46580  0.43270  0.27700  Biso   1.000  O
  O57      1.0000 0.31210  0.51540  0.27800  Biso   1.000  O
  C20      1.0000 0.37490  0.44690  0.28870  Biso   1.000  C
  C21      1.0000 0.33700  0.37350  0.31890  Biso   1.000  C
  W13      1.0000 0.00044  0.19443  0.29547  Biso   1.000  W
  W14      1.0000 0.99722  0.17226  0.19225  Biso   1.000  W
  W15      1.0000 0.24687  0.14041  0.24395  Biso   1.000  W
  W16      1.0000 0.27249  0.91937  0.19804  Biso   1.000  W
  W17      1.0000 0.29270  0.92385  0.28870  Biso   1.000  W
  W18      1.0000 0.06105  0.98925  0.34727  Biso   1.000  W
  Ag6      1.0000 0.06669  0.45089  0.14035  Biso   1.000  Ag
  O58      1.0000 0.67970  0.93770  0.70260  Biso   1.000  O
  O59      1.0000 0.03180  0.79640  0.74440  Biso   1.000  O
  O60      1.0000 0.00470  0.98230  0.79060  Biso   1.000  O
  O61      1.0000 0.85420  0.81870  0.77950  Biso   1.000  O
  O62      1.0000 0.80680  0.02120  0.82480  Biso   1.000  O
  C22      1.0000 0.64640  0.78230  0.85660  Biso   1.000  C
  O63      1.0000 0.64190  0.11780  0.74300  Biso   1.000  O
  O64      1.0000 0.83860  0.04910  0.66660  Biso   1.000  O
  O65      1.0000 0.49390  0.88830  0.85890  Biso   1.000  O
  O66      1.0000 0.98320  0.90520  0.64750  Biso   1.000  O
  O67      1.0000 0.79760  0.21410  0.70730  Biso   1.000  O
  O68      1.0000 0.86160  0.83300  0.70630  Biso   1.000  O
  O69      1.0000 0.66720  0.92760  0.77920  Biso   1.000  O
  O70      1.0000 0.81470  0.02000  0.74498  Biso   1.000  O
  O71      1.0000 0.63050  0.11940  0.66680  Biso   1.000  O
  O72      1.0000 0.94880  0.86330  0.84378  Biso   1.000  O
  O73      1.0000 0.13800  0.84510  0.80970  Biso   1.000  O
  C23      1.0000 0.75890  0.60990  0.83520  Biso   1.000  C
  H10      1.0000 0.79820  0.55180  0.82770  Biso   1.000  H
  C24      1.0000 0.58990  0.88120  0.86790  Biso   1.000  C
  N4       1.0000 0.79910  0.67440  0.86150  Biso   1.000  N
  O74      1.0000 0.63940  0.95070  0.88540  Biso   1.000  O
  C25      1.0000 0.74510  0.76710  0.87170  Biso   1.000  C
  H11      1.0000 0.77490  0.81590  0.88800  Biso   1.000  H
  C26      1.0000 0.60410  0.71400  0.83000  Biso   1.000  C
  H12      1.0000 0.53800  0.72650  0.81980  Biso   1.000  H
  Ag7      1.0000 0.67730  0.35360  0.73227  Biso   1.000  Ag
  O75      1.0000 0.53420  0.56730  0.77700  Biso   1.000  O
  O76      1.0000 0.68790  0.48460  0.77800  Biso   1.000  O
  C27      1.0000 0.62510  0.55310  0.78870  Biso   1.000  C
  C28      1.0000 0.66300  0.62650  0.81890  Biso   1.000  C
  W19      1.0000 0.99956  0.80557  0.79547  Biso   1.000  W
  W20      1.0000 0.00278  0.82774  0.69225  Biso   1.000  W
  W21      1.0000 0.75313  0.85959  0.74395  Biso   1.000  W
  W22      1.0000 0.72751  0.08063  0.69804  Biso   1.000  W
  W23      1.0000 0.70730  0.07615  0.78870  Biso   1.000  W
  W24      1.0000 0.93895  0.01075  0.84727  Biso   1.000  W
  Ag8      1.0000 0.93331  0.54911  0.64035  Biso   1.000  Ag
  O77      1.0000 0.93770  0.67970  0.29740  Biso   1.000  O
  O78      1.0000 0.79640  0.03180  0.25560  Biso   1.000  O
  O79      1.0000 0.98230  0.00470  0.20940  Biso   1.000  O
  O80      1.0000 0.81870  0.85420  0.22050  Biso   1.000  O
  O81      1.0000 0.02120  0.80680  0.17520  Biso   1.000  O
  C29      1.0000 0.78230  0.64640  0.14340  Biso   1.000  C
  O82      1.0000 0.11780  0.64190  0.25700  Biso   1.000  O
  O83      1.0000 0.04910  0.83860  0.33340  Biso   1.000  O
  O84      1.0000 0.88830  0.49390  0.14110  Biso   1.000  O
  O85      1.0000 0.90520  0.98320  0.35250  Biso   1.000  O
  O86      1.0000 0.21410  0.79760  0.29270  Biso   1.000  O
  O87      1.0000 0.83300  0.86160  0.29370  Biso   1.000  O
  O88      1.0000 0.92760  0.66720  0.22080  Biso   1.000  O
  O89      1.0000 0.02000  0.81470  0.25502  Biso   1.000  O
  O90      1.0000 0.11940  0.63050  0.33320  Biso   1.000  O
  O91      1.0000 0.86330  0.94880  0.15622  Biso   1.000  O
  O92      1.0000 0.84510  0.13800  0.19030  Biso   1.000  O
  C30      1.0000 0.60990  0.75890  0.16480  Biso   1.000  C
  H13      1.0000 0.55180  0.79820  0.17230  Biso   1.000  H
  C31      1.0000 0.88120  0.58990  0.13210  Biso   1.000  C
  N5       1.0000 0.67440  0.79910  0.13850  Biso   1.000  N
  O93      1.0000 0.95070  0.63940  0.11460  Biso   1.000  O
  C32      1.0000 0.76710  0.74510  0.12830  Biso   1.000  C
  H14      1.0000 0.81590  0.77490  0.11200  Biso   1.000  H
  C33      1.0000 0.71400  0.60410  0.17000  Biso   1.000  C
  H15      1.0000 0.72650  0.53800  0.18020  Biso   1.000  H
  Ag9      1.0000 0.35360  0.67730  0.26773  Biso   1.000  Ag
  O94      1.0000 0.56730  0.53420  0.22300  Biso   1.000  O
  O95      1.0000 0.48460  0.68790  0.22200  Biso   1.000  O
  C34      1.0000 0.55310  0.62510  0.21130  Biso   1.000  C
  C35      1.0000 0.62650  0.66300  0.18110  Biso   1.000  C
  W25      1.0000 0.80557  0.99956  0.20453  Biso   1.000  W
  W26      1.0000 0.82774  0.00278  0.30775  Biso   1.000  W
  W27      1.0000 0.85959  0.75313  0.25605  Biso   1.000  W
  W28      1.0000 0.08063  0.72751  0.30196  Biso   1.000  W
  W29      1.0000 0.07615  0.70730  0.21130  Biso   1.000  W
  W30      1.0000 0.01075  0.93895  0.15273  Biso   1.000  W
  Ag10     1.0000 0.54911  0.93331  0.35965  Biso   1.000  Ag
  O96      1.0000 0.06230  0.32030  0.79740  Biso   1.000  O
  O97      1.0000 0.20360  0.96820  0.75560  Biso   1.000  O
  O98      1.0000 0.01770  0.99530  0.70940  Biso   1.000  O
  O99      1.0000 0.18130  0.14580  0.72050  Biso   1.000  O
  O100     1.0000 0.97880  0.19320  0.67520  Biso   1.000  O
  C36      1.0000 0.21770  0.35360  0.64340  Biso   1.000  C
  O101     1.0000 0.88220  0.35810  0.75700  Biso   1.000  O
  O102     1.0000 0.95090  0.16140  0.83340  Biso   1.000  O
  O103     1.0000 0.11170  0.50610  0.64110  Biso   1.000  O
  O104     1.0000 0.09480  0.01680  0.85250  Biso   1.000  O
  O105     1.0000 0.78590  0.20240  0.79270  Biso   1.000  O
  O106     1.0000 0.16700  0.13840  0.79370  Biso   1.000  O
  O107     1.0000 0.07240  0.33280  0.72080  Biso   1.000  O
  O108     1.0000 0.98000  0.18530  0.75502  Biso   1.000  O
  O109     1.0000 0.88060  0.36950  0.83320  Biso   1.000  O
  O110     1.0000 0.13670  0.05120  0.65622  Biso   1.000  O
  O111     1.0000 0.15490  0.86200  0.69030  Biso   1.000  O
  C37      1.0000 0.39010  0.24110  0.66480  Biso   1.000  C
  H16      1.0000 0.44820  0.20180  0.67230  Biso   1.000  H
  C38      1.0000 0.11880  0.41010  0.63210  Biso   1.000  C
  N6       1.0000 0.32560  0.20090  0.63850  Biso   1.000  N
  O112     1.0000 0.04930  0.36060  0.61460  Biso   1.000  O
  C39      1.0000 0.23290  0.25490  0.62830  Biso   1.000  C
  H17      1.0000 0.18410  0.22510  0.61200  Biso   1.000  H
  C40      1.0000 0.28600  0.39590  0.67000  Biso   1.000  C
  H18      1.0000 0.27350  0.46200  0.68020  Biso   1.000  H
  Ag11     1.0000 0.64640  0.32270  0.76773  Biso   1.000  Ag
  O113     1.0000 0.43270  0.46580  0.72300  Biso   1.000  O
  O114     1.0000 0.51540  0.31210  0.72200  Biso   1.000  O
  C41      1.0000 0.44690  0.37490  0.71130  Biso   1.000  C
  C42      1.0000 0.37350  0.33700  0.68110  Biso   1.000  C
  W31      1.0000 0.19443  0.00044  0.70453  Biso   1.000  W
  W32      1.0000 0.17226  0.99722  0.80775  Biso   1.000  W
  W33      1.0000 0.14041  0.24687  0.75605  Biso   1.000  W
  W34      1.0000 0.91937  0.27249  0.80196  Biso   1.000  W
  W35      1.0000 0.92385  0.29270  0.71130  Biso   1.000  W
  W36      1.0000 0.98925  0.06105  0.65273  Biso   1.000  W
  Ag12     1.0000 0.45089  0.06669  0.85965  Biso   1.000  Ag
  O115     1.0000 0.17970  0.56230  0.04740  Biso   1.000  O
  O116     1.0000 0.53180  0.70360  0.00560  Biso   1.000  O
  O117     1.0000 0.50470  0.51770  0.95940  Biso   1.000  O
  O118     1.0000 0.35420  0.68130  0.97050  Biso   1.000  O
  O119     1.0000 0.30680  0.47880  0.92520  Biso   1.000  O
  C43      1.0000 0.14640  0.71770  0.89340  Biso   1.000  C
  O120     1.0000 0.14190  0.38220  0.00700  Biso   1.000  O
  O121     1.0000 0.33860  0.45090  0.08340  Biso   1.000  O
  O122     1.0000 0.99390  0.61170  0.89110  Biso   1.000  O
  O123     1.0000 0.48320  0.59480  0.10250  Biso   1.000  O
  O124     1.0000 0.29760  0.28590  0.04270  Biso   1.000  O
  O125     1.0000 0.36160  0.66700  0.04370  Biso   1.000  O
  O126     1.0000 0.16720  0.57240  0.97080  Biso   1.000  O
  O127     1.0000 0.31470  0.48000  0.00502  Biso   1.000  O
  O128     1.0000 0.13050  0.38060  0.08320  Biso   1.000  O
  O129     1.0000 0.44880  0.63670  0.90622  Biso   1.000  O
  O130     1.0000 0.63800  0.65490  0.94030  Biso   1.000  O
  C44      1.0000 0.25890  0.89010  0.91480  Biso   1.000  C
  H19      1.0000 0.29820  0.94820  0.92230  Biso   1.000  H
  C45      1.0000 0.08990  0.61880  0.88210  Biso   1.000  C
  N7       1.0000 0.29910  0.82560  0.88850  Biso   1.000  N
  O131     1.0000 0.13940  0.54930  0.86460  Biso   1.000  O
  C46      1.0000 0.24510  0.73290  0.87830  Biso   1.000  C
  H20      1.0000 0.27490  0.68410  0.86200  Biso   1.000  H
  C47      1.0000 0.10410  0.78600  0.92000  Biso   1.000  C
  H21      1.0000 0.03800  0.77350  0.93020  Biso   1.000  H
  Ag13     1.0000 0.17730  0.14640  0.01773  Biso   1.000  Ag
  O132     1.0000 0.03420  0.93270  0.97300  Biso   1.000  O
  O133     1.0000 0.18790  0.01540  0.97200  Biso   1.000  O
  C48      1.0000 0.12510  0.94690  0.96130  Biso   1.000  C
  C49      1.0000 0.16300  0.87350  0.93110  Biso   1.000  C
  W37      1.0000 0.49956  0.69443  0.95453  Biso   1.000  W
  W38      1.0000 0.50278  0.67226  0.05775  Biso   1.000  W
  W39      1.0000 0.25313  0.64041  0.00605  Biso   1.000  W
  W40      1.0000 0.22751  0.41937  0.05196  Biso   1.000  W
  W41      1.0000 0.20730  0.42385  0.96130  Biso   1.000  W
  W42      1.0000 0.43895  0.48925  0.90273  Biso   1.000  W
  Ag14     1.0000 0.43331  0.95089  0.10965  Biso   1.000  Ag
  O134     1.0000 0.82030  0.43770  0.54740  Biso   1.000  O
  O135     1.0000 0.46820  0.29640  0.50560  Biso   1.000  O
  O136     1.0000 0.49530  0.48230  0.45940  Biso   1.000  O
  O137     1.0000 0.64580  0.31870  0.47050  Biso   1.000  O
  O138     1.0000 0.69320  0.52120  0.42520  Biso   1.000  O
  C50      1.0000 0.85360  0.28230  0.39340  Biso   1.000  C
  O139     1.0000 0.85810  0.61780  0.50700  Biso   1.000  O
  O140     1.0000 0.66140  0.54910  0.58340  Biso   1.000  O
  O141     1.0000 0.00610  0.38830  0.39110  Biso   1.000  O
  O142     1.0000 0.51680  0.40520  0.60250  Biso   1.000  O
  O143     1.0000 0.70240  0.71410  0.54270  Biso   1.000  O
  O144     1.0000 0.63840  0.33300  0.54370  Biso   1.000  O
  O145     1.0000 0.83280  0.42760  0.47080  Biso   1.000  O
  O146     1.0000 0.68530  0.52000  0.50502  Biso   1.000  O
  O147     1.0000 0.86950  0.61940  0.58320  Biso   1.000  O
  O148     1.0000 0.55120  0.36330  0.40622  Biso   1.000  O
  O149     1.0000 0.36200  0.34510  0.44030  Biso   1.000  O
  C51      1.0000 0.74110  0.10990  0.41480  Biso   1.000  C
  H22      1.0000 0.70180  0.05180  0.42230  Biso   1.000  H
  C52      1.0000 0.91010  0.38120  0.38210  Biso   1.000  C
  N8       1.0000 0.70090  0.17440  0.38850  Biso   1.000  N
  O150     1.0000 0.86060  0.45070  0.36460  Biso   1.000  O
  C53      1.0000 0.75490  0.26710  0.37830  Biso   1.000  C
  H23      1.0000 0.72510  0.31590  0.36200  Biso   1.000  H
  C54      1.0000 0.89590  0.21400  0.42000  Biso   1.000  C
  H24      1.0000 0.96200  0.22650  0.43020  Biso   1.000  H
  Ag15     1.0000 0.82270  0.85360  0.51773  Biso   1.000  Ag
  O151     1.0000 0.96580  0.06730  0.47300  Biso   1.000  O
  O152     1.0000 0.81210  0.98460  0.47200  Biso   1.000  O
  C55      1.0000 0.87490  0.05310  0.46130  Biso   1.000  C
  C56      1.0000 0.83700  0.12650  0.43110  Biso   1.000  C
  W43      1.0000 0.50044  0.30557  0.45453  Biso   1.000  W
  W44      1.0000 0.49722  0.32774  0.55775  Biso   1.000  W
  W45      1.0000 0.74687  0.35959  0.50605  Biso   1.000  W
  W46      1.0000 0.77249  0.58063  0.55196  Biso   1.000  W
  W47      1.0000 0.79270  0.57615  0.46130  Biso   1.000  W
  W48      1.0000 0.56105  0.51075  0.40273  Biso   1.000  W
  Ag16     1.0000 0.56669  0.04911  0.60965  Biso   1.000  Ag
