data_image0
_cell_length_a       15.1316
_cell_length_b       24.7369
_cell_length_c       15.3613
_cell_angle_alpha    90
_cell_angle_beta     110.847
_cell_angle_gamma    90

_symmetry_space_group_name_H-M    "P 1"
_symmetry_int_tables_number       1

loop_
  _symmetry_equiv_pos_as_xyz
  'x, y, z'

loop_
  _atom_site_label
  _atom_site_occupancy
  _atom_site_fract_x
  _atom_site_fract_y
  _atom_site_fract_z
  _atom_site_thermal_displace_type
  _atom_site_B_iso_or_equiv
  _atom_site_type_symbol
  Co1      1.0000 0.89788  0.52065  0.11014  Biso   1.000  Co
  N1       1.0000 0.94260  0.52130  0.26250  Biso   1.000  N
  O1       1.0000 0.03950  0.50910  0.12220  Biso   1.000  O
  N2       1.0000 0.74780  0.51450  0.07170  Biso   1.000  N
  N3       1.0000 0.89840  0.60600  0.11160  Biso   1.000  N
  O2       1.0000 0.11870  0.48410  0.02970  Biso   1.000  O
  C1       1.0000 0.02380  0.47140  0.40010  Biso   1.000  C
  H1       1.0000 0.06080  0.44180  0.42810  Biso   1.000  H
  C2       1.0000 0.99280  0.50580  0.45120  Biso   1.000  C
  C3       1.0000 0.04410  0.49830  0.04360  Biso   1.000  C
  C4       1.0000 0.59570  0.52100  0.95840  Biso   1.000  C
  H2       1.0000 0.56010  0.52970  0.89700  Biso   1.000  H
  C5       1.0000 0.55190  0.50190  0.01500  Biso   1.000  C
  C6       1.0000 0.00110  0.48020  0.31000  Biso   1.000  C
  H3       1.0000 0.02610  0.45730  0.27670  Biso   1.000  H
  C7       1.0000 0.90300  0.72200  0.11600  Biso   1.000  C
  C8       1.0000 0.71060  0.49790  0.13470  Biso   1.000  C
  H4       1.0000 0.74790  0.49170  0.19670  Biso   1.000  H
  C9       1.0000 0.93760  0.54900  0.40780  Biso   1.000  C
  H5       1.0000 0.91300  0.57230  0.44100  Biso   1.000  H
  C10      1.0000 0.68760  0.52740  0.98890  Biso   1.000  C
  H6       1.0000 0.71290  0.54260  0.94750  Biso   1.000  H
  C11      1.0000 0.91880  0.55750  0.31090  Biso   1.000  C
  H7       1.0000 0.88940  0.58920  0.28250  Biso   1.000  H
  C12      1.0000 0.61160  0.49040  0.10140  Biso   1.000  C
  H8       1.0000 0.58540  0.47630  0.14280  Biso   1.000  H
  C13      1.0000 0.97500  0.63260  0.14650  Biso   1.000  C
  H9       1.0000 0.03080  0.61290  0.17030  Biso   1.000  H
  C14      1.0000 0.98270  0.69110  0.15230  Biso   1.000  C
  H10      1.0000 0.04140  0.70740  0.18050  Biso   1.000  H
  C15      1.0000 0.82170  0.69190  0.08130  Biso   1.000  C
  H11      1.0000 0.76390  0.70980  0.05900  Biso   1.000  H
  C16      1.0000 0.82220  0.63570  0.07800  Biso   1.000  C
  H12      1.0000 0.76470  0.61810  0.05020  Biso   1.000  H
  Co2      1.0000 0.10212  0.02065  0.88986  Biso   1.000  Co
  N4       1.0000 0.05740  0.02130  0.73750  Biso   1.000  N
  O3       1.0000 0.96050  0.00910  0.87780  Biso   1.000  O
  N5       1.0000 0.25220  0.01450  0.92830  Biso   1.000  N
  N6       1.0000 0.10160  0.10600  0.88840  Biso   1.000  N
  O4       1.0000 0.88130  0.98410  0.97030  Biso   1.000  O
  C17      1.0000 0.97620  0.97140  0.59990  Biso   1.000  C
  H13      1.0000 0.93920  0.94180  0.57190  Biso   1.000  H
  C18      1.0000 0.00720  0.00580  0.54880  Biso   1.000  C
  C19      1.0000 0.95590  0.99830  0.95640  Biso   1.000  C
  C20      1.0000 0.40430  0.02100  0.04160  Biso   1.000  C
  H14      1.0000 0.43990  0.02970  0.10300  Biso   1.000  H
  C21      1.0000 0.44810  0.00190  0.98500  Biso   1.000  C
  C22      1.0000 0.99890  0.98020  0.69000  Biso   1.000  C
  H15      1.0000 0.97390  0.95730  0.72330  Biso   1.000  H
  C23      1.0000 0.09700  0.22200  0.88400  Biso   1.000  C
  C24      1.0000 0.28940  0.99790  0.86530  Biso   1.000  C
  H16      1.0000 0.25210  0.99170  0.80330  Biso   1.000  H
  C25      1.0000 0.06240  0.04900  0.59220  Biso   1.000  C
  H17      1.0000 0.08700  0.07230  0.55900  Biso   1.000  H
  C26      1.0000 0.31240  0.02740  0.01110  Biso   1.000  C
  H18      1.0000 0.28710  0.04260  0.05250  Biso   1.000  H
  C27      1.0000 0.08120  0.05750  0.68910  Biso   1.000  C
  H19      1.0000 0.11060  0.08920  0.71750  Biso   1.000  H
  C28      1.0000 0.38840  0.99040  0.89860  Biso   1.000  C
  H20      1.0000 0.41460  0.97630  0.85720  Biso   1.000  H
  C29      1.0000 0.02500  0.13260  0.85350  Biso   1.000  C
  H21      1.0000 0.96920  0.11290  0.82970  Biso   1.000  H
  C30      1.0000 0.01730  0.19110  0.84770  Biso   1.000  C
  H22      1.0000 0.95860  0.20740  0.81950  Biso   1.000  H
  C31      1.0000 0.17830  0.19190  0.91870  Biso   1.000  C
  H23      1.0000 0.23610  0.20980  0.94100  Biso   1.000  H
  C32      1.0000 0.17780  0.13570  0.92200  Biso   1.000  C
  H24      1.0000 0.23530  0.11810  0.94980  Biso   1.000  H
  Co3      1.0000 0.10212  0.47935  0.88986  Biso   1.000  Co
  N7       1.0000 0.05740  0.47870  0.73750  Biso   1.000  N
  O5       1.0000 0.96050  0.49090  0.87780  Biso   1.000  O
  N8       1.0000 0.25220  0.48550  0.92830  Biso   1.000  N
  N9       1.0000 0.10160  0.39400  0.88840  Biso   1.000  N
  O6       1.0000 0.88130  0.51590  0.97030  Biso   1.000  O
  C33      1.0000 0.97620  0.52860  0.59990  Biso   1.000  C
  H25      1.0000 0.93920  0.55820  0.57190  Biso   1.000  H
  C34      1.0000 0.00720  0.49420  0.54880  Biso   1.000  C
  C35      1.0000 0.95590  0.50170  0.95640  Biso   1.000  C
  C36      1.0000 0.40430  0.47900  0.04160  Biso   1.000  C
  H26      1.0000 0.43990  0.47030  0.10300  Biso   1.000  H
  C37      1.0000 0.44810  0.49810  0.98500  Biso   1.000  C
  C38      1.0000 0.99890  0.51980  0.69000  Biso   1.000  C
  H27      1.0000 0.97390  0.54270  0.72330  Biso   1.000  H
  C39      1.0000 0.09700  0.27800  0.88400  Biso   1.000  C
  C40      1.0000 0.28940  0.50210  0.86530  Biso   1.000  C
  H28      1.0000 0.25210  0.50830  0.80330  Biso   1.000  H
  C41      1.0000 0.06240  0.45100  0.59220  Biso   1.000  C
  H29      1.0000 0.08700  0.42770  0.55900  Biso   1.000  H
  C42      1.0000 0.31240  0.47260  0.01110  Biso   1.000  C
  H30      1.0000 0.28710  0.45740  0.05250  Biso   1.000  H
  C43      1.0000 0.08120  0.44250  0.68910  Biso   1.000  C
  H31      1.0000 0.11060  0.41080  0.71750  Biso   1.000  H
  C44      1.0000 0.38840  0.50960  0.89860  Biso   1.000  C
  H32      1.0000 0.41460  0.52370  0.85720  Biso   1.000  H
  C45      1.0000 0.02500  0.36740  0.85350  Biso   1.000  C
  H33      1.0000 0.96920  0.38710  0.82970  Biso   1.000  H
  C46      1.0000 0.01730  0.30890  0.84770  Biso   1.000  C
  H34      1.0000 0.95860  0.29260  0.81950  Biso   1.000  H
  C47      1.0000 0.17830  0.30810  0.91870  Biso   1.000  C
  H35      1.0000 0.23610  0.29020  0.94100  Biso   1.000  H
  C48      1.0000 0.17780  0.36430  0.92200  Biso   1.000  C
  H36      1.0000 0.23530  0.38190  0.94980  Biso   1.000  H
  Co4      1.0000 0.89788  0.97935  0.11014  Biso   1.000  Co
  N10      1.0000 0.94260  0.97870  0.26250  Biso   1.000  N
  O7       1.0000 0.03950  0.99090  0.12220  Biso   1.000  O
  N11      1.0000 0.74780  0.98550  0.07170  Biso   1.000  N
  N12      1.0000 0.89840  0.89400  0.11160  Biso   1.000  N
  O8       1.0000 0.11870  0.01590  0.02970  Biso   1.000  O
  C49      1.0000 0.02380  0.02860  0.40010  Biso   1.000  C
  H37      1.0000 0.06080  0.05820  0.42810  Biso   1.000  H
  C50      1.0000 0.99280  0.99420  0.45120  Biso   1.000  C
  C51      1.0000 0.04410  0.00170  0.04360  Biso   1.000  C
  C52      1.0000 0.59570  0.97900  0.95840  Biso   1.000  C
  H38      1.0000 0.56010  0.97030  0.89700  Biso   1.000  H
  C53      1.0000 0.55190  0.99810  0.01500  Biso   1.000  C
  C54      1.0000 0.00110  0.01980  0.31000  Biso   1.000  C
  H39      1.0000 0.02610  0.04270  0.27670  Biso   1.000  H
  C55      1.0000 0.90300  0.77800  0.11600  Biso   1.000  C
  C56      1.0000 0.71060  0.00210  0.13470  Biso   1.000  C
  H40      1.0000 0.74790  0.00830  0.19670  Biso   1.000  H
  C57      1.0000 0.93760  0.95100  0.40780  Biso   1.000  C
  H41      1.0000 0.91300  0.92770  0.44100  Biso   1.000  H
  C58      1.0000 0.68760  0.97260  0.98890  Biso   1.000  C
  H42      1.0000 0.71290  0.95740  0.94750  Biso   1.000  H
  C59      1.0000 0.91880  0.94250  0.31090  Biso   1.000  C
  H43      1.0000 0.88940  0.91080  0.28250  Biso   1.000  H
  C60      1.0000 0.61160  0.00960  0.10140  Biso   1.000  C
  H44      1.0000 0.58540  0.02370  0.14280  Biso   1.000  H
  C61      1.0000 0.97500  0.86740  0.14650  Biso   1.000  C
  H45      1.0000 0.03080  0.88710  0.17030  Biso   1.000  H
  C62      1.0000 0.98270  0.80890  0.15230  Biso   1.000  C
  H46      1.0000 0.04140  0.79260  0.18050  Biso   1.000  H
  C63      1.0000 0.82170  0.80810  0.08130  Biso   1.000  C
  H47      1.0000 0.76390  0.79020  0.05900  Biso   1.000  H
  C64      1.0000 0.82220  0.86430  0.07800  Biso   1.000  C
  H48      1.0000 0.76470  0.88190  0.05020  Biso   1.000  H
