data_HAWREE_clean
_audit_creation_date              2014-07-02
_audit_creation_method            'Materials Studio'
_symmetry_space_group_name_H-M    'P1'
_symmetry_Int_Tables_number       1
_symmetry_cell_setting            triclinic
loop_
_symmetry_equiv_pos_as_xyz
  x,y,z
_cell_length_a                    11.1053
_cell_length_b                    12.5767
_cell_length_c                    20.0751
_cell_angle_alpha                 82.8400
_cell_angle_beta                  77.7650
_cell_angle_gamma                 79.2580
loop_
_atom_site_label
_atom_site_type_symbol
_atom_site_fract_x
_atom_site_fract_y
_atom_site_fract_z
_atom_site_U_iso_or_equiv
_atom_site_adp_type
_atom_site_occupancy
Mn1    Mn    0.47676   0.76862   0.75526   0.01267  Uiso   1.00
Mn2    Mn    0.37142   0.51055   0.77220   0.01267  Uiso   1.00
Mn3    Mn    0.62848   0.28246   0.73460   0.01267  Uiso   1.00
Mn4    Mn    0.32630   0.25547   0.77027   0.01267  Uiso   1.00
Mn5    Mn    0.58037   0.02530   0.74234   0.01267  Uiso   1.00
Mn6    Mn    0.52324   0.23138   0.24474   0.01267  Uiso   1.00
Mn7    Mn    0.62858   0.48945   0.22780   0.01267  Uiso   1.00
Mn8    Mn    0.37152   0.71754   0.26540   0.01267  Uiso   1.00
Mn9    Mn    0.67370   0.74453   0.22973   0.01267  Uiso   1.00
Mn10   Mn    0.41963   0.97470   0.25766   0.01267  Uiso   1.00
H1     H     0.94370   0.88640   0.74950   0.01267  Uiso   1.00
H2     H     0.14740   0.80110   0.75100   0.01267  Uiso   1.00
H3     H     0.03110   0.18540   0.75750   0.01267  Uiso   1.00
H4     H     0.00490   0.64860   0.77260   0.01267  Uiso   1.00
H5     H     0.80070   0.73390   0.76960   0.01267  Uiso   1.00
H6     H     0.92420   0.35270   0.75220   0.01267  Uiso   1.00
H7     H     0.44950   0.93440   0.47230   0.01267  Uiso   1.00
H8     H     0.46500   0.90820   0.58780   0.01267  Uiso   1.00
H9     H     0.29780   0.66010   0.48680   0.01267  Uiso   1.00
H10    H     0.56990   0.55500   0.01610   0.01267  Uiso   1.00
H11    H     0.51830   0.60810   0.90940   0.01267  Uiso   1.00
H12    H     0.67860   0.84500   0.02340   0.01267  Uiso   1.00
H13    H     0.28620   0.61960   0.90640   0.01267  Uiso   1.00
H14    H     0.18400   0.67240   0.86240   0.01267  Uiso   1.00
H15    H     0.17460   0.75490   0.94570   0.01267  Uiso   1.00
H16    H     0.31590   0.77490   0.92000   0.01267  Uiso   1.00
H17    H     0.21200   0.82800   0.87580   0.01267  Uiso   1.00
H18    H     0.77710   0.85720   0.65800   0.01267  Uiso   1.00
H19    H     0.68660   0.92220   0.61010   0.01267  Uiso   1.00
H20    H     0.79130   0.78350   0.57040   0.01267  Uiso   1.00
H21    H     0.73640   0.70980   0.63670   0.01267  Uiso   1.00
H22    H     0.64560   0.77560   0.58810   0.01267  Uiso   1.00
H23    H     0.51730   0.16430   0.84050   0.01267  Uiso   1.00
H24    H     0.43760   0.38070   0.66780   0.01267  Uiso   1.00
H25    H     0.27950   0.69820   0.79120   0.01267  Uiso   1.00
H26    H     0.58030   0.93770   0.69350   0.01267  Uiso   1.00
H27    H     0.05630   0.11360   0.25050   0.01267  Uiso   1.00
H28    H     0.85260   0.19890   0.24900   0.01267  Uiso   1.00
H29    H     0.96890   0.81460   0.24250   0.01267  Uiso   1.00
H30    H     0.99510   0.35140   0.22740   0.01267  Uiso   1.00
H31    H     0.19930   0.26610   0.23040   0.01267  Uiso   1.00
H32    H     0.07580   0.64730   0.24780   0.01267  Uiso   1.00
H33    H     0.55050   0.06560   0.52770   0.01267  Uiso   1.00
H34    H     0.53500   0.09180   0.41220   0.01267  Uiso   1.00
H35    H     0.70220   0.33990   0.51320   0.01267  Uiso   1.00
H36    H     0.43010   0.44500   0.98390   0.01267  Uiso   1.00
H37    H     0.48170   0.39190   0.09060   0.01267  Uiso   1.00
H38    H     0.32140   0.15500   0.97660   0.01267  Uiso   1.00
H39    H     0.71380   0.38040   0.09360   0.01267  Uiso   1.00
H40    H     0.81600   0.32760   0.13760   0.01267  Uiso   1.00
H41    H     0.82540   0.24510   0.05430   0.01267  Uiso   1.00
H42    H     0.68410   0.22510   0.08000   0.01267  Uiso   1.00
H43    H     0.78800   0.17200   0.12420   0.01267  Uiso   1.00
H44    H     0.22290   0.14280   0.34200   0.01267  Uiso   1.00
H45    H     0.31340   0.07780   0.38990   0.01267  Uiso   1.00
H46    H     0.20870   0.21650   0.42960   0.01267  Uiso   1.00
H47    H     0.26360   0.29020   0.36330   0.01267  Uiso   1.00
H48    H     0.35440   0.22440   0.41190   0.01267  Uiso   1.00
H49    H     0.48270   0.83570   0.15950   0.01267  Uiso   1.00
H50    H     0.56240   0.61930   0.33220   0.01267  Uiso   1.00
H51    H     0.72050   0.30180   0.20880   0.01267  Uiso   1.00
H52    H     0.41970   0.06230   0.30650   0.01267  Uiso   1.00
C1     C     0.83690   0.09320   0.74710   0.01267  Uiso   1.00
C2     C     0.96960   0.04350   0.75190   0.01267  Uiso   1.00
C3     C     0.00540   0.92880   0.75080   0.01267  Uiso   1.00
C4     C     0.12460   0.87760   0.75170   0.01267  Uiso   1.00
C5     C     0.21280   0.94470   0.75380   0.01267  Uiso   1.00
C6     C     0.17740   0.05720   0.75650   0.01267  Uiso   1.00
C7     C     0.05470   0.10910   0.75560   0.01267  Uiso   1.00
C8     C     0.11500   0.44420   0.76610   0.01267  Uiso   1.00
C9     C     0.98160   0.49260   0.76280   0.01267  Uiso   1.00
C10    C     0.94460   0.60680   0.76810   0.01267  Uiso   1.00
C11    C     0.82470   0.65770   0.76690   0.01267  Uiso   1.00
C12    C     0.73840   0.59110   0.76130   0.01267  Uiso   1.00
C13    C     0.77550   0.47910   0.75670   0.01267  Uiso   1.00
C14    C     0.89900   0.42830   0.75650   0.01267  Uiso   1.00
C15    C     0.37590   0.81310   0.39250   0.01267  Uiso   1.00
C16    C     0.37680   0.79750   0.46820   0.01267  Uiso   1.00
C17    C     0.42420   0.87190   0.49930   0.01267  Uiso   1.00
C18    C     0.43500   0.85690   0.56730   0.01267  Uiso   1.00
C19    C     0.39940   0.76180   0.60440   0.01267  Uiso   1.00
C20    C     0.34980   0.68930   0.57460   0.01267  Uiso   1.00
C21    C     0.33510   0.70770   0.50630   0.01267  Uiso   1.00
C22    C     0.65360   0.65970   0.10010   0.01267  Uiso   1.00
C23    C     0.62780   0.69520   0.02960   0.01267  Uiso   1.00
C24    C     0.58070   0.62540   0.99490   0.01267  Uiso   1.00
C25    C     0.55010   0.65560   0.93200   0.01267  Uiso   1.00
C26    C     0.56810   0.76080   0.90230   0.01267  Uiso   1.00
C27    C     0.61600   0.83010   0.93580   0.01267  Uiso   1.00
C28    C     0.64650   0.79800   0.00050   0.01267  Uiso   1.00
C29    C     0.26440   0.68140   0.87310   0.01267  Uiso   1.00
C30    C     0.24040   0.76430   0.90540   0.01267  Uiso   1.00
C31    C     0.69850   0.85660   0.64240   0.01267  Uiso   1.00
C32    C     0.71910   0.77710   0.60750   0.01267  Uiso   1.00
C33    C     0.16310   0.90680   0.25290   0.01267  Uiso   1.00
C34    C     0.03040   0.95650   0.24810   0.01267  Uiso   1.00
C35    C     0.99460   0.07120   0.24920   0.01267  Uiso   1.00
C36    C     0.87540   0.12240   0.24830   0.01267  Uiso   1.00
C37    C     0.78720   0.05530   0.24620   0.01267  Uiso   1.00
C38    C     0.82260   0.94280   0.24350   0.01267  Uiso   1.00
C39    C     0.94530   0.89090   0.24440   0.01267  Uiso   1.00
C40    C     0.88500   0.55580   0.23390   0.01267  Uiso   1.00
C41    C     0.01840   0.50740   0.23720   0.01267  Uiso   1.00
C42    C     0.05540   0.39320   0.23190   0.01267  Uiso   1.00
C43    C     0.17530   0.34230   0.23310   0.01267  Uiso   1.00
C44    C     0.26160   0.40890   0.23870   0.01267  Uiso   1.00
C45    C     0.22450   0.52090   0.24330   0.01267  Uiso   1.00
C46    C     0.10100   0.57170   0.24350   0.01267  Uiso   1.00
C47    C     0.62410   0.18690   0.60750   0.01267  Uiso   1.00
C48    C     0.62320   0.20250   0.53180   0.01267  Uiso   1.00
C49    C     0.57580   0.12810   0.50070   0.01267  Uiso   1.00
C50    C     0.56500   0.14310   0.43270   0.01267  Uiso   1.00
C51    C     0.60060   0.23820   0.39560   0.01267  Uiso   1.00
C52    C     0.65020   0.31070   0.42540   0.01267  Uiso   1.00
C53    C     0.66490   0.29230   0.49370   0.01267  Uiso   1.00
C54    C     0.34640   0.34030   0.89990   0.01267  Uiso   1.00
C55    C     0.37220   0.30480   0.97040   0.01267  Uiso   1.00
C56    C     0.41930   0.37460   0.00510   0.01267  Uiso   1.00
C57    C     0.44990   0.34440   0.06800   0.01267  Uiso   1.00
C58    C     0.43190   0.23920   0.09770   0.01267  Uiso   1.00
C59    C     0.38400   0.16990   0.06420   0.01267  Uiso   1.00
C60    C     0.35350   0.20200   0.99950   0.01267  Uiso   1.00
C61    C     0.73560   0.31860   0.12690   0.01267  Uiso   1.00
C62    C     0.75960   0.23570   0.09460   0.01267  Uiso   1.00
C63    C     0.30150   0.14340   0.35760   0.01267  Uiso   1.00
C64    C     0.28090   0.22290   0.39250   0.01267  Uiso   1.00
N1     N     0.33770   0.92080   0.75320   0.01267  Uiso   1.00
N2     N     0.37590   0.01400   0.75530   0.01267  Uiso   1.00
N3     N     0.28330   0.09850   0.75740   0.01267  Uiso   1.00
N4     N     0.67070   0.43790   0.75340   0.01267  Uiso   1.00
N5     N     0.57700   0.52250   0.75570   0.01267  Uiso   1.00
N6     N     0.61480   0.61490   0.76000   0.01267  Uiso   1.00
N7     N     0.32770   0.60440   0.62170   0.01267  Uiso   1.00
N8     N     0.36400   0.62360   0.67670   0.01267  Uiso   1.00
N9     N     0.40720   0.71780   0.66910   0.01267  Uiso   1.00
N10    N     0.54670   0.81540   0.84180   0.01267  Uiso   1.00
N11    N     0.58120   0.91310   0.83970   0.01267  Uiso   1.00
N12    N     0.62210   0.92620   0.89490   0.01267  Uiso   1.00
N13    N     0.66230   0.07920   0.24680   0.01267  Uiso   1.00
N14    N     0.62410   0.98600   0.24470   0.01267  Uiso   1.00
N15    N     0.71670   0.90150   0.24260   0.01267  Uiso   1.00
N16    N     0.32930   0.56210   0.24660   0.01267  Uiso   1.00
N17    N     0.42300   0.47750   0.24430   0.01267  Uiso   1.00
N18    N     0.38520   0.38510   0.24000   0.01267  Uiso   1.00
N19    N     0.67230   0.39560   0.37830   0.01267  Uiso   1.00
N20    N     0.63600   0.37640   0.32330   0.01267  Uiso   1.00
N21    N     0.59280   0.28220   0.33090   0.01267  Uiso   1.00
N22    N     0.45330   0.18460   0.15820   0.01267  Uiso   1.00
N23    N     0.41880   0.08690   0.16030   0.01267  Uiso   1.00
N24    N     0.37790   0.07380   0.10510   0.01267  Uiso   1.00
O1     O     0.77150   0.03240   0.73241   0.01267  Uiso   1.00
O2     O     0.80120   0.19190   0.75739   0.01267  Uiso   1.00
O3     O     0.15270   0.34740   0.75094   0.01267  Uiso   1.00
O4     O     0.17990   0.50330   0.78381   0.01267  Uiso   1.00
O5     O     0.32620   0.74780   0.36883   0.01267  Uiso   1.00
O6     O     0.42730   0.88910   0.35831   0.01267  Uiso   1.00
O7     O     0.61150   0.57690   0.13050   0.01267  Uiso   1.00
O8     O     0.71070   0.71710   0.12552   0.01267  Uiso   1.00
O9     O     0.51400   0.17360   0.79069   0.01267  Uiso   1.00
O10    O     0.44190   0.36680   0.71745   0.01267  Uiso   1.00
O11    O     0.34410   0.66580   0.81909   0.01267  Uiso   1.00
O12    O     0.61190   0.87160   0.69402   0.01267  Uiso   1.00
O13    O     0.22850   0.96760   0.26759   0.01267  Uiso   1.00
O14    O     0.19880   0.80810   0.24261   0.01267  Uiso   1.00
O15    O     0.84730   0.65260   0.24906   0.01267  Uiso   1.00
O16    O     0.82010   0.49670   0.21619   0.01267  Uiso   1.00
O17    O     0.67380   0.25220   0.63117   0.01267  Uiso   1.00
O18    O     0.57270   0.11090   0.64169   0.01267  Uiso   1.00
O19    O     0.38850   0.42310   0.86950   0.01267  Uiso   1.00
O20    O     0.28930   0.28290   0.87448   0.01267  Uiso   1.00
O21    O     0.48600   0.82640   0.20931   0.01267  Uiso   1.00
O22    O     0.55810   0.63320   0.28255   0.01267  Uiso   1.00
O23    O     0.65590   0.33420   0.18091   0.01267  Uiso   1.00
O24    O     0.38810   0.12840   0.30598   0.01267  Uiso   1.00
