data_image0
_cell_length_a       18.9011
_cell_length_b       14.8488
_cell_length_c       12.9302
_cell_angle_alpha    90
_cell_angle_beta     90
_cell_angle_gamma    90

_symmetry_space_group_name_H-M    "P 1"
_symmetry_int_tables_number       1

loop_
  _symmetry_equiv_pos_as_xyz
  'x, y, z'

loop_
  _atom_site_label
  _atom_site_occupancy
  _atom_site_fract_x
  _atom_site_fract_y
  _atom_site_fract_z
  _atom_site_thermal_displace_type
  _atom_site_B_iso_or_equiv
  _atom_site_type_symbol
  N1       1.0000 0.57110  0.42400  0.64610  Biso   1.000  N
  N2       1.0000 0.68070  0.32810  0.55310  Biso   1.000  N
  C1       1.0000 0.59990  0.44910  0.55500  Biso   1.000  C
  H1       1.0000 0.58290  0.50030  0.52180  Biso   1.000  H
  C2       1.0000 0.65300  0.40160  0.51110  Biso   1.000  C
  H2       1.0000 0.67100  0.42150  0.44810  Biso   1.000  H
  C3       1.0000 0.65140  0.30250  0.64400  Biso   1.000  C
  H3       1.0000 0.66810  0.25100  0.67690  Biso   1.000  H
  C4       1.0000 0.59790  0.35030  0.68830  Biso   1.000  C
  H4       1.0000 0.57940  0.33030  0.75090  Biso   1.000  H
  N3       1.0000 0.57110  0.92400  0.14610  Biso   1.000  N
  N4       1.0000 0.68070  0.82810  0.05310  Biso   1.000  N
  C5       1.0000 0.59990  0.94910  0.05500  Biso   1.000  C
  H5       1.0000 0.58290  0.00030  0.02180  Biso   1.000  H
  C6       1.0000 0.65300  0.90160  0.01110  Biso   1.000  C
  H6       1.0000 0.67100  0.92150  0.94810  Biso   1.000  H
  C7       1.0000 0.65140  0.80250  0.14400  Biso   1.000  C
  H7       1.0000 0.66810  0.75100  0.17690  Biso   1.000  H
  C8       1.0000 0.59790  0.85030  0.18830  Biso   1.000  C
  H8       1.0000 0.57940  0.83030  0.25090  Biso   1.000  H
  N5       1.0000 0.07110  0.42400  0.14610  Biso   1.000  N
  N6       1.0000 0.18070  0.32810  0.05310  Biso   1.000  N
  C9       1.0000 0.09990  0.44910  0.05500  Biso   1.000  C
  H9       1.0000 0.08290  0.50030  0.02180  Biso   1.000  H
  C10      1.0000 0.15300  0.40160  0.01110  Biso   1.000  C
  H10      1.0000 0.17100  0.42150  0.94810  Biso   1.000  H
  C11      1.0000 0.15140  0.30250  0.14400  Biso   1.000  C
  H11      1.0000 0.16810  0.25100  0.17690  Biso   1.000  H
  C12      1.0000 0.09790  0.35030  0.18830  Biso   1.000  C
  H12      1.0000 0.07940  0.33030  0.25090  Biso   1.000  H
  N7       1.0000 0.07110  0.92400  0.64610  Biso   1.000  N
  N8       1.0000 0.18070  0.82810  0.55310  Biso   1.000  N
  C13      1.0000 0.09990  0.94910  0.55500  Biso   1.000  C
  H13      1.0000 0.08290  0.00030  0.52180  Biso   1.000  H
  C14      1.0000 0.15300  0.90160  0.51110  Biso   1.000  C
  H14      1.0000 0.17100  0.92150  0.44810  Biso   1.000  H
  C15      1.0000 0.15140  0.80250  0.64400  Biso   1.000  C
  H15      1.0000 0.16810  0.75100  0.67690  Biso   1.000  H
  C16      1.0000 0.09790  0.85030  0.68830  Biso   1.000  C
  H16      1.0000 0.07940  0.83030  0.75090  Biso   1.000  H
  N9       1.0000 0.42890  0.57600  0.64610  Biso   1.000  N
  N10      1.0000 0.31930  0.67190  0.55310  Biso   1.000  N
  C17      1.0000 0.40010  0.55090  0.55500  Biso   1.000  C
  H17      1.0000 0.41710  0.49970  0.52180  Biso   1.000  H
  C18      1.0000 0.34700  0.59840  0.51110  Biso   1.000  C
  H18      1.0000 0.32900  0.57850  0.44810  Biso   1.000  H
  C19      1.0000 0.34860  0.69750  0.64400  Biso   1.000  C
  H19      1.0000 0.33190  0.74900  0.67690  Biso   1.000  H
  C20      1.0000 0.40210  0.64970  0.68830  Biso   1.000  C
  H20      1.0000 0.42060  0.66970  0.75090  Biso   1.000  H
  N11      1.0000 0.42890  0.07600  0.14610  Biso   1.000  N
  N12      1.0000 0.31930  0.17190  0.05310  Biso   1.000  N
  C21      1.0000 0.40010  0.05090  0.05500  Biso   1.000  C
  H21      1.0000 0.41710  0.99970  0.02180  Biso   1.000  H
  C22      1.0000 0.34700  0.09840  0.01110  Biso   1.000  C
  H22      1.0000 0.32900  0.07850  0.94810  Biso   1.000  H
  C23      1.0000 0.34860  0.19750  0.14400  Biso   1.000  C
  H23      1.0000 0.33190  0.24900  0.17690  Biso   1.000  H
  C24      1.0000 0.40210  0.14970  0.18830  Biso   1.000  C
  H24      1.0000 0.42060  0.16970  0.25090  Biso   1.000  H
  N13      1.0000 0.92890  0.57600  0.14610  Biso   1.000  N
  N14      1.0000 0.81930  0.67190  0.05310  Biso   1.000  N
  C25      1.0000 0.90010  0.55090  0.05500  Biso   1.000  C
  H25      1.0000 0.91710  0.49970  0.02180  Biso   1.000  H
  C26      1.0000 0.84700  0.59840  0.01110  Biso   1.000  C
  H26      1.0000 0.82900  0.57850  0.94810  Biso   1.000  H
  C27      1.0000 0.84860  0.69750  0.14400  Biso   1.000  C
  H27      1.0000 0.83190  0.74900  0.17690  Biso   1.000  H
  C28      1.0000 0.90210  0.64970  0.18830  Biso   1.000  C
  H28      1.0000 0.92060  0.66970  0.25090  Biso   1.000  H
  N15      1.0000 0.92890  0.07600  0.64610  Biso   1.000  N
  N16      1.0000 0.81930  0.17190  0.55310  Biso   1.000  N
  C29      1.0000 0.90010  0.05090  0.55500  Biso   1.000  C
  H29      1.0000 0.91710  0.99970  0.52180  Biso   1.000  H
  C30      1.0000 0.84700  0.09840  0.51110  Biso   1.000  C
  H30      1.0000 0.82900  0.07850  0.44810  Biso   1.000  H
  C31      1.0000 0.84860  0.19750  0.64400  Biso   1.000  C
  H31      1.0000 0.83190  0.24900  0.67690  Biso   1.000  H
  C32      1.0000 0.90210  0.14970  0.68830  Biso   1.000  C
  H32      1.0000 0.92060  0.16970  0.75090  Biso   1.000  H
  N17      1.0000 0.82110  0.82600  0.89610  Biso   1.000  N
  N18      1.0000 0.93070  0.92190  0.80310  Biso   1.000  N
  C33      1.0000 0.84990  0.80090  0.80500  Biso   1.000  C
  H33      1.0000 0.83290  0.74970  0.77180  Biso   1.000  H
  C34      1.0000 0.90300  0.84840  0.76110  Biso   1.000  C
  H34      1.0000 0.92100  0.82850  0.69810  Biso   1.000  H
  C35      1.0000 0.90140  0.94750  0.89400  Biso   1.000  C
  H35      1.0000 0.91810  0.99900  0.92690  Biso   1.000  H
  C36      1.0000 0.84790  0.89970  0.93830  Biso   1.000  C
  H36      1.0000 0.82940  0.91970  0.00090  Biso   1.000  H
  N19      1.0000 0.82110  0.32600  0.39610  Biso   1.000  N
  N20      1.0000 0.93070  0.42190  0.30310  Biso   1.000  N
  C37      1.0000 0.84990  0.30090  0.30500  Biso   1.000  C
  H37      1.0000 0.83290  0.24970  0.27180  Biso   1.000  H
  C38      1.0000 0.90300  0.34840  0.26110  Biso   1.000  C
  H38      1.0000 0.92100  0.32850  0.19810  Biso   1.000  H
  C39      1.0000 0.90140  0.44750  0.39400  Biso   1.000  C
  H39      1.0000 0.91810  0.49900  0.42690  Biso   1.000  H
  C40      1.0000 0.84790  0.39970  0.43830  Biso   1.000  C
  H40      1.0000 0.82940  0.41970  0.50090  Biso   1.000  H
  N21      1.0000 0.32110  0.82600  0.39610  Biso   1.000  N
  N22      1.0000 0.43070  0.92190  0.30310  Biso   1.000  N
  C41      1.0000 0.34990  0.80090  0.30500  Biso   1.000  C
  H41      1.0000 0.33290  0.74970  0.27180  Biso   1.000  H
  C42      1.0000 0.40300  0.84840  0.26110  Biso   1.000  C
  H42      1.0000 0.42100  0.82850  0.19810  Biso   1.000  H
  C43      1.0000 0.40140  0.94750  0.39400  Biso   1.000  C
  H43      1.0000 0.41810  0.99900  0.42690  Biso   1.000  H
  C44      1.0000 0.34790  0.89970  0.43830  Biso   1.000  C
  H44      1.0000 0.32940  0.91970  0.50090  Biso   1.000  H
  N23      1.0000 0.32110  0.32600  0.89610  Biso   1.000  N
  N24      1.0000 0.43070  0.42190  0.80310  Biso   1.000  N
  C45      1.0000 0.34990  0.30090  0.80500  Biso   1.000  C
  H45      1.0000 0.33290  0.24970  0.77180  Biso   1.000  H
  C46      1.0000 0.40300  0.34840  0.76110  Biso   1.000  C
  H46      1.0000 0.42100  0.32850  0.69810  Biso   1.000  H
  C47      1.0000 0.40140  0.44750  0.89400  Biso   1.000  C
  H47      1.0000 0.41810  0.49900  0.92690  Biso   1.000  H
  C48      1.0000 0.34790  0.39970  0.93830  Biso   1.000  C
  H48      1.0000 0.32940  0.41970  0.00090  Biso   1.000  H
  N25      1.0000 0.67890  0.67400  0.89610  Biso   1.000  N
  N26      1.0000 0.56930  0.57810  0.80310  Biso   1.000  N
  C49      1.0000 0.65010  0.69910  0.80500  Biso   1.000  C
  H49      1.0000 0.66710  0.75030  0.77180  Biso   1.000  H
  C50      1.0000 0.59700  0.65160  0.76110  Biso   1.000  C
  H50      1.0000 0.57900  0.67150  0.69810  Biso   1.000  H
  C51      1.0000 0.59860  0.55250  0.89400  Biso   1.000  C
  H51      1.0000 0.58190  0.50100  0.92690  Biso   1.000  H
  C52      1.0000 0.65210  0.60030  0.93830  Biso   1.000  C
  H52      1.0000 0.67060  0.58030  0.00090  Biso   1.000  H
  N27      1.0000 0.67890  0.17400  0.39610  Biso   1.000  N
  N28      1.0000 0.56930  0.07810  0.30310  Biso   1.000  N
  C53      1.0000 0.65010  0.19910  0.30500  Biso   1.000  C
  H53      1.0000 0.66710  0.25030  0.27180  Biso   1.000  H
  C54      1.0000 0.59700  0.15160  0.26110  Biso   1.000  C
  H54      1.0000 0.57900  0.17150  0.19810  Biso   1.000  H
  C55      1.0000 0.59860  0.05250  0.39400  Biso   1.000  C
  H55      1.0000 0.58190  0.00100  0.42690  Biso   1.000  H
  C56      1.0000 0.65210  0.10030  0.43830  Biso   1.000  C
  H56      1.0000 0.67060  0.08030  0.50090  Biso   1.000  H
  N29      1.0000 0.17890  0.67400  0.39610  Biso   1.000  N
  N30      1.0000 0.06930  0.57810  0.30310  Biso   1.000  N
  C57      1.0000 0.15010  0.69910  0.30500  Biso   1.000  C
  H57      1.0000 0.16710  0.75030  0.27180  Biso   1.000  H
  C58      1.0000 0.09700  0.65160  0.26110  Biso   1.000  C
  H58      1.0000 0.07900  0.67150  0.19810  Biso   1.000  H
  C59      1.0000 0.09860  0.55250  0.39400  Biso   1.000  C
  H59      1.0000 0.08190  0.50100  0.42690  Biso   1.000  H
  C60      1.0000 0.15210  0.60030  0.43830  Biso   1.000  C
  H60      1.0000 0.17060  0.58030  0.50090  Biso   1.000  H
  N31      1.0000 0.17890  0.17400  0.89610  Biso   1.000  N
  N32      1.0000 0.06930  0.07810  0.80310  Biso   1.000  N
  C61      1.0000 0.15010  0.19910  0.80500  Biso   1.000  C
  H61      1.0000 0.16710  0.25030  0.77180  Biso   1.000  H
  C62      1.0000 0.09700  0.15160  0.76110  Biso   1.000  C
  H62      1.0000 0.07900  0.17150  0.69810  Biso   1.000  H
  C63      1.0000 0.09860  0.05250  0.89400  Biso   1.000  C
  H63      1.0000 0.08190  0.00100  0.92690  Biso   1.000  H
  C64      1.0000 0.15210  0.10030  0.93830  Biso   1.000  C
  H64      1.0000 0.17060  0.08030  0.00090  Biso   1.000  H
  Cu1      1.0000 0.50000  0.50000  0.72400  Biso   1.000  Cu
  Cu2      1.0000 0.50000  0.00000  0.22400  Biso   1.000  Cu
  Cu3      1.0000 0.00000  0.50000  0.22400  Biso   1.000  Cu
  Cu4      1.0000 0.00000  0.00000  0.72400  Biso   1.000  Cu
  Cu5      1.0000 0.75000  0.75000  0.97400  Biso   1.000  Cu
  Cu6      1.0000 0.75000  0.25000  0.47400  Biso   1.000  Cu
  Cu7      1.0000 0.25000  0.75000  0.47400  Biso   1.000  Cu
  Cu8      1.0000 0.25000  0.25000  0.97400  Biso   1.000  Cu
