data_HAXJEX_clean
_audit_creation_date              2014-07-02
_audit_creation_method            'Materials Studio'
_symmetry_space_group_name_H-M    'P1'
_symmetry_Int_Tables_number       1
_symmetry_cell_setting            triclinic
loop_
_symmetry_equiv_pos_as_xyz
  x,y,z
_cell_length_a                    11.0192
_cell_length_b                    11.0192
_cell_length_c                    17.0388
_cell_angle_alpha                 91.6539
_cell_angle_beta                  91.6539
_cell_angle_gamma                 90.6677
loop_
_atom_site_label
_atom_site_type_symbol
_atom_site_fract_x
_atom_site_fract_y
_atom_site_fract_z
_atom_site_U_iso_or_equiv
_atom_site_adp_type
_atom_site_occupancy
Zn1    Zn    0.46298   0.65636   0.81743   0.01267  Uiso   1.00
Zn2    Zn    0.81551   0.30249   0.17482   0.01267  Uiso   1.00
Zn3    Zn    0.34364   0.53702   0.68257   0.01267  Uiso   1.00
Zn4    Zn    0.69751   0.18449   0.32518   0.01267  Uiso   1.00
Zn5    Zn    0.53702   0.34364   0.18257   0.01267  Uiso   1.00
Zn6    Zn    0.18449   0.69751   0.82518   0.01267  Uiso   1.00
Zn7    Zn    0.65636   0.46298   0.31743   0.01267  Uiso   1.00
Zn8    Zn    0.30249   0.81551   0.67482   0.01267  Uiso   1.00
H1     H     0.56030   0.65170   0.03710   0.01267  Uiso   1.00
H2     H     0.69440   0.82300   0.23180   0.01267  Uiso   1.00
H3     H     0.67820   0.99540   0.02940   0.01267  Uiso   1.00
H4     H     0.00720   0.79200   0.12770   0.01267  Uiso   1.00
H5     H     0.92270   0.76730   0.98450   0.01267  Uiso   1.00
H6     H     0.67240   0.25900   0.88230   0.01267  Uiso   1.00
H7     H     0.72490   0.45350   0.85190   0.01267  Uiso   1.00
H8     H     0.82790   0.65150   0.89190   0.01267  Uiso   1.00
H9     H     0.03130   0.71070   0.24820   0.01267  Uiso   1.00
H10    H     0.70620   0.19660   0.00720   0.01267  Uiso   1.00
H11    H     0.96150   0.51630   0.26890   0.01267  Uiso   1.00
H12    H     0.34830   0.43970   0.46290   0.01267  Uiso   1.00
H13    H     0.17700   0.30560   0.26820   0.01267  Uiso   1.00
H14    H     0.00460   0.32180   0.47060   0.01267  Uiso   1.00
H15    H     0.20800   0.99280   0.37230   0.01267  Uiso   1.00
H16    H     0.23270   0.07730   0.51550   0.01267  Uiso   1.00
H17    H     0.74100   0.32760   0.61770   0.01267  Uiso   1.00
H18    H     0.54650   0.27510   0.64810   0.01267  Uiso   1.00
H19    H     0.34850   0.17210   0.60810   0.01267  Uiso   1.00
H20    H     0.28930   0.96870   0.25180   0.01267  Uiso   1.00
H21    H     0.80340   0.29380   0.49280   0.01267  Uiso   1.00
H22    H     0.48370   0.03850   0.23110   0.01267  Uiso   1.00
H23    H     0.43970   0.34830   0.96290   0.01267  Uiso   1.00
H24    H     0.30560   0.17700   0.76820   0.01267  Uiso   1.00
H25    H     0.32180   0.00460   0.97060   0.01267  Uiso   1.00
H26    H     0.99280   0.20800   0.87230   0.01267  Uiso   1.00
H27    H     0.07730   0.23270   0.01550   0.01267  Uiso   1.00
H28    H     0.32760   0.74100   0.11770   0.01267  Uiso   1.00
H29    H     0.27510   0.54650   0.14810   0.01267  Uiso   1.00
H30    H     0.17210   0.34850   0.10810   0.01267  Uiso   1.00
H31    H     0.96870   0.28930   0.75180   0.01267  Uiso   1.00
H32    H     0.29380   0.80340   0.99280   0.01267  Uiso   1.00
H33    H     0.03850   0.48370   0.73110   0.01267  Uiso   1.00
H34    H     0.65170   0.56030   0.53710   0.01267  Uiso   1.00
H35    H     0.82300   0.69440   0.73180   0.01267  Uiso   1.00
H36    H     0.99540   0.67820   0.52940   0.01267  Uiso   1.00
H37    H     0.79200   0.00720   0.62770   0.01267  Uiso   1.00
H38    H     0.76730   0.92270   0.48450   0.01267  Uiso   1.00
H39    H     0.25900   0.67240   0.38230   0.01267  Uiso   1.00
H40    H     0.45350   0.72490   0.35190   0.01267  Uiso   1.00
H41    H     0.65150   0.82790   0.39190   0.01267  Uiso   1.00
H42    H     0.71070   0.03130   0.74820   0.01267  Uiso   1.00
H43    H     0.19660   0.70620   0.50720   0.01267  Uiso   1.00
H44    H     0.51630   0.96150   0.76890   0.01267  Uiso   1.00
C1     C     0.69280   0.92700   0.13720   0.01267  Uiso   1.00
C2     C     0.59420   0.72080   0.06190   0.01267  Uiso   1.00
C3     C     0.73770   0.03910   0.17870   0.01267  Uiso   1.00
C4     C     0.61170   0.82390   0.01960   0.01267  Uiso   1.00
C5     C     0.67440   0.82320   0.17840   0.01267  Uiso   1.00
C6     C     0.57580   0.82380   0.93320   0.01267  Uiso   1.00
C7     C     0.62700   0.71920   0.14170   0.01267  Uiso   1.00
C8     C     0.66330   0.92630   0.05780   0.01267  Uiso   1.00
C9     C     0.61080   0.60360   0.18430   0.01267  Uiso   1.00
C10    C     0.97800   0.71420   0.13640   0.01267  Uiso   1.00
C11    C     0.89670   0.68970   0.99670   0.01267  Uiso   1.00
C12    C     0.70860   0.31140   0.92010   0.01267  Uiso   1.00
C13    C     0.74130   0.42590   0.90220   0.01267  Uiso   1.00
C14    C     0.84020   0.62100   0.94170   0.01267  Uiso   1.00
C15    C     0.99280   0.66620   0.20740   0.01267  Uiso   1.00
C16    C     0.79800   0.50160   0.95680   0.01267  Uiso   1.00
C17    C     0.91860   0.64700   0.07480   0.01267  Uiso   1.00
C18    C     0.73030   0.27490   0.99500   0.01267  Uiso   1.00
C19    C     0.87670   0.53050   0.09210   0.01267  Uiso   1.00
C20    C     0.94950   0.54870   0.21950   0.01267  Uiso   1.00
C21    C     0.81750   0.45670   0.03260   0.01267  Uiso   1.00
C22    C     0.07300   0.30720   0.36280   0.01267  Uiso   1.00
C23    C     0.27920   0.40580   0.43810   0.01267  Uiso   1.00
C24    C     0.96090   0.26230   0.32130   0.01267  Uiso   1.00
C25    C     0.17610   0.38830   0.48040   0.01267  Uiso   1.00
C26    C     0.17680   0.32560   0.32160   0.01267  Uiso   1.00
C27    C     0.17620   0.42420   0.56680   0.01267  Uiso   1.00
C28    C     0.28080   0.37300   0.35830   0.01267  Uiso   1.00
C29    C     0.07370   0.33670   0.44220   0.01267  Uiso   1.00
C30    C     0.39640   0.38920   0.31570   0.01267  Uiso   1.00
C31    C     0.28580   0.02200   0.36360   0.01267  Uiso   1.00
C32    C     0.31030   0.10330   0.50330   0.01267  Uiso   1.00
C33    C     0.68860   0.29140   0.57990   0.01267  Uiso   1.00
C34    C     0.57410   0.25870   0.59780   0.01267  Uiso   1.00
C35    C     0.37900   0.15980   0.55830   0.01267  Uiso   1.00
C36    C     0.33380   0.00720   0.29260   0.01267  Uiso   1.00
C37    C     0.49840   0.20200   0.54320   0.01267  Uiso   1.00
C38    C     0.35300   0.08140   0.42520   0.01267  Uiso   1.00
C39    C     0.72510   0.26970   0.50500   0.01267  Uiso   1.00
C40    C     0.46950   0.12330   0.40790   0.01267  Uiso   1.00
C41    C     0.45130   0.05050   0.28050   0.01267  Uiso   1.00
C42    C     0.54330   0.18250   0.46740   0.01267  Uiso   1.00
C43    C     0.30720   0.07300   0.86280   0.01267  Uiso   1.00
C44    C     0.40580   0.27920   0.93810   0.01267  Uiso   1.00
C45    C     0.26230   0.96090   0.82130   0.01267  Uiso   1.00
C46    C     0.38830   0.17610   0.98040   0.01267  Uiso   1.00
C47    C     0.32560   0.17680   0.82160   0.01267  Uiso   1.00
C48    C     0.42420   0.17620   0.06680   0.01267  Uiso   1.00
C49    C     0.37300   0.28080   0.85830   0.01267  Uiso   1.00
C50    C     0.33670   0.07370   0.94220   0.01267  Uiso   1.00
C51    C     0.38920   0.39640   0.81570   0.01267  Uiso   1.00
C52    C     0.02200   0.28580   0.86360   0.01267  Uiso   1.00
C53    C     0.10330   0.31030   0.00330   0.01267  Uiso   1.00
C54    C     0.29140   0.68860   0.07990   0.01267  Uiso   1.00
C55    C     0.25870   0.57410   0.09780   0.01267  Uiso   1.00
C56    C     0.15980   0.37900   0.05830   0.01267  Uiso   1.00
C57    C     0.00720   0.33380   0.79260   0.01267  Uiso   1.00
C58    C     0.20200   0.49840   0.04320   0.01267  Uiso   1.00
C59    C     0.08140   0.35300   0.92520   0.01267  Uiso   1.00
C60    C     0.26970   0.72510   0.00500   0.01267  Uiso   1.00
C61    C     0.12330   0.46950   0.90790   0.01267  Uiso   1.00
C62    C     0.05050   0.45130   0.78050   0.01267  Uiso   1.00
C63    C     0.18250   0.54330   0.96740   0.01267  Uiso   1.00
C64    C     0.92700   0.69280   0.63720   0.01267  Uiso   1.00
C65    C     0.72080   0.59420   0.56190   0.01267  Uiso   1.00
C66    C     0.03910   0.73770   0.67870   0.01267  Uiso   1.00
C67    C     0.82390   0.61170   0.51960   0.01267  Uiso   1.00
C68    C     0.82320   0.67440   0.67840   0.01267  Uiso   1.00
C69    C     0.82380   0.57580   0.43320   0.01267  Uiso   1.00
C70    C     0.71920   0.62700   0.64170   0.01267  Uiso   1.00
C71    C     0.92630   0.66330   0.55780   0.01267  Uiso   1.00
C72    C     0.60360   0.61080   0.68430   0.01267  Uiso   1.00
C73    C     0.71420   0.97800   0.63640   0.01267  Uiso   1.00
C74    C     0.68970   0.89670   0.49670   0.01267  Uiso   1.00
C75    C     0.31140   0.70860   0.42010   0.01267  Uiso   1.00
C76    C     0.42590   0.74130   0.40220   0.01267  Uiso   1.00
C77    C     0.62100   0.84020   0.44170   0.01267  Uiso   1.00
C78    C     0.66620   0.99280   0.70740   0.01267  Uiso   1.00
C79    C     0.50160   0.79800   0.45680   0.01267  Uiso   1.00
C80    C     0.64700   0.91860   0.57480   0.01267  Uiso   1.00
C81    C     0.27490   0.73030   0.49500   0.01267  Uiso   1.00
C82    C     0.53050   0.87670   0.59210   0.01267  Uiso   1.00
C83    C     0.54870   0.94950   0.71950   0.01267  Uiso   1.00
C84    C     0.45670   0.81750   0.53260   0.01267  Uiso   1.00
N1     N     0.89280   0.48180   0.16440   0.01267  Uiso   1.00
N2     N     0.78330   0.34370   0.05160   0.01267  Uiso   1.00
N3     N     0.51820   0.10720   0.33560   0.01267  Uiso   1.00
N4     N     0.65630   0.21670   0.44840   0.01267  Uiso   1.00
N5     N     0.10720   0.51820   0.83560   0.01267  Uiso   1.00
N6     N     0.21670   0.65630   0.94840   0.01267  Uiso   1.00
N7     N     0.48180   0.89280   0.66440   0.01267  Uiso   1.00
N8     N     0.34370   0.78330   0.55160   0.01267  Uiso   1.00
O1     O     0.50040   0.73800   0.91331   0.01267  Uiso   1.00
O2     O     0.61660   0.89900   0.89070   0.01267  Uiso   1.00
O3     O     0.77640   0.12540   0.13914   0.01267  Uiso   1.00
O4     O     0.73590   0.04230   0.25296   0.01267  Uiso   1.00
O5     O     0.57210   0.51150   0.14645   0.01267  Uiso   1.00
O6     O     0.63920   0.60920   0.25664   0.01267  Uiso   1.00
O7     O     0.26200   0.49960   0.58669   0.01267  Uiso   1.00
O8     O     0.10100   0.38340   0.60930   0.01267  Uiso   1.00
O9     O     0.87460   0.22360   0.36086   0.01267  Uiso   1.00
O10    O     0.95770   0.26410   0.24704   0.01267  Uiso   1.00
O11    O     0.48850   0.42790   0.35355   0.01267  Uiso   1.00
O12    O     0.39080   0.36080   0.24336   0.01267  Uiso   1.00
O13    O     0.49960   0.26200   0.08669   0.01267  Uiso   1.00
O14    O     0.38340   0.10100   0.10930   0.01267  Uiso   1.00
O15    O     0.22360   0.87460   0.86086   0.01267  Uiso   1.00
O16    O     0.26410   0.95770   0.74704   0.01267  Uiso   1.00
O17    O     0.42790   0.48850   0.85355   0.01267  Uiso   1.00
O18    O     0.36080   0.39080   0.74336   0.01267  Uiso   1.00
O19    O     0.73800   0.50040   0.41331   0.01267  Uiso   1.00
O20    O     0.89900   0.61660   0.39070   0.01267  Uiso   1.00
O21    O     0.12540   0.77640   0.63914   0.01267  Uiso   1.00
O22    O     0.04230   0.73590   0.75296   0.01267  Uiso   1.00
O23    O     0.51150   0.57210   0.64645   0.01267  Uiso   1.00
O24    O     0.60920   0.63920   0.75664   0.01267  Uiso   1.00
O25    O     0.31970   0.68030   0.75000   0.01267  Uiso   1.00
O26    O     0.68030   0.31970   0.25000   0.01267  Uiso   1.00
