data_HAXMUP_clean
_audit_creation_date              2014-07-02
_audit_creation_method            'Materials Studio'
_symmetry_space_group_name_H-M    'P1'
_symmetry_Int_Tables_number       1
_symmetry_cell_setting            triclinic
loop_
_symmetry_equiv_pos_as_xyz
  x,y,z
_cell_length_a                    10.0631
_cell_length_b                    14.5166
_cell_length_c                    14.5166
_cell_angle_alpha                 65.1711
_cell_angle_beta                  76.6399
_cell_angle_gamma                 103.3600
loop_
_atom_site_label
_atom_site_type_symbol
_atom_site_fract_x
_atom_site_fract_y
_atom_site_fract_z
_atom_site_U_iso_or_equiv
_atom_site_adp_type
_atom_site_occupancy
Cu1    Cu    0.38255   0.88760   0.54935   0.01267  Uiso   1.00
Cu2    Cu    0.93190   0.54935   0.56305   0.01267  Uiso   1.00
Cu3    Cu    0.49495   0.56305   0.88760   0.01267  Uiso   1.00
Cu4    Cu    0.61745   0.11240   0.45065   0.01267  Uiso   1.00
Cu5    Cu    0.06810   0.45065   0.43695   0.01267  Uiso   1.00
Cu6    Cu    0.50505   0.43695   0.11240   0.01267  Uiso   1.00
H1     H     0.47380   0.72500   0.69170   0.01267  Uiso   1.00
H2     H     0.03150   0.65840   0.93200   0.01267  Uiso   1.00
H3     H     0.10560   0.77890   0.74830   0.01267  Uiso   1.00
H4     H     0.09040   0.53460   0.07550   0.01267  Uiso   1.00
H5     H     0.24440   0.51300   0.04730   0.01267  Uiso   1.00
H6     H     0.62700   0.01940   0.29100   0.01267  Uiso   1.00
H7     H     0.45180   0.96140   0.31370   0.01267  Uiso   1.00
H8     H     0.53280   0.09140   0.25770   0.01267  Uiso   1.00
H9     H     0.16550   0.69170   0.58330   0.01267  Uiso   1.00
H10    H     0.96350   0.93200   0.40960   0.01267  Uiso   1.00
H11    H     0.85390   0.74830   0.47280   0.01267  Uiso   1.00
H12    H     0.16590   0.07550   0.38990   0.01267  Uiso   1.00
H13    H     0.29170   0.04730   0.43970   0.01267  Uiso   1.00
H14    H     0.91800   0.29100   0.68960   0.01267  Uiso   1.00
H15    H     0.76550   0.31370   0.72490   0.01267  Uiso   1.00
H16    H     0.79050   0.25770   0.65090   0.01267  Uiso   1.00
H17    H     0.74880   0.58330   0.72500   0.01267  Uiso   1.00
H18    H     0.37310   0.40960   0.65840   0.01267  Uiso   1.00
H19    H     0.32670   0.47280   0.77890   0.01267  Uiso   1.00
H20    H     0.55580   0.38990   0.53460   0.01267  Uiso   1.00
H21    H     0.73140   0.43970   0.51300   0.01267  Uiso   1.00
H22    H     0.60760   0.68960   0.01940   0.01267  Uiso   1.00
H23    H     0.49040   0.72490   0.96140   0.01267  Uiso   1.00
H24    H     0.44140   0.65090   0.09140   0.01267  Uiso   1.00
H25    H     0.52620   0.27500   0.30830   0.01267  Uiso   1.00
H26    H     0.96850   0.34160   0.06800   0.01267  Uiso   1.00
H27    H     0.89440   0.22110   0.25170   0.01267  Uiso   1.00
H28    H     0.90960   0.46540   0.92450   0.01267  Uiso   1.00
H29    H     0.75560   0.48700   0.95270   0.01267  Uiso   1.00
H30    H     0.37300   0.98060   0.70900   0.01267  Uiso   1.00
H31    H     0.54820   0.03860   0.68630   0.01267  Uiso   1.00
H32    H     0.46720   0.90860   0.74230   0.01267  Uiso   1.00
H33    H     0.83450   0.30830   0.41670   0.01267  Uiso   1.00
H34    H     0.03650   0.06800   0.59040   0.01267  Uiso   1.00
H35    H     0.14610   0.25170   0.52720   0.01267  Uiso   1.00
H36    H     0.83410   0.92450   0.61010   0.01267  Uiso   1.00
H37    H     0.70830   0.95270   0.56030   0.01267  Uiso   1.00
H38    H     0.08200   0.70900   0.31040   0.01267  Uiso   1.00
H39    H     0.23450   0.68630   0.27510   0.01267  Uiso   1.00
H40    H     0.20950   0.74230   0.34910   0.01267  Uiso   1.00
H41    H     0.25120   0.41670   0.27500   0.01267  Uiso   1.00
H42    H     0.62690   0.59040   0.34160   0.01267  Uiso   1.00
H43    H     0.67330   0.52720   0.22110   0.01267  Uiso   1.00
H44    H     0.44420   0.61010   0.46540   0.01267  Uiso   1.00
H45    H     0.26860   0.56030   0.48700   0.01267  Uiso   1.00
H46    H     0.39240   0.31040   0.98060   0.01267  Uiso   1.00
H47    H     0.50960   0.27510   0.03860   0.01267  Uiso   1.00
H48    H     0.55860   0.34910   0.90860   0.01267  Uiso   1.00
C1     C     0.12300   0.67170   0.88200   0.01267  Uiso   1.00
C2     C     0.38190   0.71070   0.74190   0.01267  Uiso   1.00
C3     C     0.16700   0.74210   0.77420   0.01267  Uiso   1.00
C4     C     0.21680   0.61790   0.92000   0.01267  Uiso   1.00
C5     C     0.52260   0.02400   0.31090   0.01267  Uiso   1.00
C6     C     0.00500   0.88200   0.44630   0.01267  Uiso   1.00
C7     C     0.12380   0.74190   0.54740   0.01267  Uiso   1.00
C8     C     0.94120   0.77420   0.48370   0.01267  Uiso   1.00
C9     C     0.13680   0.92000   0.46210   0.01267  Uiso   1.00
C10    C     0.83350   0.31090   0.66510   0.01267  Uiso   1.00
C11    C     0.45130   0.44630   0.67170   0.01267  Uiso   1.00
C12    C     0.67120   0.54740   0.71070   0.01267  Uiso   1.00
C13    C     0.42490   0.48370   0.74210   0.01267  Uiso   1.00
C14    C     0.59890   0.46210   0.61790   0.01267  Uiso   1.00
C15    C     0.49860   0.66510   0.02400   0.01267  Uiso   1.00
C16    C     0.87700   0.32830   0.11800   0.01267  Uiso   1.00
C17    C     0.61810   0.28930   0.25810   0.01267  Uiso   1.00
C18    C     0.83300   0.25790   0.22580   0.01267  Uiso   1.00
C19    C     0.78320   0.38210   0.08000   0.01267  Uiso   1.00
C20    C     0.47740   0.97600   0.68910   0.01267  Uiso   1.00
C21    C     0.99500   0.11800   0.55370   0.01267  Uiso   1.00
C22    C     0.87620   0.25810   0.45260   0.01267  Uiso   1.00
C23    C     0.05880   0.22580   0.51630   0.01267  Uiso   1.00
C24    C     0.86320   0.08000   0.53790   0.01267  Uiso   1.00
C25    C     0.16650   0.68910   0.33490   0.01267  Uiso   1.00
C26    C     0.54870   0.55370   0.32830   0.01267  Uiso   1.00
C27    C     0.32880   0.45260   0.28930   0.01267  Uiso   1.00
C28    C     0.57510   0.51630   0.25790   0.01267  Uiso   1.00
C29    C     0.40110   0.53790   0.38210   0.01267  Uiso   1.00
C30    C     0.50140   0.33490   0.97600   0.01267  Uiso   1.00
N1     N     0.29970   0.76390   0.70060   0.01267  Uiso   1.00
N2     N     0.34830   0.63890   0.84590   0.01267  Uiso   1.00
N3     N     0.18080   0.54880   0.02370   0.01267  Uiso   1.00
N4     N     0.00030   0.70060   0.53550   0.01267  Uiso   1.00
N5     N     0.19420   0.84590   0.51520   0.01267  Uiso   1.00
N6     N     0.20450   0.02370   0.42750   0.01267  Uiso   1.00
N7     N     0.53580   0.53550   0.76390   0.01267  Uiso   1.00
N8     N     0.70940   0.51520   0.63890   0.01267  Uiso   1.00
N9     N     0.63200   0.42750   0.54880   0.01267  Uiso   1.00
N10    N     0.70030   0.23610   0.29940   0.01267  Uiso   1.00
N11    N     0.65170   0.36110   0.15410   0.01267  Uiso   1.00
N12    N     0.81920   0.45120   0.97630   0.01267  Uiso   1.00
N13    N     0.99970   0.29940   0.46450   0.01267  Uiso   1.00
N14    N     0.80580   0.15410   0.48480   0.01267  Uiso   1.00
N15    N     0.79550   0.97630   0.57250   0.01267  Uiso   1.00
N16    N     0.46420   0.46450   0.23610   0.01267  Uiso   1.00
N17    N     0.29060   0.48480   0.36110   0.01267  Uiso   1.00
N18    N     0.36800   0.57250   0.45120   0.01267  Uiso   1.00
O1     O     0.48760   0.02170   0.41300   0.01267  Uiso   1.00
O2     O     0.90060   0.41300   0.56530   0.01267  Uiso   1.00
O3     O     0.46590   0.56530   0.02170   0.01267  Uiso   1.00
O4     O     0.51240   0.97830   0.58700   0.01267  Uiso   1.00
O5     O     0.09940   0.58700   0.43470   0.01267  Uiso   1.00
O6     O     0.53410   0.43470   0.97830   0.01267  Uiso   1.00
