data_image0
_cell_length_a       10.3039
_cell_length_b       24.9425
_cell_length_c       11.574
_cell_angle_alpha    90
_cell_angle_beta     93.197
_cell_angle_gamma    90

_symmetry_space_group_name_H-M    "P 1"
_symmetry_int_tables_number       1

loop_
  _symmetry_equiv_pos_as_xyz
  'x, y, z'

loop_
  _atom_site_label
  _atom_site_occupancy
  _atom_site_fract_x
  _atom_site_fract_y
  _atom_site_fract_z
  _atom_site_thermal_displace_type
  _atom_site_B_iso_or_equiv
  _atom_site_type_symbol
  Zn1      1.0000 0.56823  0.22009  0.41441  Biso   1.000  Zn
  Zn2      1.0000 0.06993  0.14678  0.43502  Biso   1.000  Zn
  O1       1.0000 0.76200  0.19164  0.41990  Biso   1.000  O
  O2       1.0000 0.88390  0.11711  0.42720  Biso   1.000  O
  O3       1.0000 0.26280  0.17874  0.44510  Biso   1.000  O
  O4       1.0000 0.37960  0.25003  0.40050  Biso   1.000  O
  N1       1.0000 0.63470  0.30147  0.43890  Biso   1.000  N
  N2       1.0000 0.84850  0.56755  0.55480  Biso   1.000  N
  N3       1.0000 0.06460  0.13940  0.23940  Biso   1.000  N
  N4       1.0000 0.06630  0.14466  0.62570  Biso   1.000  N
  N5       1.0000 0.53540  0.13638  0.40230  Biso   1.000  N
  H1       1.0000 0.47460  0.12660  0.45370  Biso   1.000  H
  H2       1.0000 0.50240  0.12810  0.32900  Biso   1.000  H
  N6       1.0000 0.72760  0.90999  0.16810  Biso   1.000  N
  H3       1.0000 0.65450  0.89250  0.14110  Biso   1.000  H
  H4       1.0000 0.79320  0.88590  0.18090  Biso   1.000  H
  H5       1.0000 0.75090  0.93450  0.11480  Biso   1.000  H
  N7       1.0000 0.03750  0.23065  0.42420  Biso   1.000  N
  H6       1.0000 0.96360  0.23730  0.37810  Biso   1.000  H
  H7       1.0000 0.02500  0.24410  0.49680  Biso   1.000  H
  N8       1.0000 0.18940  0.44545  0.22570  Biso   1.000  N
  H8       1.0000 0.19850  0.41230  0.19420  Biso   1.000  H
  H9       1.0000 0.26360  0.46460  0.21810  Biso   1.000  H
  H10      1.0000 0.12140  0.46270  0.18840  Biso   1.000  H
  C1       1.0000 0.57210  0.34315  0.39010  Biso   1.000  C
  H11      1.0000 0.50060  0.33660  0.33650  Biso   1.000  H
  C2       1.0000 0.60790  0.39617  0.41480  Biso   1.000  C
  H12      1.0000 0.56050  0.42490  0.37900  Biso   1.000  H
  C3       1.0000 0.71220  0.40660  0.49130  Biso   1.000  C
  C4       1.0000 0.77850  0.36297  0.54170  Biso   1.000  C
  H13      1.0000 0.85150  0.36840  0.59420  Biso   1.000  H
  C5       1.0000 0.73600  0.31163  0.51390  Biso   1.000  C
  H14      1.0000 0.78070  0.28210  0.54960  Biso   1.000  H
  C6       1.0000 0.75580  0.55603  0.47300  Biso   1.000  C
  H15      1.0000 0.71950  0.58470  0.42800  Biso   1.000  H
  C7       1.0000 0.71060  0.50566  0.45030  Biso   1.000  C
  H16      1.0000 0.64700  0.49980  0.38900  Biso   1.000  H
  C8       1.0000 0.75750  0.46277  0.51680  Biso   1.000  C
  C9       1.0000 0.84950  0.47439  0.60510  Biso   1.000  C
  H17      1.0000 0.88230  0.44670  0.65490  Biso   1.000  H
  C10      1.0000 0.89350  0.52661  0.62050  Biso   1.000  C
  H18      1.0000 0.95830  0.53370  0.68010  Biso   1.000  H
  C11      1.0000 0.17050  0.15080  0.18260  Biso   1.000  C
  H19      1.0000 0.24860  0.15860  0.22690  Biso   1.000  H
  C12      1.0000 0.17350  0.15210  0.06370  Biso   1.000  C
  H20      1.0000 0.25120  0.16190  0.02860  Biso   1.000  H
  C13      1.0000 0.06290  0.13896  0.99540  Biso   1.000  C
  C14      1.0000 0.95550  0.12388  0.05400  Biso   1.000  C
  H21      1.0000 0.87890  0.11210  0.01200  Biso   1.000  H
  C15      1.0000 0.95890  0.12576  0.17230  Biso   1.000  C
  H22      1.0000 0.88190  0.11690  0.20940  Biso   1.000  H
  C16      1.0000 0.14140  0.17658  0.69340  Biso   1.000  C
  H23      1.0000 0.19680  0.20110  0.65720  Biso   1.000  H
  C17      1.0000 0.14370  0.17624  0.81180  Biso   1.000  C
  H24      1.0000 0.19900  0.20010  0.85550  Biso   1.000  H
  C18      1.0000 0.06320  0.14021  0.86790  Biso   1.000  C
  C19      1.0000 0.98530  0.10713  0.79730  Biso   1.000  C
  H25      1.0000 0.93000  0.08170  0.83060  Biso   1.000  H
  C20      1.0000 0.98810  0.11110  0.68000  Biso   1.000  C
  H26      1.0000 0.93130  0.08880  0.63390  Biso   1.000  H
  C21      1.0000 0.77620  0.14177  0.42430  Biso   1.000  C
  C22      1.0000 0.65700  0.10546  0.42780  Biso   1.000  C
  H27      1.0000 0.65400  0.09220  0.50910  Biso   1.000  H
  C23      1.0000 0.67040  0.05621  0.35120  Biso   1.000  C
  H28      1.0000 0.66450  0.06800  0.26940  Biso   1.000  H
  H29      1.0000 0.75830  0.04090  0.36700  Biso   1.000  H
  C24      1.0000 0.57250  0.01250  0.36520  Biso   1.000  C
  H30      1.0000 0.48400  0.02810  0.36160  Biso   1.000  H
  H31      1.0000 0.58810  0.99540  0.44190  Biso   1.000  H
  C25      1.0000 0.58180  0.96970  0.26920  Biso   1.000  C
  H32      1.0000 0.50650  0.94520  0.27190  Biso   1.000  H
  H33      1.0000 0.57650  0.98780  0.19290  Biso   1.000  H
  C26      1.0000 0.70150  0.93830  0.28010  Biso   1.000  C
  H34      1.0000 0.69450  0.91140  0.34230  Biso   1.000  H
  H35      1.0000 0.77540  0.96220  0.30210  Biso   1.000  H
  C27      1.0000 0.27380  0.22627  0.41160  Biso   1.000  C
  C28      1.0000 0.15000  0.25806  0.37510  Biso   1.000  C
  H36      1.0000 0.13780  0.25420  0.28920  Biso   1.000  H
  C29      1.0000 0.16060  0.31792  0.39920  Biso   1.000  C
  H37      1.0000 0.16130  0.32390  0.48380  Biso   1.000  H
  H38      1.0000 0.24410  0.33120  0.37210  Biso   1.000  H
  C30      1.0000 0.05070  0.34975  0.34100  Biso   1.000  C
  H39      1.0000 0.96710  0.33320  0.35990  Biso   1.000  H
  H40      1.0000 0.05720  0.34750  0.25610  Biso   1.000  H
  C31      1.0000 0.04970  0.40914  0.37680  Biso   1.000  C
  H41      1.0000 0.97260  0.42650  0.33800  Biso   1.000  H
  H42      1.0000 0.03940  0.41100  0.46130  Biso   1.000  H
  C32      1.0000 0.16450  0.44000  0.35040  Biso   1.000  C
  H43      1.0000 0.24140  0.42300  0.39020  Biso   1.000  H
  H44      1.0000 0.15610  0.47640  0.38340  Biso   1.000  H
  Zn3      1.0000 0.43177  0.72009  0.58559  Biso   1.000  Zn
  Zn4      1.0000 0.93007  0.64678  0.56498  Biso   1.000  Zn
  O5       1.0000 0.23800  0.69164  0.58010  Biso   1.000  O
  O6       1.0000 0.11610  0.61711  0.57280  Biso   1.000  O
  O7       1.0000 0.73720  0.67874  0.55490  Biso   1.000  O
  O8       1.0000 0.62040  0.75003  0.59950  Biso   1.000  O
  N9       1.0000 0.36530  0.80147  0.56110  Biso   1.000  N
  N10      1.0000 0.15150  0.06755  0.44520  Biso   1.000  N
  N11      1.0000 0.93540  0.63940  0.76060  Biso   1.000  N
  N12      1.0000 0.93370  0.64466  0.37430  Biso   1.000  N
  N13      1.0000 0.46460  0.63638  0.59770  Biso   1.000  N
  H45      1.0000 0.52540  0.62660  0.54630  Biso   1.000  H
  H46      1.0000 0.49760  0.62810  0.67100  Biso   1.000  H
  N14      1.0000 0.27240  0.40999  0.83190  Biso   1.000  N
  H47      1.0000 0.34550  0.39250  0.85890  Biso   1.000  H
  H48      1.0000 0.20680  0.38590  0.81910  Biso   1.000  H
  H49      1.0000 0.24910  0.43450  0.88520  Biso   1.000  H
  N15      1.0000 0.96250  0.73065  0.57580  Biso   1.000  N
  H50      1.0000 0.03640  0.73730  0.62190  Biso   1.000  H
  H51      1.0000 0.97500  0.74410  0.50320  Biso   1.000  H
  N16      1.0000 0.81060  0.94545  0.77430  Biso   1.000  N
  H52      1.0000 0.80150  0.91230  0.80580  Biso   1.000  H
  H53      1.0000 0.73640  0.96460  0.78190  Biso   1.000  H
  H54      1.0000 0.87860  0.96270  0.81160  Biso   1.000  H
  C33      1.0000 0.42790  0.84315  0.60990  Biso   1.000  C
  H55      1.0000 0.49940  0.83660  0.66350  Biso   1.000  H
  C34      1.0000 0.39210  0.89617  0.58520  Biso   1.000  C
  H56      1.0000 0.43950  0.92490  0.62100  Biso   1.000  H
  C35      1.0000 0.28780  0.90660  0.50870  Biso   1.000  C
  C36      1.0000 0.22150  0.86297  0.45830  Biso   1.000  C
  H57      1.0000 0.14850  0.86840  0.40580  Biso   1.000  H
  C37      1.0000 0.26400  0.81163  0.48610  Biso   1.000  C
  H58      1.0000 0.21930  0.78210  0.45040  Biso   1.000  H
  C38      1.0000 0.24420  0.05603  0.52700  Biso   1.000  C
  H59      1.0000 0.28050  0.08470  0.57200  Biso   1.000  H
  C39      1.0000 0.28940  0.00566  0.54970  Biso   1.000  C
  H60      1.0000 0.35300  0.99980  0.61100  Biso   1.000  H
  C40      1.0000 0.24250  0.96277  0.48320  Biso   1.000  C
  C41      1.0000 0.15050  0.97439  0.39490  Biso   1.000  C
  H61      1.0000 0.11770  0.94670  0.34510  Biso   1.000  H
  C42      1.0000 0.10650  0.02661  0.37950  Biso   1.000  C
  H62      1.0000 0.04170  0.03370  0.31990  Biso   1.000  H
  C43      1.0000 0.82950  0.65080  0.81740  Biso   1.000  C
  H63      1.0000 0.75140  0.65860  0.77310  Biso   1.000  H
  C44      1.0000 0.82650  0.65210  0.93630  Biso   1.000  C
  H64      1.0000 0.74880  0.66190  0.97140  Biso   1.000  H
  C45      1.0000 0.93710  0.63896  0.00460  Biso   1.000  C
  C46      1.0000 0.04450  0.62388  0.94600  Biso   1.000  C
  H65      1.0000 0.12110  0.61210  0.98800  Biso   1.000  H
  C47      1.0000 0.04110  0.62576  0.82770  Biso   1.000  C
  H66      1.0000 0.11810  0.61690  0.79060  Biso   1.000  H
  C48      1.0000 0.85860  0.67658  0.30660  Biso   1.000  C
  H67      1.0000 0.80320  0.70110  0.34280  Biso   1.000  H
  C49      1.0000 0.85630  0.67624  0.18820  Biso   1.000  C
  H68      1.0000 0.80100  0.70010  0.14450  Biso   1.000  H
  C50      1.0000 0.93680  0.64021  0.13210  Biso   1.000  C
  C51      1.0000 0.01470  0.60713  0.20270  Biso   1.000  C
  H69      1.0000 0.07000  0.58170  0.16940  Biso   1.000  H
  C52      1.0000 0.01190  0.61110  0.32000  Biso   1.000  C
  H70      1.0000 0.06870  0.58880  0.36610  Biso   1.000  H
  C53      1.0000 0.22380  0.64177  0.57570  Biso   1.000  C
  C54      1.0000 0.34300  0.60546  0.57220  Biso   1.000  C
  H71      1.0000 0.34600  0.59220  0.49090  Biso   1.000  H
  C55      1.0000 0.32960  0.55621  0.64880  Biso   1.000  C
  H72      1.0000 0.33550  0.56800  0.73060  Biso   1.000  H
  H73      1.0000 0.24170  0.54090  0.63300  Biso   1.000  H
  C56      1.0000 0.42750  0.51250  0.63480  Biso   1.000  C
  H74      1.0000 0.51600  0.52810  0.63840  Biso   1.000  H
  H75      1.0000 0.41190  0.49540  0.55810  Biso   1.000  H
  C57      1.0000 0.41820  0.46970  0.73080  Biso   1.000  C
  H76      1.0000 0.49350  0.44520  0.72810  Biso   1.000  H
  H77      1.0000 0.42350  0.48780  0.80710  Biso   1.000  H
  C58      1.0000 0.29850  0.43830  0.71990  Biso   1.000  C
  H78      1.0000 0.30550  0.41140  0.65770  Biso   1.000  H
  H79      1.0000 0.22460  0.46220  0.69790  Biso   1.000  H
  C59      1.0000 0.72620  0.72627  0.58840  Biso   1.000  C
  C60      1.0000 0.85000  0.75806  0.62490  Biso   1.000  C
  H80      1.0000 0.86220  0.75420  0.71080  Biso   1.000  H
  C61      1.0000 0.83940  0.81792  0.60080  Biso   1.000  C
  H81      1.0000 0.83870  0.82390  0.51620  Biso   1.000  H
  H82      1.0000 0.75590  0.83120  0.62790  Biso   1.000  H
  C62      1.0000 0.94930  0.84975  0.65900  Biso   1.000  C
  H83      1.0000 0.03290  0.83320  0.64010  Biso   1.000  H
  H84      1.0000 0.94280  0.84750  0.74390  Biso   1.000  H
  C63      1.0000 0.95030  0.90914  0.62320  Biso   1.000  C
  H85      1.0000 0.02740  0.92650  0.66200  Biso   1.000  H
  H86      1.0000 0.96060  0.91100  0.53870  Biso   1.000  H
  C64      1.0000 0.83550  0.94000  0.64960  Biso   1.000  C
  H87      1.0000 0.75860  0.92300  0.60980  Biso   1.000  H
  H88      1.0000 0.84390  0.97640  0.61660  Biso   1.000  H
