data_HAZGOF06_clean_h
_audit_creation_date              2014-07-02
_audit_creation_method            'Materials Studio'
_symmetry_space_group_name_H-M    'P1'
_symmetry_Int_Tables_number       1
_symmetry_cell_setting            triclinic
loop_
_symmetry_equiv_pos_as_xyz
  x,y,z
_cell_length_a                    8.7255
_cell_length_b                    11.2448
_cell_length_c                    17.7245
_cell_angle_alpha                 84.5201
_cell_angle_beta                  75.7508
_cell_angle_gamma                 67.1713
loop_
_atom_site_label
_atom_site_type_symbol
_atom_site_fract_x
_atom_site_fract_y
_atom_site_fract_z
_atom_site_U_iso_or_equiv
_atom_site_adp_type
_atom_site_occupancy
Sc1    Sc    0.61428   0.75000   0.27144   0.01267  Uiso   1.00
Sc2    Sc    0.13572   0.75000   0.22856   0.01267  Uiso   1.00
Sc3    Sc    0.38572   0.25000   0.72856   0.01267  Uiso   1.00
Sc4    Sc    0.86428   0.25000   0.77144   0.01267  Uiso   1.00
C1     C     0.45187   0.31826   0.24982   0.01267  Uiso   1.00
C2     C     0.89375   0.64056   0.36594   0.01267  Uiso   1.00
C3     C     0.95456   0.56420   0.43628   0.01267  Uiso   1.00
C4     C     0.83099   0.52964   0.49078   0.01267  Uiso   1.00
C5     C     0.11530   0.53868   0.44372   0.01267  Uiso   1.00
C6     C     0.79831   0.18174   0.24982   0.01267  Uiso   1.00
C7     C     0.24031   0.85944   0.36594   0.01267  Uiso   1.00
C8     C     0.10916   0.93580   0.43628   0.01267  Uiso   1.00
C9     C     0.17823   0.97036   0.49078   0.01267  Uiso   1.00
C10    C     0.94098   0.96132   0.44372   0.01267  Uiso   1.00
C11    C     0.72987   0.31826   0.25018   0.01267  Uiso   1.00
C12    C     0.96569   0.64056   0.13406   0.01267  Uiso   1.00
C13    C     0.98124   0.56420   0.06372   0.01267  Uiso   1.00
C14    C     0.13937   0.52964   0.00922   0.01267  Uiso   1.00
C15    C     0.84602   0.53868   0.05628   0.01267  Uiso   1.00
C16    C     0.51995   0.18174   0.25018   0.01267  Uiso   1.00
C17    C     0.40025   0.85944   0.13406   0.01267  Uiso   1.00
C18    C     0.45504   0.93580   0.06372   0.01267  Uiso   1.00
C19    C     0.35141   0.97036   0.00922   0.01267  Uiso   1.00
C20    C     0.59770   0.96132   0.05628   0.01267  Uiso   1.00
C21    C     0.54813   0.68174   0.75018   0.01267  Uiso   1.00
C22    C     0.10625   0.35944   0.63406   0.01267  Uiso   1.00
C23    C     0.04544   0.43580   0.56372   0.01267  Uiso   1.00
C24    C     0.16901   0.47036   0.50922   0.01267  Uiso   1.00
C25    C     0.88470   0.46132   0.55628   0.01267  Uiso   1.00
C26    C     0.20169   0.81826   0.75018   0.01267  Uiso   1.00
C27    C     0.75969   0.14056   0.63406   0.01267  Uiso   1.00
C28    C     0.89084   0.06420   0.56372   0.01267  Uiso   1.00
C29    C     0.82177   0.02964   0.50922   0.01267  Uiso   1.00
C30    C     0.05902   0.03868   0.55628   0.01267  Uiso   1.00
C31    C     0.27013   0.68174   0.74982   0.01267  Uiso   1.00
C32    C     0.03431   0.35944   0.86594   0.01267  Uiso   1.00
C33    C     0.01876   0.43580   0.93628   0.01267  Uiso   1.00
C34    C     0.86063   0.47036   0.99078   0.01267  Uiso   1.00
C35    C     0.15398   0.46132   0.94372   0.01267  Uiso   1.00
C36    C     0.48005   0.81826   0.74982   0.01267  Uiso   1.00
C37    C     0.59975   0.14056   0.86594   0.01267  Uiso   1.00
C38    C     0.54496   0.06420   0.93628   0.01267  Uiso   1.00
C39    C     0.64859   0.02964   0.99078   0.01267  Uiso   1.00
C40    C     0.40230   0.03868   0.94372   0.01267  Uiso   1.00
C41    C     0.48666   0.52668   0.25000   0.01267  Uiso   1.00
C42    C     0.55945   0.38110   0.25000   0.01267  Uiso   1.00
C43    C     0.76334   0.97332   0.25000   0.01267  Uiso   1.00
C44    C     0.69055   0.11890   0.25000   0.01267  Uiso   1.00
C45    C     0.51334   0.47332   0.75000   0.01267  Uiso   1.00
C46    C     0.44055   0.61890   0.75000   0.01267  Uiso   1.00
C47    C     0.23666   0.02668   0.75000   0.01267  Uiso   1.00
C48    C     0.30945   0.88110   0.75000   0.01267  Uiso   1.00
O1     O     0.56640   0.58336   0.27064   0.01267  Uiso   1.00
O2     O     0.74832   0.66920   0.35916   0.01267  Uiso   1.00
O3     O     0.00289   0.66964   0.31588   0.01267  Uiso   1.00
O4     O     0.66296   0.91664   0.27064   0.01267  Uiso   1.00
O5     O     0.39252   0.83080   0.35916   0.01267  Uiso   1.00
O6     O     0.18123   0.83036   0.31588   0.01267  Uiso   1.00
O7     O     0.35024   0.58336   0.22936   0.01267  Uiso   1.00
O8     O     0.08248   0.66920   0.14084   0.01267  Uiso   1.00
O9     O     0.82747   0.66964   0.18412   0.01267  Uiso   1.00
O10    O     0.92040   0.91664   0.22936   0.01267  Uiso   1.00
O11    O     0.27668   0.83080   0.14084   0.01267  Uiso   1.00
O12    O     0.48841   0.83036   0.18412   0.01267  Uiso   1.00
O13    O     0.43360   0.41664   0.72936   0.01267  Uiso   1.00
O14    O     0.25168   0.33080   0.64084   0.01267  Uiso   1.00
O15    O     0.99711   0.33036   0.68412   0.01267  Uiso   1.00
O16    O     0.33704   0.08336   0.72936   0.01267  Uiso   1.00
O17    O     0.60748   0.16920   0.64084   0.01267  Uiso   1.00
O18    O     0.81877   0.16964   0.68412   0.01267  Uiso   1.00
O19    O     0.64976   0.41664   0.77064   0.01267  Uiso   1.00
O20    O     0.91752   0.33080   0.85916   0.01267  Uiso   1.00
O21    O     0.17253   0.33036   0.81588   0.01267  Uiso   1.00
O22    O     0.07960   0.08336   0.77064   0.01267  Uiso   1.00
O23    O     0.72332   0.16920   0.85916   0.01267  Uiso   1.00
O24    O     0.51159   0.16964   0.81588   0.01267  Uiso   1.00
H1     H     0.31144   0.37326   0.24939   0.01267  Uiso   1.00
H2     H     0.69783   0.55728   0.48007   0.01267  Uiso   1.00
H3     H     0.20549   0.57256   0.39710   0.01267  Uiso   1.00
H4     H     0.93917   0.12674   0.24939   0.01267  Uiso   1.00
H5     H     0.32209   0.94272   0.48007   0.01267  Uiso   1.00
H6     H     0.89741   0.92744   0.39710   0.01267  Uiso   1.00
H7     H     0.81531   0.37326   0.25061   0.01267  Uiso   1.00
H8     H     0.24488   0.55728   0.01993   0.01267  Uiso   1.00
H9     H     0.72195   0.57256   0.10290   0.01267  Uiso   1.00
H10    H     0.43409   0.12674   0.25061   0.01267  Uiso   1.00
H11    H     0.23519   0.94272   0.01993   0.01267  Uiso   1.00
H12    H     0.67515   0.92744   0.10290   0.01267  Uiso   1.00
H13    H     0.68856   0.62674   0.75061   0.01267  Uiso   1.00
H14    H     0.30475   0.44654   0.51547   0.01267  Uiso   1.00
H15    H     0.79451   0.42744   0.60290   0.01267  Uiso   1.00
H16    H     0.06083   0.87326   0.75061   0.01267  Uiso   1.00
H17    H     0.67791   0.05728   0.51993   0.01267  Uiso   1.00
H18    H     0.10407   0.07208   0.60253   0.01267  Uiso   1.00
H19    H     0.18469   0.62674   0.74939   0.01267  Uiso   1.00
H20    H     0.75512   0.44272   0.98007   0.01267  Uiso   1.00
H21    H     0.27868   0.42792   0.89747   0.01267  Uiso   1.00
H22    H     0.56591   0.87326   0.74939   0.01267  Uiso   1.00
H23    H     0.76676   0.05346   0.98453   0.01267  Uiso   1.00
H24    H     0.32385   0.07208   0.89747   0.01267  Uiso   1.00
