data_HAZGOF05_clean_h
_audit_creation_date              2014-07-02
_audit_creation_method            'Materials Studio'
_symmetry_space_group_name_H-M    'P1'
_symmetry_Int_Tables_number       1
_symmetry_cell_setting            triclinic
loop_
_symmetry_equiv_pos_as_xyz
  x,y,z
_cell_length_a                    8.7346
_cell_length_b                    11.2489
_cell_length_c                    17.7229
_cell_angle_alpha                 84.5102
_cell_angle_beta                  75.7345
_cell_angle_gamma                 67.1551
loop_
_atom_site_label
_atom_site_type_symbol
_atom_site_fract_x
_atom_site_fract_y
_atom_site_fract_z
_atom_site_U_iso_or_equiv
_atom_site_adp_type
_atom_site_occupancy
Sc1    Sc    0.36427   0.25000   0.27146   0.01267  Uiso   1.00
Sc2    Sc    0.88573   0.25000   0.22854   0.01267  Uiso   1.00
Sc3    Sc    0.63573   0.75000   0.72854   0.01267  Uiso   1.00
Sc4    Sc    0.11427   0.75000   0.77146   0.01267  Uiso   1.00
C1     C     0.76915   0.68054   0.24936   0.01267  Uiso   1.00
C2     C     0.53331   0.35948   0.36650   0.01267  Uiso   1.00
C3     C     0.52062   0.43746   0.43850   0.01267  Uiso   1.00
C4     C     0.35662   0.46946   0.48990   0.01267  Uiso   1.00
C5     C     0.65650   0.46074   0.44366   0.01267  Uiso   1.00
C6     C     0.98149   0.81946   0.24936   0.01267  Uiso   1.00
C7     C     0.10019   0.14052   0.36650   0.01267  Uiso   1.00
C8     C     0.04088   0.06254   0.43850   0.01267  Uiso   1.00
C9     C     0.15348   0.03054   0.48990   0.01267  Uiso   1.00
C10    C     0.89984   0.03926   0.44366   0.01267  Uiso   1.00
C11    C     0.05031   0.68054   0.25064   0.01267  Uiso   1.00
C12    C     0.60721   0.35948   0.13350   0.01267  Uiso   1.00
C13    C     0.54192   0.43746   0.06150   0.01267  Uiso   1.00
C14    C     0.67392   0.46946   0.01010   0.01267  Uiso   1.00
C15    C     0.38276   0.46074   0.05634   0.01267  Uiso   1.00
C16    C     0.69905   0.81946   0.25064   0.01267  Uiso   1.00
C17    C     0.25929   0.14052   0.13350   0.01267  Uiso   1.00
C18    C     0.39658   0.06254   0.06150   0.01267  Uiso   1.00
C19    C     0.31598   0.03054   0.01010   0.01267  Uiso   1.00
C20    C     0.56090   0.03926   0.05634   0.01267  Uiso   1.00
C21    C     0.23085   0.31946   0.75064   0.01267  Uiso   1.00
C22    C     0.46669   0.64052   0.63350   0.01267  Uiso   1.00
C23    C     0.47938   0.56254   0.56150   0.01267  Uiso   1.00
C24    C     0.64338   0.53054   0.51010   0.01267  Uiso   1.00
C25    C     0.34350   0.53926   0.55634   0.01267  Uiso   1.00
C26    C     0.01851   0.18054   0.75064   0.01267  Uiso   1.00
C27    C     0.89981   0.85948   0.63350   0.01267  Uiso   1.00
C28    C     0.95912   0.93746   0.56150   0.01267  Uiso   1.00
C29    C     0.84652   0.96946   0.51010   0.01267  Uiso   1.00
C30    C     0.10016   0.96074   0.55634   0.01267  Uiso   1.00
C31    C     0.94969   0.31946   0.74936   0.01267  Uiso   1.00
C32    C     0.39279   0.64052   0.86650   0.01267  Uiso   1.00
C33    C     0.45808   0.56254   0.93850   0.01267  Uiso   1.00
C34    C     0.32608   0.53054   0.98990   0.01267  Uiso   1.00
C35    C     0.61724   0.53926   0.94366   0.01267  Uiso   1.00
C36    C     0.30095   0.18054   0.74936   0.01267  Uiso   1.00
C37    C     0.74071   0.85948   0.86650   0.01267  Uiso   1.00
C38    C     0.60342   0.93746   0.93850   0.01267  Uiso   1.00
C39    C     0.68402   0.96946   0.98990   0.01267  Uiso   1.00
C40    C     0.43910   0.96074   0.94366   0.01267  Uiso   1.00
C41    C     0.01364   0.47272   0.25000   0.01267  Uiso   1.00
C42    C     0.93922   0.62156   0.25000   0.01267  Uiso   1.00
C43    C     0.73636   0.02728   0.25000   0.01267  Uiso   1.00
C44    C     0.81078   0.87844   0.25000   0.01267  Uiso   1.00
C45    C     0.98636   0.52728   0.75000   0.01267  Uiso   1.00
C46    C     0.06078   0.37844   0.75000   0.01267  Uiso   1.00
C47    C     0.26364   0.97272   0.75000   0.01267  Uiso   1.00
C48    C     0.18922   0.12156   0.75000   0.01267  Uiso   1.00
O1     O     0.15099   0.41614   0.27078   0.01267  Uiso   1.00
O2     O     0.41687   0.33076   0.35936   0.01267  Uiso   1.00
O3     O     0.67233   0.32996   0.31578   0.01267  Uiso   1.00
O4     O     0.57823   0.08386   0.27078   0.01267  Uiso   1.00
O5     O     0.22377   0.16924   0.35936   0.01267  Uiso   1.00
O6     O     0.01189   0.17004   0.31578   0.01267  Uiso   1.00
O7     O     0.93287   0.41614   0.22922   0.01267  Uiso   1.00
O8     O     0.75237   0.33076   0.14064   0.01267  Uiso   1.00
O9     O     0.49771   0.32996   0.18422   0.01267  Uiso   1.00
O10    O     0.83791   0.08386   0.22922   0.01267  Uiso   1.00
O11    O     0.10699   0.16924   0.14064   0.01267  Uiso   1.00
O12    O     0.31807   0.17004   0.18422   0.01267  Uiso   1.00
O13    O     0.84901   0.58386   0.72922   0.01267  Uiso   1.00
O14    O     0.58313   0.66924   0.64064   0.01267  Uiso   1.00
O15    O     0.32767   0.67004   0.68422   0.01267  Uiso   1.00
O16    O     0.42177   0.91614   0.72922   0.01267  Uiso   1.00
O17    O     0.77623   0.83076   0.64064   0.01267  Uiso   1.00
O18    O     0.98811   0.82996   0.68422   0.01267  Uiso   1.00
O19    O     0.06713   0.58386   0.77078   0.01267  Uiso   1.00
O20    O     0.24763   0.66924   0.85936   0.01267  Uiso   1.00
O21    O     0.50229   0.67004   0.81578   0.01267  Uiso   1.00
O22    O     0.16209   0.91614   0.77078   0.01267  Uiso   1.00
O23    O     0.89301   0.83076   0.85936   0.01267  Uiso   1.00
O24    O     0.68193   0.82996   0.81578   0.01267  Uiso   1.00
H1     H     0.68434   0.62559   0.24790   0.01267  Uiso   1.00
H2     H     0.25695   0.43931   0.47516   0.01267  Uiso   1.00
H3     H     0.77857   0.42537   0.39601   0.01267  Uiso   1.00
H4     H     0.06776   0.87441   0.24790   0.01267  Uiso   1.00
H5     H     0.26789   0.06069   0.47516   0.01267  Uiso   1.00
H6     H     0.82542   0.07463   0.39600   0.01267  Uiso   1.00
H7     H     0.19007   0.62559   0.25210   0.01267  Uiso   1.00
H8     H     0.80375   0.43931   0.02484   0.01267  Uiso   1.00
H9     H     0.29605   0.42537   0.10400   0.01267  Uiso   1.00
H10    H     0.55783   0.87441   0.25210   0.01267  Uiso   1.00
H11    H     0.17141   0.06069   0.02484   0.01267  Uiso   1.00
H12    H     0.59995   0.07463   0.10400   0.01267  Uiso   1.00
H13    H     0.31566   0.37441   0.75210   0.01267  Uiso   1.00
H14    H     0.74305   0.56069   0.52484   0.01267  Uiso   1.00
H15    H     0.22143   0.57463   0.60399   0.01267  Uiso   1.00
H16    H     0.93224   0.12559   0.75210   0.01267  Uiso   1.00
H17    H     0.72760   0.94697   0.51596   0.01267  Uiso   1.00
H18    H     0.17755   0.92675   0.60295   0.01267  Uiso   1.00
H19    H     0.80993   0.37441   0.74790   0.01267  Uiso   1.00
H20    H     0.19625   0.56069   0.97516   0.01267  Uiso   1.00
H21    H     0.70725   0.57325   0.89705   0.01267  Uiso   1.00
H22    H     0.44217   0.12559   0.74790   0.01267  Uiso   1.00
H23    H     0.82859   0.93931   0.97516   0.01267  Uiso   1.00
H24    H     0.40005   0.92537   0.89600   0.01267  Uiso   1.00
