data_HAZGOF01_clean_h
_audit_creation_date              2014-07-02
_audit_creation_method            'Materials Studio'
_symmetry_space_group_name_H-M    'P1'
_symmetry_Int_Tables_number       1
_symmetry_cell_setting            triclinic
loop_
_symmetry_equiv_pos_as_xyz
  x,y,z
_cell_length_a                    8.7543
_cell_length_b                    11.1454
_cell_length_c                    17.7411
_cell_angle_alpha                 95.1832
_cell_angle_beta                  104.2840
_cell_angle_gamma                 68.5210
loop_
_atom_site_label
_atom_site_type_symbol
_atom_site_fract_x
_atom_site_fract_y
_atom_site_fract_z
_atom_site_U_iso_or_equiv
_atom_site_adp_type
_atom_site_occupancy
Sc1    Sc    0.36604   0.25000   0.73208   0.01267  Uiso   1.00
Sc2    Sc    0.63396   0.75000   0.26792   0.01267  Uiso   1.00
Sc3    Sc    0.88714   0.25000   0.77428   0.01267  Uiso   1.00
Sc4    Sc    0.11286   0.75000   0.22572   0.01267  Uiso   1.00
C1     C     0.02322   0.47815   0.74964   0.01267  Uiso   1.00
C2     C     0.95046   0.61758   0.75680   0.01267  Uiso   1.00
C3     C     0.04247   0.69110   0.74860   0.01267  Uiso   1.00
C4     C     0.77912   0.67608   0.75020   0.01267  Uiso   1.00
C5     C     0.25855   0.13890   0.87096   0.01267  Uiso   1.00
C6     C     0.38317   0.06120   0.93502   0.01267  Uiso   1.00
C7     C     0.55016   0.04792   0.94540   0.01267  Uiso   1.00
C8     C     0.33101   0.02990   0.99550   0.01267  Uiso   1.00
C9     C     0.54571   0.35720   0.63268   0.01267  Uiso   1.00
C10    C     0.52272   0.42919   0.56408   0.01267  Uiso   1.00
C11    C     0.37125   0.46448   0.50976   0.01267  Uiso   1.00
C12    C     0.64504   0.47547   0.55778   0.01267  Uiso   1.00
C13    C     0.72642   0.02185   0.74964   0.01267  Uiso   1.00
C14    C     0.80634   0.88242   0.75680   0.01267  Uiso   1.00
C15    C     0.70613   0.80890   0.74860   0.01267  Uiso   1.00
C16    C     0.97108   0.82392   0.75020   0.01267  Uiso   1.00
C17    C     0.61241   0.36110   0.87096   0.01267  Uiso   1.00
C18    C     0.55185   0.43880   0.93502   0.01267  Uiso   1.00
C19    C     0.39524   0.45208   0.94540   0.01267  Uiso   1.00
C20    C     0.66449   0.47010   0.99550   0.01267  Uiso   1.00
C21    C     0.08697   0.14280   0.63268   0.01267  Uiso   1.00
C22    C     0.04136   0.07081   0.56408   0.01267  Uiso   1.00
C23    C     0.13851   0.03552   0.50976   0.01267  Uiso   1.00
C24    C     0.91274   0.02453   0.55778   0.01267  Uiso   1.00
C25    C     0.97678   0.52185   0.25036   0.01267  Uiso   1.00
C26    C     0.04954   0.38242   0.24320   0.01267  Uiso   1.00
C27    C     0.95753   0.30890   0.25140   0.01267  Uiso   1.00
C28    C     0.22088   0.32392   0.24980   0.01267  Uiso   1.00
C29    C     0.74145   0.86110   0.12904   0.01267  Uiso   1.00
C30    C     0.61683   0.93880   0.06498   0.01267  Uiso   1.00
C31    C     0.44984   0.95208   0.05460   0.01267  Uiso   1.00
C32    C     0.66899   0.97010   0.00450   0.01267  Uiso   1.00
C33    C     0.45429   0.64280   0.36732   0.01267  Uiso   1.00
C34    C     0.47728   0.57081   0.43592   0.01267  Uiso   1.00
C35    C     0.62875   0.53552   0.49024   0.01267  Uiso   1.00
C36    C     0.35496   0.52453   0.44222   0.01267  Uiso   1.00
C37    C     0.27358   0.97815   0.25036   0.01267  Uiso   1.00
C38    C     0.19366   0.11758   0.24320   0.01267  Uiso   1.00
C39    C     0.29387   0.19110   0.25140   0.01267  Uiso   1.00
C40    C     0.02892   0.17608   0.24980   0.01267  Uiso   1.00
C41    C     0.38759   0.63890   0.12904   0.01267  Uiso   1.00
C42    C     0.44815   0.56120   0.06498   0.01267  Uiso   1.00
C43    C     0.60476   0.54792   0.05460   0.01267  Uiso   1.00
C44    C     0.33551   0.52990   0.00450   0.01267  Uiso   1.00
C45    C     0.91303   0.85720   0.36732   0.01267  Uiso   1.00
C46    C     0.95864   0.92919   0.43592   0.01267  Uiso   1.00
C47    C     0.86149   0.96448   0.49024   0.01267  Uiso   1.00
C48    C     0.08726   0.97547   0.44222   0.01267  Uiso   1.00
O1     O     0.16167   0.42320   0.73074   0.01267  Uiso   1.00
O2     O     0.96602   0.40591   0.77484   0.01267  Uiso   1.00
O3     O     0.29321   0.18076   0.81662   0.01267  Uiso   1.00
O4     O     0.10364   0.16140   0.86074   0.01267  Uiso   1.00
O5     O     0.43181   0.32356   0.64450   0.01267  Uiso   1.00
O6     O     0.67188   0.34010   0.68844   0.01267  Uiso   1.00
O7     O     0.56907   0.07680   0.73074   0.01267  Uiso   1.00
O8     O     0.80882   0.09409   0.77484   0.01267  Uiso   1.00
O9     O     0.52341   0.31924   0.81662   0.01267  Uiso   1.00
O10    O     0.75710   0.33860   0.86074   0.01267  Uiso   1.00
O11    O     0.21269   0.17644   0.64450   0.01267  Uiso   1.00
O12    O     0.01656   0.15990   0.68844   0.01267  Uiso   1.00
O13    O     0.83833   0.57680   0.26926   0.01267  Uiso   1.00
O14    O     0.03398   0.59409   0.22516   0.01267  Uiso   1.00
O15    O     0.70679   0.81924   0.18338   0.01267  Uiso   1.00
O16    O     0.89636   0.83860   0.13926   0.01267  Uiso   1.00
O17    O     0.56819   0.67644   0.35550   0.01267  Uiso   1.00
O18    O     0.32812   0.65990   0.31156   0.01267  Uiso   1.00
O19    O     0.43093   0.92320   0.26926   0.01267  Uiso   1.00
O20    O     0.19118   0.90591   0.22516   0.01267  Uiso   1.00
O21    O     0.47659   0.68076   0.18338   0.01267  Uiso   1.00
O22    O     0.24290   0.66140   0.13926   0.01267  Uiso   1.00
O23    O     0.78731   0.82356   0.35550   0.01267  Uiso   1.00
O24    O     0.98344   0.84010   0.31156   0.01267  Uiso   1.00
H1     H     0.17678   0.64214   0.74055   0.01267  Uiso   1.00
H2     H     0.69780   0.61481   0.74607   0.01267  Uiso   1.00
H3     H     0.58807   0.10095   0.90537   0.01267  Uiso   1.00
H4     H     0.19137   0.06833   0.99605   0.01267  Uiso   1.00
H5     H     0.26036   0.44391   0.52088   0.01267  Uiso   1.00
H6     H     0.75886   0.46391   0.60833   0.01267  Uiso   1.00
H7     H     0.56377   0.85786   0.74055   0.01267  Uiso   1.00
H8     H     0.04839   0.88509   0.74606   0.01267  Uiso   1.00
H9     H     0.31730   0.39905   0.90537   0.01267  Uiso   1.00
H10    H     0.80468   0.43167   0.99605   0.01267  Uiso   1.00
H11    H     0.26053   0.05609   0.52088   0.01267  Uiso   1.00
H12    H     0.84946   0.03609   0.60833   0.01267  Uiso   1.00
H13    H     0.82322   0.35786   0.25945   0.01267  Uiso   1.00
H14    H     0.30220   0.38519   0.25393   0.01267  Uiso   1.00
H15    H     0.41193   0.89905   0.09463   0.01267  Uiso   1.00
H16    H     0.80810   0.93253   0.00301   0.01267  Uiso   1.00
H17    H     0.74021   0.55576   0.47953   0.01267  Uiso   1.00
H18    H     0.24114   0.53609   0.39167   0.01267  Uiso   1.00
H19    H     0.43623   0.14214   0.25945   0.01267  Uiso   1.00
H20    H     0.95174   0.11481   0.25393   0.01267  Uiso   1.00
H21    H     0.68438   0.60024   0.09409   0.01267  Uiso   1.00
H22    H     0.19532   0.56833   0.00395   0.01267  Uiso   1.00
H23    H     0.73947   0.94391   0.47912   0.01267  Uiso   1.00
H24    H     0.15113   0.96426   0.39192   0.01267  Uiso   1.00
