data_HAZGOF08_clean_h
_audit_creation_date              2014-07-02
_audit_creation_method            'Materials Studio'
_symmetry_space_group_name_H-M    'P1'
_symmetry_Int_Tables_number       1
_symmetry_cell_setting            triclinic
loop_
_symmetry_equiv_pos_as_xyz
  x,y,z
_cell_length_a                    8.7047
_cell_length_b                    11.2366
_cell_length_c                    17.7293
_cell_angle_alpha                 84.5437
_cell_angle_beta                  75.7896
_cell_angle_gamma                 67.2110
loop_
_atom_site_label
_atom_site_type_symbol
_atom_site_fract_x
_atom_site_fract_y
_atom_site_fract_z
_atom_site_U_iso_or_equiv
_atom_site_adp_type
_atom_site_occupancy
Sc1    Sc    0.63573   0.25000   0.72854   0.01267  Uiso   1.00
Sc2    Sc    0.11427   0.25000   0.77146   0.01267  Uiso   1.00
Sc3    Sc    0.36427   0.75000   0.27146   0.01267  Uiso   1.00
Sc4    Sc    0.88573   0.75000   0.22854   0.01267  Uiso   1.00
C1     C     0.01956   0.68238   0.75038   0.01267  Uiso   1.00
C2     C     0.90077   0.35970   0.63296   0.01267  Uiso   1.00
C3     C     0.95257   0.43518   0.56408   0.01267  Uiso   1.00
C4     C     0.85497   0.46814   0.50852   0.01267  Uiso   1.00
C5     C     0.09842   0.45970   0.55506   0.01267  Uiso   1.00
C6     C     0.23006   0.81762   0.75038   0.01267  Uiso   1.00
C7     C     0.46627   0.14030   0.63296   0.01267  Uiso   1.00
C8     C     0.48335   0.06482   0.56408   0.01267  Uiso   1.00
C9     C     0.63651   0.03186   0.50852   0.01267  Uiso   1.00
C10    C     0.34652   0.04030   0.55506   0.01267  Uiso   1.00
C11    C     0.29806   0.68238   0.74962   0.01267  Uiso   1.00
C12    C     0.73953   0.35970   0.86704   0.01267  Uiso   1.00
C13    C     0.61225   0.43518   0.93592   0.01267  Uiso   1.00
C14    C     0.67689   0.46814   0.99148   0.01267  Uiso   1.00
C15    C     0.44188   0.45970   0.94494   0.01267  Uiso   1.00
C16    C     0.95232   0.81762   0.74962   0.01267  Uiso   1.00
C17    C     0.39343   0.14030   0.86704   0.01267  Uiso   1.00
C18    C     0.45183   0.06482   0.93592   0.01267  Uiso   1.00
C19    C     0.33163   0.03186   0.99148   0.01267  Uiso   1.00
C20    C     0.61318   0.04030   0.94494   0.01267  Uiso   1.00
C21    C     0.98044   0.31762   0.24962   0.01267  Uiso   1.00
C22    C     0.09923   0.64030   0.36704   0.01267  Uiso   1.00
C23    C     0.04743   0.56482   0.43592   0.01267  Uiso   1.00
C24    C     0.14503   0.53186   0.49148   0.01267  Uiso   1.00
C25    C     0.90158   0.54030   0.44494   0.01267  Uiso   1.00
C26    C     0.76994   0.18238   0.24962   0.01267  Uiso   1.00
C27    C     0.53373   0.85970   0.36704   0.01267  Uiso   1.00
C28    C     0.51665   0.93518   0.43592   0.01267  Uiso   1.00
C29    C     0.36349   0.96814   0.49148   0.01267  Uiso   1.00
C30    C     0.65348   0.95970   0.44494   0.01267  Uiso   1.00
C31    C     0.70194   0.31762   0.25038   0.01267  Uiso   1.00
C32    C     0.26047   0.64030   0.13296   0.01267  Uiso   1.00
C33    C     0.38775   0.56482   0.06408   0.01267  Uiso   1.00
C34    C     0.32311   0.53186   0.00852   0.01267  Uiso   1.00
C35    C     0.55812   0.54030   0.05506   0.01267  Uiso   1.00
C36    C     0.04768   0.18238   0.25038   0.01267  Uiso   1.00
C37    C     0.60657   0.85970   0.13296   0.01267  Uiso   1.00
C38    C     0.54817   0.93518   0.06408   0.01267  Uiso   1.00
C39    C     0.66837   0.96814   0.00852   0.01267  Uiso   1.00
C40    C     0.38682   0.95970   0.05506   0.01267  Uiso   1.00
C41    C     0.26234   0.47532   0.75000   0.01267  Uiso   1.00
C42    C     0.19115   0.61770   0.75000   0.01267  Uiso   1.00
C43    C     0.98766   0.02468   0.75000   0.01267  Uiso   1.00
C44    C     0.05885   0.88230   0.75000   0.01267  Uiso   1.00
C45    C     0.73766   0.52468   0.25000   0.01267  Uiso   1.00
C46    C     0.80885   0.38230   0.25000   0.01267  Uiso   1.00
C47    C     0.01234   0.97532   0.25000   0.01267  Uiso   1.00
C48    C     0.94115   0.11770   0.25000   0.01267  Uiso   1.00
O1     O     0.42044   0.41644   0.72908   0.01267  Uiso   1.00
O2     O     0.77769   0.33092   0.64170   0.01267  Uiso   1.00
O3     O     0.98653   0.33140   0.68434   0.01267  Uiso   1.00
O4     O     0.85048   0.08356   0.72908   0.01267  Uiso   1.00
O5     O     0.58061   0.16908   0.64170   0.01267  Uiso   1.00
O6     O     0.32913   0.16860   0.68434   0.01267  Uiso   1.00
O7     O     0.16312   0.41644   0.77092   0.01267  Uiso   1.00
O8     O     0.89139   0.33092   0.85830   0.01267  Uiso   1.00
O9     O     0.68207   0.33140   0.81566   0.01267  Uiso   1.00
O10    O     0.06596   0.08356   0.77092   0.01267  Uiso   1.00
O11    O     0.25031   0.16908   0.85830   0.01267  Uiso   1.00
O12    O     0.50227   0.16860   0.81566   0.01267  Uiso   1.00
O13    O     0.57956   0.58356   0.27092   0.01267  Uiso   1.00
O14    O     0.22231   0.66908   0.35830   0.01267  Uiso   1.00
O15    O     0.01347   0.66860   0.31566   0.01267  Uiso   1.00
O16    O     0.14952   0.91644   0.27092   0.01267  Uiso   1.00
O17    O     0.41939   0.83092   0.35830   0.01267  Uiso   1.00
O18    O     0.67087   0.83140   0.31566   0.01267  Uiso   1.00
O19    O     0.83688   0.58356   0.22908   0.01267  Uiso   1.00
O20    O     0.10861   0.66908   0.14170   0.01267  Uiso   1.00
O21    O     0.31793   0.66860   0.18434   0.01267  Uiso   1.00
O22    O     0.93404   0.91644   0.22908   0.01267  Uiso   1.00
O23    O     0.74969   0.83092   0.14170   0.01267  Uiso   1.00
O24    O     0.49773   0.83140   0.18434   0.01267  Uiso   1.00
H1     H     0.93320   0.62737   0.75130   0.01267  Uiso   1.00
H2     H     0.74261   0.43635   0.51605   0.01267  Uiso   1.00
H3     H     0.18143   0.42121   0.59941   0.01267  Uiso   1.00
H4     H     0.31551   0.87263   0.75130   0.01267  Uiso   1.00
H5     H     0.74134   0.06365   0.51605   0.01267  Uiso   1.00
H6     H     0.21916   0.07879   0.59941   0.01267  Uiso   1.00
H7     H     0.43943   0.62737   0.74870   0.01267  Uiso   1.00
H8     H     0.82105   0.43635   0.98395   0.01267  Uiso   1.00
H9     H     0.39736   0.42121   0.90059   0.01267  Uiso   1.00
H10    H     0.81186   0.87263   0.74870   0.01267  Uiso   1.00
H11    H     0.19500   0.06365   0.98395   0.01267  Uiso   1.00
H12    H     0.70205   0.07879   0.90059   0.01267  Uiso   1.00
H13    H     0.06680   0.37263   0.24870   0.01267  Uiso   1.00
H14    H     0.25739   0.56365   0.48395   0.01267  Uiso   1.00
H15    H     0.81857   0.57879   0.40059   0.01267  Uiso   1.00
H16    H     0.68449   0.12737   0.24870   0.01267  Uiso   1.00
H17    H     0.25431   0.93902   0.48698   0.01267  Uiso   1.00
H18    H     0.78099   0.92134   0.40068   0.01267  Uiso   1.00
H19    H     0.56057   0.37263   0.25130   0.01267  Uiso   1.00
H20    H     0.17895   0.56365   0.01605   0.01267  Uiso   1.00
H21    H     0.60301   0.57866   0.09932   0.01267  Uiso   1.00
H22    H     0.18814   0.12737   0.25130   0.01267  Uiso   1.00
H23    H     0.80500   0.93635   0.01605   0.01267  Uiso   1.00
H24    H     0.29767   0.92134   0.09932   0.01267  Uiso   1.00
