data_HAZGOF02_clean_h
_audit_creation_date              2014-07-02
_audit_creation_method            'Materials Studio'
_symmetry_space_group_name_H-M    'P1'
_symmetry_Int_Tables_number       1
_symmetry_cell_setting            triclinic
loop_
_symmetry_equiv_pos_as_xyz
  x,y,z
_cell_length_a                    8.7547
_cell_length_b                    11.1697
_cell_length_c                    17.7359
_cell_angle_alpha                 95.2468
_cell_angle_beta                  104.2890
_cell_angle_gamma                 68.2525
loop_
_atom_site_label
_atom_site_type_symbol
_atom_site_fract_x
_atom_site_fract_y
_atom_site_fract_z
_atom_site_U_iso_or_equiv
_atom_site_adp_type
_atom_site_occupancy
Sc1    Sc    0.36556   0.25000   0.73112   0.01267  Uiso   1.00
Sc2    Sc    0.63444   0.75000   0.26888   0.01267  Uiso   1.00
Sc3    Sc    0.88669   0.25000   0.77338   0.01267  Uiso   1.00
Sc4    Sc    0.11331   0.75000   0.22662   0.01267  Uiso   1.00
C1     C     0.02440   0.47652   0.75260   0.01267  Uiso   1.00
C2     C     0.94920   0.61631   0.75360   0.01267  Uiso   1.00
C3     C     0.04500   0.68980   0.74920   0.01267  Uiso   1.00
C4     C     0.77840   0.67640   0.75320   0.01267  Uiso   1.00
C5     C     0.25919   0.14010   0.87058   0.01267  Uiso   1.00
C6     C     0.38785   0.06310   0.93370   0.01267  Uiso   1.00
C7     C     0.55848   0.04310   0.94556   0.01267  Uiso   1.00
C8     C     0.32750   0.03050   0.99140   0.01267  Uiso   1.00
C9     C     0.54437   0.35980   0.63394   0.01267  Uiso   1.00
C10    C     0.51688   0.43550   0.56636   0.01267  Uiso   1.00
C11    C     0.36977   0.46250   0.50794   0.01267  Uiso   1.00
C12    C     0.64901   0.46950   0.55762   0.01267  Uiso   1.00
C13    C     0.72820   0.02348   0.75260   0.01267  Uiso   1.00
C14    C     0.80440   0.88369   0.75360   0.01267  Uiso   1.00
C15    C     0.70420   0.81020   0.74920   0.01267  Uiso   1.00
C16    C     0.97480   0.82360   0.75320   0.01267  Uiso   1.00
C17    C     0.61139   0.35990   0.87058   0.01267  Uiso   1.00
C18    C     0.54585   0.43690   0.93370   0.01267  Uiso   1.00
C19    C     0.38708   0.45690   0.94556   0.01267  Uiso   1.00
C20    C     0.66390   0.46950   0.99140   0.01267  Uiso   1.00
C21    C     0.08957   0.14020   0.63394   0.01267  Uiso   1.00
C22    C     0.04948   0.06450   0.56636   0.01267  Uiso   1.00
C23    C     0.13817   0.03750   0.50794   0.01267  Uiso   1.00
C24    C     0.90861   0.03050   0.55762   0.01267  Uiso   1.00
C25    C     0.97560   0.52348   0.24740   0.01267  Uiso   1.00
C26    C     0.05080   0.38369   0.24640   0.01267  Uiso   1.00
C27    C     0.95500   0.31020   0.25080   0.01267  Uiso   1.00
C28    C     0.22160   0.32360   0.24680   0.01267  Uiso   1.00
C29    C     0.74081   0.85990   0.12942   0.01267  Uiso   1.00
C30    C     0.61215   0.93690   0.06630   0.01267  Uiso   1.00
C31    C     0.44152   0.95690   0.05444   0.01267  Uiso   1.00
C32    C     0.67250   0.96950   0.00860   0.01267  Uiso   1.00
C33    C     0.45563   0.64020   0.36606   0.01267  Uiso   1.00
C34    C     0.48312   0.56450   0.43364   0.01267  Uiso   1.00
C35    C     0.63023   0.53750   0.49206   0.01267  Uiso   1.00
C36    C     0.35099   0.53050   0.44238   0.01267  Uiso   1.00
C37    C     0.27180   0.97652   0.24740   0.01267  Uiso   1.00
C38    C     0.19560   0.11631   0.24640   0.01267  Uiso   1.00
C39    C     0.29580   0.18980   0.25080   0.01267  Uiso   1.00
C40    C     0.02520   0.17640   0.24680   0.01267  Uiso   1.00
C41    C     0.38861   0.64010   0.12942   0.01267  Uiso   1.00
C42    C     0.45415   0.56310   0.06630   0.01267  Uiso   1.00
C43    C     0.61292   0.54310   0.05444   0.01267  Uiso   1.00
C44    C     0.33610   0.53050   0.00860   0.01267  Uiso   1.00
C45    C     0.91043   0.85980   0.36606   0.01267  Uiso   1.00
C46    C     0.95052   0.93550   0.43364   0.01267  Uiso   1.00
C47    C     0.86183   0.96250   0.49206   0.01267  Uiso   1.00
C48    C     0.09139   0.96950   0.44238   0.01267  Uiso   1.00
O1     O     0.16246   0.42230   0.73052   0.01267  Uiso   1.00
O2     O     0.95000   0.41080   0.77360   0.01267  Uiso   1.00
O3     O     0.30931   0.17630   0.81902   0.01267  Uiso   1.00
O4     O     0.10228   0.16450   0.86136   0.01267  Uiso   1.00
O5     O     0.42854   0.32380   0.64348   0.01267  Uiso   1.00
O6     O     0.67787   0.34370   0.68694   0.01267  Uiso   1.00
O7     O     0.56806   0.07770   0.73052   0.01267  Uiso   1.00
O8     O     0.82360   0.08920   0.77360   0.01267  Uiso   1.00
O9     O     0.50971   0.32370   0.81902   0.01267  Uiso   1.00
O10    O     0.75908   0.33550   0.86136   0.01267  Uiso   1.00
O11    O     0.21494   0.17620   0.64348   0.01267  Uiso   1.00
O12    O     0.00907   0.15630   0.68694   0.01267  Uiso   1.00
O13    O     0.83754   0.57770   0.26948   0.01267  Uiso   1.00
O14    O     0.05000   0.58920   0.22640   0.01267  Uiso   1.00
O15    O     0.69069   0.82370   0.18098   0.01267  Uiso   1.00
O16    O     0.89772   0.83550   0.13864   0.01267  Uiso   1.00
O17    O     0.57146   0.67620   0.35652   0.01267  Uiso   1.00
O18    O     0.32213   0.65630   0.31306   0.01267  Uiso   1.00
O19    O     0.43194   0.92230   0.26948   0.01267  Uiso   1.00
O20    O     0.17640   0.91080   0.22640   0.01267  Uiso   1.00
O21    O     0.49029   0.67630   0.18098   0.01267  Uiso   1.00
O22    O     0.24092   0.66450   0.13864   0.01267  Uiso   1.00
O23    O     0.78506   0.82380   0.35652   0.01267  Uiso   1.00
O24    O     0.99093   0.84370   0.31306   0.01267  Uiso   1.00
H1     H     0.18046   0.64039   0.74234   0.01267  Uiso   1.00
H2     H     0.69974   0.61605   0.75614   0.01267  Uiso   1.00
H3     H     0.60369   0.08690   0.90378   0.01267  Uiso   1.00
H4     H     0.18563   0.06413   0.98671   0.01267  Uiso   1.00
H5     H     0.26527   0.42888   0.51397   0.01267  Uiso   1.00
H6     H     0.77220   0.44160   0.60414   0.01267  Uiso   1.00
H7     H     0.56189   0.85961   0.74234   0.01267  Uiso   1.00
H8     H     0.05679   0.88364   0.75614   0.01267  Uiso   1.00
H9     H     0.30009   0.41310   0.90378   0.01267  Uiso   1.00
H10    H     0.80108   0.43587   0.98671   0.01267  Uiso   1.00
H11    H     0.24869   0.07112   0.51397   0.01267  Uiso   1.00
H12    H     0.83194   0.05840   0.60414   0.01267  Uiso   1.00
H13    H     0.81954   0.35961   0.25766   0.01267  Uiso   1.00
H14    H     0.30026   0.38395   0.24386   0.01267  Uiso   1.00
H15    H     0.39631   0.91310   0.09622   0.01267  Uiso   1.00
H16    H     0.81411   0.93637   0.01272   0.01267  Uiso   1.00
H17    H     0.73515   0.57088   0.48635   0.01267  Uiso   1.00
H18    H     0.22780   0.55840   0.39586   0.01267  Uiso   1.00
H19    H     0.43811   0.14039   0.25766   0.01267  Uiso   1.00
H20    H     0.94359   0.11605   0.24386   0.01267  Uiso   1.00
H21    H     0.70103   0.58640   0.09582   0.01267  Uiso   1.00
H22    H     0.19892   0.56413   0.01329   0.01267  Uiso   1.00
H23    H     0.75131   0.92888   0.48603   0.01267  Uiso   1.00
H24    H     0.16847   0.94182   0.39603   0.01267  Uiso   1.00
