data_HAZGOF07_clean_h
_audit_creation_date              2014-07-02
_audit_creation_method            'Materials Studio'
_symmetry_space_group_name_H-M    'P1'
_symmetry_Int_Tables_number       1
_symmetry_cell_setting            triclinic
loop_
_symmetry_equiv_pos_as_xyz
  x,y,z
_cell_length_a                    8.7157
_cell_length_b                    11.2406
_cell_length_c                    17.7265
_cell_angle_alpha                 84.5311
_cell_angle_beta                  75.7689
_cell_angle_gamma                 67.1893
loop_
_atom_site_label
_atom_site_type_symbol
_atom_site_fract_x
_atom_site_fract_y
_atom_site_fract_z
_atom_site_U_iso_or_equiv
_atom_site_adp_type
_atom_site_occupancy
Sc1    Sc    0.61445   0.75000   0.27110   0.01267  Uiso   1.00
Sc2    Sc    0.13555   0.75000   0.22890   0.01267  Uiso   1.00
Sc3    Sc    0.38555   0.25000   0.72890   0.01267  Uiso   1.00
Sc4    Sc    0.86445   0.25000   0.77110   0.01267  Uiso   1.00
C1     C     0.45181   0.31714   0.24976   0.01267  Uiso   1.00
C2     C     0.89690   0.63924   0.36756   0.01267  Uiso   1.00
C3     C     0.95264   0.56290   0.43602   0.01267  Uiso   1.00
C4     C     0.83106   0.53056   0.49152   0.01267  Uiso   1.00
C5     C     0.11466   0.53920   0.44408   0.01267  Uiso   1.00
C6     C     0.79843   0.18286   0.24976   0.01267  Uiso   1.00
C7     C     0.23554   0.86076   0.36756   0.01267  Uiso   1.00
C8     C     0.11134   0.93710   0.43602   0.01267  Uiso   1.00
C9     C     0.17742   0.96944   0.49152   0.01267  Uiso   1.00
C10    C     0.94126   0.96080   0.44408   0.01267  Uiso   1.00
C11    C     0.73105   0.31714   0.25024   0.01267  Uiso   1.00
C12    C     0.96386   0.63924   0.13244   0.01267  Uiso   1.00
C13    C     0.98446   0.56290   0.06398   0.01267  Uiso   1.00
C14    C     0.13838   0.53056   0.00848   0.01267  Uiso   1.00
C15    C     0.84614   0.53920   0.05592   0.01267  Uiso   1.00
C16    C     0.51871   0.18286   0.25024   0.01267  Uiso   1.00
C17    C     0.40370   0.86076   0.13244   0.01267  Uiso   1.00
C18    C     0.45156   0.93710   0.06398   0.01267  Uiso   1.00
C19    C     0.35314   0.96944   0.00848   0.01267  Uiso   1.00
C20    C     0.59794   0.96080   0.05592   0.01267  Uiso   1.00
C21    C     0.54819   0.68286   0.75024   0.01267  Uiso   1.00
C22    C     0.10310   0.36076   0.63244   0.01267  Uiso   1.00
C23    C     0.04736   0.43710   0.56398   0.01267  Uiso   1.00
C24    C     0.16894   0.46944   0.50848   0.01267  Uiso   1.00
C25    C     0.88534   0.46080   0.55592   0.01267  Uiso   1.00
C26    C     0.20157   0.81714   0.75024   0.01267  Uiso   1.00
C27    C     0.76446   0.13924   0.63244   0.01267  Uiso   1.00
C28    C     0.88866   0.06290   0.56398   0.01267  Uiso   1.00
C29    C     0.82258   0.03056   0.50848   0.01267  Uiso   1.00
C30    C     0.05874   0.03920   0.55592   0.01267  Uiso   1.00
C31    C     0.26895   0.68286   0.74976   0.01267  Uiso   1.00
C32    C     0.03614   0.36076   0.86756   0.01267  Uiso   1.00
C33    C     0.01554   0.43710   0.93602   0.01267  Uiso   1.00
C34    C     0.86162   0.46944   0.99152   0.01267  Uiso   1.00
C35    C     0.15386   0.46080   0.94408   0.01267  Uiso   1.00
C36    C     0.48129   0.81714   0.74976   0.01267  Uiso   1.00
C37    C     0.59630   0.13924   0.86756   0.01267  Uiso   1.00
C38    C     0.54844   0.06290   0.93602   0.01267  Uiso   1.00
C39    C     0.64686   0.03056   0.99152   0.01267  Uiso   1.00
C40    C     0.40206   0.03920   0.94408   0.01267  Uiso   1.00
C41    C     0.48950   0.52100   0.25000   0.01267  Uiso   1.00
C42    C     0.55964   0.38072   0.25000   0.01267  Uiso   1.00
C43    C     0.76050   0.97900   0.25000   0.01267  Uiso   1.00
C44    C     0.69036   0.11928   0.25000   0.01267  Uiso   1.00
C45    C     0.51050   0.47900   0.75000   0.01267  Uiso   1.00
C46    C     0.44036   0.61928   0.75000   0.01267  Uiso   1.00
C47    C     0.23950   0.02100   0.75000   0.01267  Uiso   1.00
C48    C     0.30964   0.88072   0.75000   0.01267  Uiso   1.00
O1     O     0.56510   0.58256   0.27084   0.01267  Uiso   1.00
O2     O     0.74986   0.66928   0.35852   0.01267  Uiso   1.00
O3     O     0.00309   0.66862   0.31544   0.01267  Uiso   1.00
O4     O     0.66406   0.91744   0.27084   0.01267  Uiso   1.00
O5     O     0.39162   0.83072   0.35852   0.01267  Uiso   1.00
O6     O     0.18147   0.83138   0.31544   0.01267  Uiso   1.00
O7     O     0.35234   0.58256   0.22916   0.01267  Uiso   1.00
O8     O     0.08086   0.66928   0.14148   0.01267  Uiso   1.00
O9     O     0.82829   0.66862   0.18456   0.01267  Uiso   1.00
O10    O     0.91850   0.91744   0.22916   0.01267  Uiso   1.00
O11    O     0.27766   0.83072   0.14148   0.01267  Uiso   1.00
O12    O     0.48715   0.83138   0.18456   0.01267  Uiso   1.00
O13    O     0.43490   0.41744   0.72916   0.01267  Uiso   1.00
O14    O     0.25014   0.33072   0.64148   0.01267  Uiso   1.00
O15    O     0.99691   0.33138   0.68456   0.01267  Uiso   1.00
O16    O     0.33594   0.08256   0.72916   0.01267  Uiso   1.00
O17    O     0.60838   0.16928   0.64148   0.01267  Uiso   1.00
O18    O     0.81853   0.16862   0.68456   0.01267  Uiso   1.00
O19    O     0.64766   0.41744   0.77084   0.01267  Uiso   1.00
O20    O     0.91914   0.33072   0.85852   0.01267  Uiso   1.00
O21    O     0.17171   0.33138   0.81544   0.01267  Uiso   1.00
O22    O     0.08150   0.08256   0.77084   0.01267  Uiso   1.00
O23    O     0.72234   0.16928   0.85852   0.01267  Uiso   1.00
O24    O     0.51285   0.16862   0.81544   0.01267  Uiso   1.00
H1     H     0.31132   0.37215   0.24918   0.01267  Uiso   1.00
H2     H     0.69559   0.56102   0.48293   0.01267  Uiso   1.00
H3     H     0.20303   0.57635   0.39850   0.01267  Uiso   1.00
H4     H     0.93949   0.12785   0.24918   0.01267  Uiso   1.00
H5     H     0.32149   0.93898   0.48293   0.01267  Uiso   1.00
H6     H     0.89847   0.92365   0.39850   0.01267  Uiso   1.00
H7     H     0.81653   0.37215   0.25082   0.01267  Uiso   1.00
H8     H     0.24339   0.56102   0.01707   0.01267  Uiso   1.00
H9     H     0.72062   0.57635   0.10150   0.01267  Uiso   1.00
H10    H     0.43265   0.12785   0.25082   0.01267  Uiso   1.00
H11    H     0.23954   0.93898   0.01707   0.01267  Uiso   1.00
H12    H     0.67788   0.92365   0.10150   0.01267  Uiso   1.00
H13    H     0.68868   0.62785   0.75082   0.01267  Uiso   1.00
H14    H     0.30643   0.44202   0.51350   0.01267  Uiso   1.00
H15    H     0.79697   0.42365   0.60150   0.01267  Uiso   1.00
H16    H     0.06051   0.87215   0.75082   0.01267  Uiso   1.00
H17    H     0.67851   0.06102   0.51707   0.01267  Uiso   1.00
H18    H     0.10347   0.07573   0.60102   0.01267  Uiso   1.00
H19    H     0.18347   0.62785   0.74918   0.01267  Uiso   1.00
H20    H     0.75661   0.43898   0.98293   0.01267  Uiso   1.00
H21    H     0.28021   0.42427   0.89898   0.01267  Uiso   1.00
H22    H     0.56735   0.87215   0.74918   0.01267  Uiso   1.00
H23    H     0.76194   0.05798   0.98650   0.01267  Uiso   1.00
H24    H     0.32081   0.07573   0.89898   0.01267  Uiso   1.00
