data_HAZGOF03_clean_h
_audit_creation_date              2014-07-02
_audit_creation_method            'Materials Studio'
_symmetry_space_group_name_H-M    'P1'
_symmetry_Int_Tables_number       1
_symmetry_cell_setting            triclinic
loop_
_symmetry_equiv_pos_as_xyz
  x,y,z
_cell_length_a                    8.7529
_cell_length_b                    11.2626
_cell_length_c                    17.7276
_cell_angle_alpha                 84.4951
_cell_angle_beta                  75.7076
_cell_angle_gamma                 67.1340
loop_
_atom_site_label
_atom_site_type_symbol
_atom_site_fract_x
_atom_site_fract_y
_atom_site_fract_z
_atom_site_U_iso_or_equiv
_atom_site_adp_type
_atom_site_occupancy
Sc1    Sc    0.63578   0.25000   0.72844   0.01267  Uiso   1.00
Sc2    Sc    0.11422   0.25000   0.77156   0.01267  Uiso   1.00
Sc3    Sc    0.36422   0.75000   0.27156   0.01267  Uiso   1.00
Sc4    Sc    0.88578   0.75000   0.22844   0.01267  Uiso   1.00
C1     C     0.02117   0.68308   0.74922   0.01267  Uiso   1.00
C2     C     0.90562   0.35908   0.63028   0.01267  Uiso   1.00
C3     C     0.95265   0.43380   0.56450   0.01267  Uiso   1.00
C4     C     0.85941   0.46634   0.50738   0.01267  Uiso   1.00
C5     C     0.09764   0.46110   0.55578   0.01267  Uiso   1.00
C6     C     0.22961   0.81692   0.74922   0.01267  Uiso   1.00
C7     C     0.46410   0.14092   0.63028   0.01267  Uiso   1.00
C8     C     0.48285   0.06620   0.56450   0.01267  Uiso   1.00
C9     C     0.63321   0.03366   0.50738   0.01267  Uiso   1.00
C10    C     0.34658   0.03890   0.55578   0.01267  Uiso   1.00
C11    C     0.29575   0.68308   0.75078   0.01267  Uiso   1.00
C12    C     0.73530   0.35908   0.86972   0.01267  Uiso   1.00
C13    C     0.61355   0.43380   0.93550   0.01267  Uiso   1.00
C14    C     0.67425   0.46634   0.99262   0.01267  Uiso   1.00
C15    C     0.44126   0.46110   0.94422   0.01267  Uiso   1.00
C16    C     0.95347   0.81692   0.75078   0.01267  Uiso   1.00
C17    C     0.39498   0.14092   0.86972   0.01267  Uiso   1.00
C18    C     0.45095   0.06620   0.93550   0.01267  Uiso   1.00
C19    C     0.33313   0.03366   0.99262   0.01267  Uiso   1.00
C20    C     0.61452   0.03890   0.94422   0.01267  Uiso   1.00
C21    C     0.97883   0.31692   0.25078   0.01267  Uiso   1.00
C22    C     0.09438   0.64092   0.36972   0.01267  Uiso   1.00
C23    C     0.04735   0.56620   0.43550   0.01267  Uiso   1.00
C24    C     0.14059   0.53366   0.49262   0.01267  Uiso   1.00
C25    C     0.90236   0.53890   0.44422   0.01267  Uiso   1.00
C26    C     0.77039   0.18308   0.25078   0.01267  Uiso   1.00
C27    C     0.53590   0.85908   0.36972   0.01267  Uiso   1.00
C28    C     0.51715   0.93380   0.43550   0.01267  Uiso   1.00
C29    C     0.36679   0.96634   0.49262   0.01267  Uiso   1.00
C30    C     0.65342   0.96110   0.44422   0.01267  Uiso   1.00
C31    C     0.70425   0.31692   0.24922   0.01267  Uiso   1.00
C32    C     0.26470   0.64092   0.13028   0.01267  Uiso   1.00
C33    C     0.38645   0.56620   0.06450   0.01267  Uiso   1.00
C34    C     0.32575   0.53366   0.00738   0.01267  Uiso   1.00
C35    C     0.55874   0.53890   0.05578   0.01267  Uiso   1.00
C36    C     0.04653   0.18308   0.24922   0.01267  Uiso   1.00
C37    C     0.60502   0.85908   0.13028   0.01267  Uiso   1.00
C38    C     0.54905   0.93380   0.06450   0.01267  Uiso   1.00
C39    C     0.66687   0.96634   0.00738   0.01267  Uiso   1.00
C40    C     0.38548   0.96110   0.05578   0.01267  Uiso   1.00
C41    C     0.26101   0.47798   0.75000   0.01267  Uiso   1.00
C42    C     0.19162   0.61676   0.75000   0.01267  Uiso   1.00
C43    C     0.98899   0.02202   0.75000   0.01267  Uiso   1.00
C44    C     0.05838   0.88324   0.75000   0.01267  Uiso   1.00
C45    C     0.73899   0.52202   0.25000   0.01267  Uiso   1.00
C46    C     0.80838   0.38324   0.25000   0.01267  Uiso   1.00
C47    C     0.01101   0.97798   0.25000   0.01267  Uiso   1.00
C48    C     0.94162   0.11676   0.25000   0.01267  Uiso   1.00
O1     O     0.42046   0.41640   0.72908   0.01267  Uiso   1.00
O2     O     0.77582   0.33038   0.63998   0.01267  Uiso   1.00
O3     O     0.98543   0.33256   0.68438   0.01267  Uiso   1.00
O4     O     0.85046   0.08360   0.72908   0.01267  Uiso   1.00
O5     O     0.58420   0.16962   0.63998   0.01267  Uiso   1.00
O6     O     0.33019   0.16744   0.68438   0.01267  Uiso   1.00
O7     O     0.16314   0.41640   0.77092   0.01267  Uiso   1.00
O8     O     0.89380   0.33038   0.86002   0.01267  Uiso   1.00
O9     O     0.68201   0.33256   0.81562   0.01267  Uiso   1.00
O10    O     0.06594   0.08360   0.77092   0.01267  Uiso   1.00
O11    O     0.24618   0.16962   0.86002   0.01267  Uiso   1.00
O12    O     0.50237   0.16744   0.81562   0.01267  Uiso   1.00
O13    O     0.57954   0.58360   0.27092   0.01267  Uiso   1.00
O14    O     0.22418   0.66962   0.36002   0.01267  Uiso   1.00
O15    O     0.01457   0.66744   0.31562   0.01267  Uiso   1.00
O16    O     0.14954   0.91640   0.27092   0.01267  Uiso   1.00
O17    O     0.41580   0.83038   0.36002   0.01267  Uiso   1.00
O18    O     0.66981   0.83256   0.31562   0.01267  Uiso   1.00
O19    O     0.83686   0.58360   0.22908   0.01267  Uiso   1.00
O20    O     0.10620   0.66962   0.13998   0.01267  Uiso   1.00
O21    O     0.31799   0.66744   0.18438   0.01267  Uiso   1.00
O22    O     0.93406   0.91640   0.22908   0.01267  Uiso   1.00
O23    O     0.75382   0.83038   0.13998   0.01267  Uiso   1.00
O24    O     0.49763   0.83256   0.18438   0.01267  Uiso   1.00
H1     H     0.93680   0.62820   0.74731   0.01267  Uiso   1.00
H2     H     0.74937   0.43337   0.51291   0.01267  Uiso   1.00
H3     H     0.17984   0.42391   0.60032   0.01267  Uiso   1.00
H4     H     0.31589   0.87180   0.74731   0.01267  Uiso   1.00
H5     H     0.73772   0.06663   0.51291   0.01267  Uiso   1.00
H6     H     0.21983   0.07609   0.60032   0.01267  Uiso   1.00
H7     H     0.43500   0.62821   0.75269   0.01267  Uiso   1.00
H8     H     0.81726   0.43337   0.98709   0.01267  Uiso   1.00
H9     H     0.39625   0.42391   0.89968   0.01267  Uiso   1.00
H10    H     0.81231   0.87179   0.75269   0.01267  Uiso   1.00
H11    H     0.19565   0.06663   0.98709   0.01267  Uiso   1.00
H12    H     0.70407   0.07609   0.89968   0.01267  Uiso   1.00
H13    H     0.06320   0.37180   0.25269   0.01267  Uiso   1.00
H14    H     0.25063   0.56663   0.48709   0.01267  Uiso   1.00
H15    H     0.81898   0.57547   0.40013   0.01267  Uiso   1.00
H16    H     0.68411   0.12820   0.25269   0.01267  Uiso   1.00
H17    H     0.26090   0.93422   0.48806   0.01267  Uiso   1.00
H18    H     0.78090   0.92453   0.40013   0.01267  Uiso   1.00
H19    H     0.56500   0.37179   0.24731   0.01267  Uiso   1.00
H20    H     0.18274   0.56663   0.01291   0.01267  Uiso   1.00
H21    H     0.60556   0.57547   0.09987   0.01267  Uiso   1.00
H22    H     0.18769   0.12821   0.24731   0.01267  Uiso   1.00
H23    H     0.80435   0.93337   0.01291   0.01267  Uiso   1.00
H24    H     0.29457   0.92453   0.09987   0.01267  Uiso   1.00
