data_HAZSIL_clean
_audit_creation_date              2014-07-02
_audit_creation_method            'Materials Studio'
_symmetry_space_group_name_H-M    'P1'
_symmetry_Int_Tables_number       1
_symmetry_cell_setting            triclinic
loop_
_symmetry_equiv_pos_as_xyz
  x,y,z
_cell_length_a                    9.5403
_cell_length_b                    9.5403
_cell_length_c                    26.6081
_cell_angle_alpha                 82.8900
_cell_angle_beta                  82.8899
_cell_angle_gamma                 108.0340
loop_
_atom_site_label
_atom_site_type_symbol
_atom_site_fract_x
_atom_site_fract_y
_atom_site_fract_z
_atom_site_U_iso_or_equiv
_atom_site_adp_type
_atom_site_occupancy
Cu1    Cu    0.36683   0.43011   0.21194   0.01267  Uiso   1.00
Cu2    Cu    0.30271   0.96301   0.23274   0.01267  Uiso   1.00
Cu3    Cu    0.64205   0.57877   0.78806   0.01267  Uiso   1.00
Cu4    Cu    0.19575   0.53545   0.76726   0.01267  Uiso   1.00
Cu5    Cu    0.82877   0.39205   0.28806   0.01267  Uiso   1.00
Cu6    Cu    0.78545   0.94575   0.26726   0.01267  Uiso   1.00
Cu7    Cu    0.68011   0.11683   0.71194   0.01267  Uiso   1.00
Cu8    Cu    0.21301   0.05271   0.73274   0.01267  Uiso   1.00
P1     P     0.59326   0.60892   0.26942   0.01267  Uiso   1.00
P2     P     0.62430   0.18320   0.23470   0.01267  Uiso   1.00
P3     P     0.87834   0.86268   0.73058   0.01267  Uiso   1.00
P4     P     0.41790   0.85900   0.76530   0.01267  Uiso   1.00
P5     P     0.11268   0.62834   0.23058   0.01267  Uiso   1.00
P6     P     0.10900   0.16790   0.26530   0.01267  Uiso   1.00
P7     P     0.85892   0.34326   0.76942   0.01267  Uiso   1.00
P8     P     0.43320   0.37430   0.73470   0.01267  Uiso   1.00
H1     H     0.39910   0.29250   0.29160   0.01267  Uiso   1.00
H2     H     0.93050   0.61650   0.17880   0.01267  Uiso   1.00
H3     H     0.04780   0.54760   0.15480   0.01267  Uiso   1.00
H4     H     0.77680   0.31140   0.15680   0.01267  Uiso   1.00
H5     H     0.70710   0.41910   0.18320   0.01267  Uiso   1.00
H6     H     0.72710   0.50830   0.38060   0.01267  Uiso   1.00
H7     H     0.70860   0.45880   0.46840   0.01267  Uiso   1.00
H8     H     0.55350   0.27970   0.54640   0.01267  Uiso   1.00
H9     H     0.53030   0.22490   0.63340   0.01267  Uiso   1.00
H10    H     0.58410   0.69070   0.70840   0.01267  Uiso   1.00
H11    H     0.79530   0.10930   0.82120   0.01267  Uiso   1.00
H12    H     0.70240   0.20260   0.84520   0.01267  Uiso   1.00
H13    H     0.46820   0.93360   0.84320   0.01267  Uiso   1.00
H14    H     0.60230   0.89030   0.81680   0.01267  Uiso   1.00
H15    H     0.88890   0.10770   0.61940   0.01267  Uiso   1.00
H16    H     0.92720   0.17700   0.53160   0.01267  Uiso   1.00
H17    H     0.82610   0.09990   0.45360   0.01267  Uiso   1.00
H18    H     0.85830   0.16370   0.36660   0.01267  Uiso   1.00
H19    H     0.94070   0.33410   0.20840   0.01267  Uiso   1.00
H20    H     0.35930   0.54530   0.32120   0.01267  Uiso   1.00
H21    H     0.45260   0.45240   0.34520   0.01267  Uiso   1.00
H22    H     0.18360   0.21820   0.34320   0.01267  Uiso   1.00
H23    H     0.14030   0.35230   0.31680   0.01267  Uiso   1.00
H24    H     0.35770   0.63890   0.11940   0.01267  Uiso   1.00
H25    H     0.42700   0.67720   0.03160   0.01267  Uiso   1.00
H26    H     0.34990   0.57610   0.95360   0.01267  Uiso   1.00
H27    H     0.41370   0.60830   0.86660   0.01267  Uiso   1.00
H28    H     0.54250   0.14910   0.79160   0.01267  Uiso   1.00
H29    H     0.86650   0.68050   0.67880   0.01267  Uiso   1.00
H30    H     0.79760   0.79780   0.65480   0.01267  Uiso   1.00
H31    H     0.56140   0.52680   0.65680   0.01267  Uiso   1.00
H32    H     0.66910   0.45710   0.68320   0.01267  Uiso   1.00
H33    H     0.75830   0.47710   0.88060   0.01267  Uiso   1.00
H34    H     0.70880   0.45860   0.96840   0.01267  Uiso   1.00
H35    H     0.52970   0.30350   0.04640   0.01267  Uiso   1.00
H36    H     0.47490   0.28030   0.13340   0.01267  Uiso   1.00
C1     C     0.42600   0.48920   0.31340   0.01267  Uiso   1.00
C2     C     0.75210   0.34170   0.18940   0.01267  Uiso   1.00
C3     C     0.75170   0.42730   0.39520   0.01267  Uiso   1.00
C4     C     0.73620   0.39560   0.44820   0.01267  Uiso   1.00
C5     C     0.76166   0.27106   0.47088   0.01267  Uiso   1.00
C6     C     0.62450   0.24690   0.56060   0.01267  Uiso   1.00
C7     C     0.61070   0.21370   0.61280   0.01267  Uiso   1.00
C8     C     0.80260   0.73940   0.68660   0.01267  Uiso   1.00
C9     C     0.53110   0.94150   0.81060   0.01267  Uiso   1.00
C10    C     0.82250   0.14690   0.60480   0.01267  Uiso   1.00
C11    C     0.84380   0.18440   0.55180   0.01267  Uiso   1.00
C12    C     0.74194   0.23254   0.52912   0.01267  Uiso   1.00
C13    C     0.80750   0.18510   0.43940   0.01267  Uiso   1.00
C14    C     0.82650   0.22350   0.38720   0.01267  Uiso   1.00
C15    C     0.98940   0.55260   0.18660   0.01267  Uiso   1.00
C16    C     0.19150   0.28110   0.31060   0.01267  Uiso   1.00
C17    C     0.39690   0.57250   0.10480   0.01267  Uiso   1.00
C18    C     0.43440   0.59380   0.05180   0.01267  Uiso   1.00
C19    C     0.48254   0.49194   0.02912   0.01267  Uiso   1.00
C20    C     0.43510   0.55750   0.93940   0.01267  Uiso   1.00
C21    C     0.47350   0.57650   0.88720   0.01267  Uiso   1.00
C22    C     0.73920   0.17600   0.81340   0.01267  Uiso   1.00
C23    C     0.59170   0.50210   0.68940   0.01267  Uiso   1.00
C24    C     0.67730   0.50170   0.89520   0.01267  Uiso   1.00
C25    C     0.64560   0.48620   0.94820   0.01267  Uiso   1.00
C26    C     0.52106   0.51166   0.97088   0.01267  Uiso   1.00
C27    C     0.49690   0.37450   0.06060   0.01267  Uiso   1.00
C28    C     0.46370   0.36070   0.11280   0.01267  Uiso   1.00
N1     N     0.34951   0.35991   0.28818   0.01267  Uiso   1.00
N2     N     0.80006   0.34606   0.36468   0.01267  Uiso   1.00
N3     N     0.64809   0.63769   0.71182   0.01267  Uiso   1.00
N4     N     0.71074   0.16474   0.63532   0.01267  Uiso   1.00
N5     N     0.88769   0.39809   0.21182   0.01267  Uiso   1.00
N6     N     0.41474   0.46074   0.13532   0.01267  Uiso   1.00
N7     N     0.60991   0.09951   0.78818   0.01267  Uiso   1.00
N8     N     0.59606   0.55006   0.86468   0.01267  Uiso   1.00
O1     O     0.72849   0.57329   0.28262   0.01267  Uiso   1.00
O2     O     0.02535   0.54315   0.28370   0.01267  Uiso   1.00
O3     O     0.13163   0.79483   0.22354   0.01267  Uiso   1.00
O4     O     0.67749   0.04889   0.22922   0.01267  Uiso   1.00
O5     O     0.46577   0.15397   0.22326   0.01267  Uiso   1.00
O6     O     0.63921   0.23181   0.28678   0.01267  Uiso   1.00
O7     O     0.85591   0.01111   0.71738   0.01267  Uiso   1.00
O8     O     0.82685   0.30905   0.71630   0.01267  Uiso   1.00
O9     O     0.01837   0.35517   0.77646   0.01267  Uiso   1.00
O10    O     0.27811   0.90671   0.77078   0.01267  Uiso   1.00
O11    O     0.37723   0.68903   0.77674   0.01267  Uiso   1.00
O12    O     0.51859   0.92599   0.71322   0.01267  Uiso   1.00
O13    O     0.26111   0.60591   0.21738   0.01267  Uiso   1.00
O14    O     0.55905   0.57685   0.21630   0.01267  Uiso   1.00
O15    O     0.60517   0.76837   0.27646   0.01267  Uiso   1.00
O16    O     0.15671   0.02811   0.27078   0.01267  Uiso   1.00
O17    O     0.93903   0.12723   0.27674   0.01267  Uiso   1.00
O18    O     0.17599   0.26859   0.21322   0.01267  Uiso   1.00
O19    O     0.82329   0.47849   0.78262   0.01267  Uiso   1.00
O20    O     0.79315   0.77535   0.78370   0.01267  Uiso   1.00
O21    O     0.04483   0.88163   0.72354   0.01267  Uiso   1.00
O22    O     0.29889   0.42749   0.72922   0.01267  Uiso   1.00
O23    O     0.40397   0.21577   0.72326   0.01267  Uiso   1.00
O24    O     0.48181   0.38921   0.78678   0.01267  Uiso   1.00
