data_image0
_cell_length_a       11.0763
_cell_length_b       11.0763
_cell_length_c       27.4307
_cell_angle_alpha    90
_cell_angle_beta     90
_cell_angle_gamma    90

_symmetry_space_group_name_H-M    "P 1"
_symmetry_int_tables_number       1

loop_
  _symmetry_equiv_pos_as_xyz
  'x, y, z'

loop_
  _atom_site_label
  _atom_site_occupancy
  _atom_site_fract_x
  _atom_site_fract_y
  _atom_site_fract_z
  _atom_site_thermal_displace_type
  _atom_site_B_iso_or_equiv
  _atom_site_type_symbol
  N1       1.0000 0.53390  0.50280  0.92688  Biso   1.000  N
  N2       1.0000 0.59350  0.70630  0.91961  Biso   1.000  N
  N3       1.0000 0.53510  0.48460  0.82564  Biso   1.000  N
  C1       1.0000 0.51220  0.39680  0.90407  Biso   1.000  C
  H1       1.0000 0.49590  0.32700  0.92310  Biso   1.000  H
  C2       1.0000 0.51290  0.38720  0.85424  Biso   1.000  C
  H2       1.0000 0.49770  0.31110  0.83950  Biso   1.000  H
  C3       1.0000 0.55850  0.58840  0.84807  Biso   1.000  C
  H3       1.0000 0.57380  0.65830  0.82900  Biso   1.000  H
  C4       1.0000 0.56140  0.59800  0.89911  Biso   1.000  C
  C5       1.0000 0.66220  0.72080  0.96204  Biso   1.000  C
  C6       1.0000 0.74770  0.81230  0.96293  Biso   1.000  C
  H4       1.0000 0.86750  0.75170  0.06350  Biso   1.000  H
  N4       1.0000 0.46610  0.49720  0.42688  Biso   1.000  N
  N5       1.0000 0.40650  0.29370  0.41961  Biso   1.000  N
  N6       1.0000 0.46490  0.51540  0.32564  Biso   1.000  N
  C7       1.0000 0.48780  0.60320  0.40407  Biso   1.000  C
  H5       1.0000 0.50410  0.67300  0.42310  Biso   1.000  H
  C8       1.0000 0.48710  0.61280  0.35424  Biso   1.000  C
  H6       1.0000 0.50230  0.68890  0.33950  Biso   1.000  H
  C9       1.0000 0.44150  0.41160  0.34807  Biso   1.000  C
  H7       1.0000 0.42620  0.34170  0.32900  Biso   1.000  H
  C10      1.0000 0.43860  0.40200  0.39911  Biso   1.000  C
  C11      1.0000 0.33780  0.27920  0.46204  Biso   1.000  C
  C12      1.0000 0.25230  0.18770  0.46293  Biso   1.000  C
  H8       1.0000 0.13250  0.24830  0.56350  Biso   1.000  H
  N7       1.0000 0.50280  0.53390  0.07312  Biso   1.000  N
  N8       1.0000 0.70630  0.59350  0.08039  Biso   1.000  N
  N9       1.0000 0.48460  0.53510  0.17436  Biso   1.000  N
  C13      1.0000 0.39680  0.51220  0.09593  Biso   1.000  C
  H9       1.0000 0.32700  0.49590  0.07690  Biso   1.000  H
  C14      1.0000 0.38720  0.51290  0.14576  Biso   1.000  C
  H10      1.0000 0.31110  0.49770  0.16050  Biso   1.000  H
  C15      1.0000 0.58840  0.55850  0.15193  Biso   1.000  C
  H11      1.0000 0.65830  0.57380  0.17100  Biso   1.000  H
  C16      1.0000 0.59800  0.56140  0.10089  Biso   1.000  C
  C17      1.0000 0.72080  0.66220  0.03796  Biso   1.000  C
  C18      1.0000 0.81230  0.74770  0.03707  Biso   1.000  C
  H12      1.0000 0.75170  0.86750  0.93650  Biso   1.000  H
  N10      1.0000 0.49720  0.46610  0.57312  Biso   1.000  N
  N11      1.0000 0.29370  0.40650  0.58039  Biso   1.000  N
  N12      1.0000 0.51540  0.46490  0.67436  Biso   1.000  N
  C19      1.0000 0.60320  0.48780  0.59593  Biso   1.000  C
  H13      1.0000 0.67300  0.50410  0.57690  Biso   1.000  H
  C20      1.0000 0.61280  0.48710  0.64576  Biso   1.000  C
  H14      1.0000 0.68890  0.50230  0.66050  Biso   1.000  H
  C21      1.0000 0.41160  0.44150  0.65193  Biso   1.000  C
  H15      1.0000 0.34170  0.42620  0.67100  Biso   1.000  H
  C22      1.0000 0.40200  0.43860  0.60089  Biso   1.000  C
  C23      1.0000 0.27920  0.33780  0.53796  Biso   1.000  C
  C24      1.0000 0.18770  0.25230  0.53707  Biso   1.000  C
  H16      1.0000 0.24830  0.13250  0.43650  Biso   1.000  H
  Cu1      1.0000 0.51609  0.51609  0.00000  Biso   1.000  Cu
  N13      1.0000 0.64600  0.64600  0.00000  Biso   1.000  N
  N14      1.0000 0.82450  0.82450  0.00000  Biso   1.000  N
  Cu2      1.0000 0.48391  0.48391  0.50000  Biso   1.000  Cu
  N15      1.0000 0.35400  0.35400  0.50000  Biso   1.000  N
  N16      1.0000 0.17550  0.17550  0.50000  Biso   1.000  N
  Ni1      1.0000 0.52836  0.47164  0.75000  Biso   1.000  Ni
  Ni2      1.0000 0.47164  0.52836  0.25000  Biso   1.000  Ni
  N17      1.0000 0.99720  0.03390  0.67688  Biso   1.000  N
  N18      1.0000 0.79370  0.09350  0.66961  Biso   1.000  N
  N19      1.0000 0.01540  0.03510  0.57564  Biso   1.000  N
  C25      1.0000 0.10320  0.01220  0.65407  Biso   1.000  C
  H17      1.0000 0.17300  0.99590  0.67310  Biso   1.000  H
  C26      1.0000 0.11280  0.01290  0.60424  Biso   1.000  C
  H18      1.0000 0.18890  0.99770  0.58950  Biso   1.000  H
  C27      1.0000 0.91160  0.05850  0.59807  Biso   1.000  C
  H19      1.0000 0.84170  0.07380  0.57900  Biso   1.000  H
  C28      1.0000 0.90200  0.06140  0.64911  Biso   1.000  C
  C29      1.0000 0.77920  0.16220  0.71204  Biso   1.000  C
  C30      1.0000 0.68770  0.24770  0.71293  Biso   1.000  C
  H20      1.0000 0.74830  0.36750  0.81350  Biso   1.000  H
  N20      1.0000 0.00280  0.96610  0.17688  Biso   1.000  N
  N21      1.0000 0.20630  0.90650  0.16961  Biso   1.000  N
  N22      1.0000 0.98460  0.96490  0.07564  Biso   1.000  N
  C31      1.0000 0.89680  0.98780  0.15407  Biso   1.000  C
  H21      1.0000 0.82700  0.00410  0.17310  Biso   1.000  H
  C32      1.0000 0.88720  0.98710  0.10424  Biso   1.000  C
  H22      1.0000 0.81110  0.00230  0.08950  Biso   1.000  H
  C33      1.0000 0.08840  0.94150  0.09807  Biso   1.000  C
  H23      1.0000 0.15830  0.92620  0.07900  Biso   1.000  H
  C34      1.0000 0.09800  0.93860  0.14911  Biso   1.000  C
  C35      1.0000 0.22080  0.83780  0.21204  Biso   1.000  C
  C36      1.0000 0.31230  0.75230  0.21293  Biso   1.000  C
  H24      1.0000 0.25170  0.63250  0.31350  Biso   1.000  H
  N23      1.0000 0.96610  0.00280  0.82312  Biso   1.000  N
  N24      1.0000 0.90650  0.20630  0.83039  Biso   1.000  N
  N25      1.0000 0.96490  0.98460  0.92436  Biso   1.000  N
  C37      1.0000 0.98780  0.89680  0.84593  Biso   1.000  C
  H25      1.0000 0.00410  0.82700  0.82690  Biso   1.000  H
  C38      1.0000 0.98710  0.88720  0.89576  Biso   1.000  C
  H26      1.0000 0.00230  0.81110  0.91050  Biso   1.000  H
  C39      1.0000 0.94150  0.08840  0.90193  Biso   1.000  C
  H27      1.0000 0.92620  0.15830  0.92100  Biso   1.000  H
  C40      1.0000 0.93860  0.09800  0.85089  Biso   1.000  C
  C41      1.0000 0.83780  0.22080  0.78796  Biso   1.000  C
  C42      1.0000 0.75230  0.31230  0.78707  Biso   1.000  C
  H28      1.0000 0.63250  0.25170  0.68650  Biso   1.000  H
  N26      1.0000 0.03390  0.99720  0.32312  Biso   1.000  N
  N27      1.0000 0.09350  0.79370  0.33039  Biso   1.000  N
  N28      1.0000 0.03510  0.01540  0.42436  Biso   1.000  N
  C43      1.0000 0.01220  0.10320  0.34593  Biso   1.000  C
  H29      1.0000 0.99590  0.17300  0.32690  Biso   1.000  H
  C44      1.0000 0.01290  0.11280  0.39576  Biso   1.000  C
  H30      1.0000 0.99770  0.18890  0.41050  Biso   1.000  H
  C45      1.0000 0.05850  0.91160  0.40193  Biso   1.000  C
  H31      1.0000 0.07380  0.84170  0.42100  Biso   1.000  H
  C46      1.0000 0.06140  0.90200  0.35089  Biso   1.000  C
  C47      1.0000 0.16220  0.77920  0.28796  Biso   1.000  C
  C48      1.0000 0.24770  0.68770  0.28707  Biso   1.000  C
  H32      1.0000 0.36750  0.74830  0.18650  Biso   1.000  H
  Cu3      1.0000 0.98391  0.01609  0.75000  Biso   1.000  Cu
  N29      1.0000 0.85400  0.14600  0.75000  Biso   1.000  N
  N30      1.0000 0.67550  0.32450  0.75000  Biso   1.000  N
  Cu4      1.0000 0.01609  0.98391  0.25000  Biso   1.000  Cu
  N31      1.0000 0.14600  0.85400  0.25000  Biso   1.000  N
  N32      1.0000 0.32450  0.67550  0.25000  Biso   1.000  N
  Ni3      1.0000 0.02836  0.02836  0.50000  Biso   1.000  Ni
  Ni4      1.0000 0.97164  0.97164  0.00000  Biso   1.000  Ni
