data_image0
_cell_length_a       9.7111
_cell_length_b       16.7387
_cell_length_c       18.0226
_cell_angle_alpha    90
_cell_angle_beta     90.29
_cell_angle_gamma    90

_symmetry_space_group_name_H-M    "P 1"
_symmetry_int_tables_number       1

loop_
  _symmetry_equiv_pos_as_xyz
  'x, y, z'

loop_
  _atom_site_label
  _atom_site_occupancy
  _atom_site_fract_x
  _atom_site_fract_y
  _atom_site_fract_z
  _atom_site_thermal_displace_type
  _atom_site_B_iso_or_equiv
  _atom_site_type_symbol
  U1       1.0000 0.88808  0.71409  0.50330  Biso   1.000  U
  U2       1.0000 0.39974  0.70951  0.78784  Biso   1.000  U
  P1       1.0000 0.58690  0.64918  0.61129  Biso   1.000  P
  P2       1.0000 0.52320  0.68719  0.45171  Biso   1.000  P
  P3       1.0000 0.02080  0.74901  0.80997  Biso   1.000  P
  P4       1.0000 0.08990  0.64997  0.67464  Biso   1.000  P
  O1       1.0000 0.67400  0.71320  0.44570  Biso   1.000  O
  O2       1.0000 0.01760  0.69430  0.61450  Biso   1.000  O
  O3       1.0000 0.92690  0.75140  0.87590  Biso   1.000  O
  O4       1.0000 0.73190  0.68210  0.60190  Biso   1.000  O
  O5       1.0000 0.53130  0.66470  0.68860  Biso   1.000  O
  O6       1.0000 0.43070  0.74150  0.40540  Biso   1.000  O
  O7       1.0000 0.23340  0.67970  0.69210  Biso   1.000  O
  O8       1.0000 0.17290  0.75010  0.82900  Biso   1.000  O
  O9       1.0000 0.57480  0.56280  0.59050  Biso   1.000  O
  O10      1.0000 0.10200  0.55930  0.65500  Biso   1.000  O
  H1       1.0000 0.04300  0.54750  0.62420  Biso   1.000  H
  O11      1.0000 0.50200  0.60060  0.43430  Biso   1.000  O
  O12      1.0000 0.99300  0.81990  0.75490  Biso   1.000  O
  H2       1.0000 0.91030  0.82990  0.75400  Biso   1.000  H
  O13      1.0000 0.33830  0.68280  0.55840  Biso   1.000  O
  H3       1.0000 0.32470  0.67240  0.60220  Biso   1.000  H
  O14      1.0000 0.84420  0.65160  0.73850  Biso   1.000  O
  H4       1.0000 0.83520  0.62190  0.70260  Biso   1.000  H
  C1       1.0000 0.47820  0.70810  0.54900  Biso   1.000  C
  C2       1.0000 0.48750  0.79770  0.56510  Biso   1.000  C
  H5       1.0000 0.42160  0.82570  0.53500  Biso   1.000  H
  H6       1.0000 0.57850  0.81640  0.55390  Biso   1.000  H
  H7       1.0000 0.46830  0.80710  0.61660  Biso   1.000  H
  C3       1.0000 0.98650  0.65530  0.75950  Biso   1.000  C
  C4       1.0000 0.01760  0.58640  0.81270  Biso   1.000  C
  H8       1.0000 0.96160  0.59150  0.85610  Biso   1.000  H
  H9       1.0000 0.11310  0.58790  0.82670  Biso   1.000  H
  H10      1.0000 0.99780  0.53650  0.78850  Biso   1.000  H
  U3       1.0000 0.11192  0.21409  0.99670  Biso   1.000  U
  U4       1.0000 0.60026  0.20951  0.71216  Biso   1.000  U
  P5       1.0000 0.41310  0.14918  0.88871  Biso   1.000  P
  P6       1.0000 0.47680  0.18719  0.04829  Biso   1.000  P
  P7       1.0000 0.97920  0.24901  0.69003  Biso   1.000  P
  P8       1.0000 0.91010  0.14997  0.82536  Biso   1.000  P
  O15      1.0000 0.32600  0.21320  0.05430  Biso   1.000  O
  O16      1.0000 0.98240  0.19430  0.88550  Biso   1.000  O
  O17      1.0000 0.07310  0.25140  0.62410  Biso   1.000  O
  O18      1.0000 0.26810  0.18210  0.89810  Biso   1.000  O
  O19      1.0000 0.46870  0.16470  0.81140  Biso   1.000  O
  O20      1.0000 0.56930  0.24150  0.09460  Biso   1.000  O
  O21      1.0000 0.76660  0.17970  0.80790  Biso   1.000  O
  O22      1.0000 0.82710  0.25010  0.67100  Biso   1.000  O
  O23      1.0000 0.42520  0.06280  0.90950  Biso   1.000  O
  O24      1.0000 0.89800  0.05930  0.84500  Biso   1.000  O
  H11      1.0000 0.95700  0.04750  0.87580  Biso   1.000  H
  O25      1.0000 0.49800  0.10060  0.06570  Biso   1.000  O
  O26      1.0000 0.00700  0.31990  0.74510  Biso   1.000  O
  H12      1.0000 0.08970  0.32990  0.74600  Biso   1.000  H
  O27      1.0000 0.66170  0.18280  0.94160  Biso   1.000  O
  H13      1.0000 0.67530  0.17240  0.89780  Biso   1.000  H
  O28      1.0000 0.15580  0.15160  0.76150  Biso   1.000  O
  H14      1.0000 0.16480  0.12190  0.79740  Biso   1.000  H
  C5       1.0000 0.52180  0.20810  0.95100  Biso   1.000  C
  C6       1.0000 0.51250  0.29770  0.93490  Biso   1.000  C
  H15      1.0000 0.57840  0.32570  0.96500  Biso   1.000  H
  H16      1.0000 0.42150  0.31640  0.94610  Biso   1.000  H
  H17      1.0000 0.53170  0.30710  0.88340  Biso   1.000  H
  C7       1.0000 0.01350  0.15530  0.74050  Biso   1.000  C
  C8       1.0000 0.98240  0.08640  0.68730  Biso   1.000  C
  H18      1.0000 0.03840  0.09150  0.64390  Biso   1.000  H
  H19      1.0000 0.88690  0.08790  0.67330  Biso   1.000  H
  H20      1.0000 0.00220  0.03650  0.71150  Biso   1.000  H
  U5       1.0000 0.11192  0.28591  0.49670  Biso   1.000  U
  U6       1.0000 0.60026  0.29049  0.21216  Biso   1.000  U
  P9       1.0000 0.41310  0.35082  0.38871  Biso   1.000  P
  P10      1.0000 0.47680  0.31281  0.54829  Biso   1.000  P
  P11      1.0000 0.97920  0.25099  0.19003  Biso   1.000  P
  P12      1.0000 0.91010  0.35003  0.32536  Biso   1.000  P
  O29      1.0000 0.32600  0.28680  0.55430  Biso   1.000  O
  O30      1.0000 0.98240  0.30570  0.38550  Biso   1.000  O
  O31      1.0000 0.07310  0.24860  0.12410  Biso   1.000  O
  O32      1.0000 0.26810  0.31790  0.39810  Biso   1.000  O
  O33      1.0000 0.46870  0.33530  0.31140  Biso   1.000  O
  O34      1.0000 0.56930  0.25850  0.59460  Biso   1.000  O
  O35      1.0000 0.76660  0.32030  0.30790  Biso   1.000  O
  O36      1.0000 0.82710  0.24990  0.17100  Biso   1.000  O
  O37      1.0000 0.42520  0.43720  0.40950  Biso   1.000  O
  O38      1.0000 0.89800  0.44070  0.34500  Biso   1.000  O
  H21      1.0000 0.95700  0.45250  0.37580  Biso   1.000  H
  O39      1.0000 0.49800  0.39940  0.56570  Biso   1.000  O
  O40      1.0000 0.00700  0.18010  0.24510  Biso   1.000  O
  H22      1.0000 0.08970  0.17010  0.24600  Biso   1.000  H
  O41      1.0000 0.66170  0.31720  0.44160  Biso   1.000  O
  H23      1.0000 0.67530  0.32760  0.39780  Biso   1.000  H
  O42      1.0000 0.15580  0.34840  0.26150  Biso   1.000  O
  H24      1.0000 0.16480  0.37810  0.29740  Biso   1.000  H
  C9       1.0000 0.52180  0.29190  0.45100  Biso   1.000  C
  C10      1.0000 0.51250  0.20230  0.43490  Biso   1.000  C
  H25      1.0000 0.57840  0.17430  0.46500  Biso   1.000  H
  H26      1.0000 0.42150  0.18360  0.44610  Biso   1.000  H
  H27      1.0000 0.53170  0.19290  0.38340  Biso   1.000  H
  C11      1.0000 0.01350  0.34470  0.24050  Biso   1.000  C
  C12      1.0000 0.98240  0.41360  0.18730  Biso   1.000  C
  H28      1.0000 0.03840  0.40850  0.14390  Biso   1.000  H
  H29      1.0000 0.88690  0.41210  0.17330  Biso   1.000  H
  H30      1.0000 0.00220  0.46350  0.21150  Biso   1.000  H
  U7       1.0000 0.88808  0.78591  0.00330  Biso   1.000  U
  U8       1.0000 0.39974  0.79049  0.28784  Biso   1.000  U
  P13      1.0000 0.58690  0.85082  0.11129  Biso   1.000  P
  P14      1.0000 0.52320  0.81281  0.95171  Biso   1.000  P
  P15      1.0000 0.02080  0.75099  0.30997  Biso   1.000  P
  P16      1.0000 0.08990  0.85003  0.17464  Biso   1.000  P
  O43      1.0000 0.67400  0.78680  0.94570  Biso   1.000  O
  O44      1.0000 0.01760  0.80570  0.11450  Biso   1.000  O
  O45      1.0000 0.92690  0.74860  0.37590  Biso   1.000  O
  O46      1.0000 0.73190  0.81790  0.10190  Biso   1.000  O
  O47      1.0000 0.53130  0.83530  0.18860  Biso   1.000  O
  O48      1.0000 0.43070  0.75850  0.90540  Biso   1.000  O
  O49      1.0000 0.23340  0.82030  0.19210  Biso   1.000  O
  O50      1.0000 0.17290  0.74990  0.32900  Biso   1.000  O
  O51      1.0000 0.57480  0.93720  0.09050  Biso   1.000  O
  O52      1.0000 0.10200  0.94070  0.15500  Biso   1.000  O
  H31      1.0000 0.04300  0.95250  0.12420  Biso   1.000  H
  O53      1.0000 0.50200  0.89940  0.93430  Biso   1.000  O
  O54      1.0000 0.99300  0.68010  0.25490  Biso   1.000  O
  H32      1.0000 0.91030  0.67010  0.25400  Biso   1.000  H
  O55      1.0000 0.33830  0.81720  0.05840  Biso   1.000  O
  H33      1.0000 0.32470  0.82760  0.10220  Biso   1.000  H
  O56      1.0000 0.84420  0.84840  0.23850  Biso   1.000  O
  H34      1.0000 0.83520  0.87810  0.20260  Biso   1.000  H
  C13      1.0000 0.47820  0.79190  0.04900  Biso   1.000  C
  C14      1.0000 0.48750  0.70230  0.06510  Biso   1.000  C
  H35      1.0000 0.42160  0.67430  0.03500  Biso   1.000  H
  H36      1.0000 0.57850  0.68360  0.05390  Biso   1.000  H
  H37      1.0000 0.46830  0.69290  0.11660  Biso   1.000  H
  C15      1.0000 0.98650  0.84470  0.25950  Biso   1.000  C
  C16      1.0000 0.01760  0.91360  0.31270  Biso   1.000  C
  H38      1.0000 0.96160  0.90850  0.35610  Biso   1.000  H
  H39      1.0000 0.11310  0.91210  0.32670  Biso   1.000  H
  H40      1.0000 0.99780  0.96350  0.28850  Biso   1.000  H
  Zn1      1.0000 0.50000  0.50000  0.50000  Biso   1.000  Zn
  Zn2      1.0000 0.50000  0.00000  0.00000  Biso   1.000  Zn
