data_image0
_cell_length_a       9.697
_cell_length_b       17.5578
_cell_length_c       17.9345
_cell_angle_alpha    90
_cell_angle_beta     90.327
_cell_angle_gamma    90

_symmetry_space_group_name_H-M    "P 1"
_symmetry_int_tables_number       1

loop_
  _symmetry_equiv_pos_as_xyz
  'x, y, z'

loop_
  _atom_site_label
  _atom_site_occupancy
  _atom_site_fract_x
  _atom_site_fract_y
  _atom_site_fract_z
  _atom_site_thermal_displace_type
  _atom_site_B_iso_or_equiv
  _atom_site_type_symbol
  U1       1.0000 0.39866  0.27548  0.21925  Biso   1.000  U
  U2       1.0000 0.90375  0.21020  0.43887  Biso   1.000  U
  Zn1      1.0000 0.23369  0.00750  0.44257  Biso   1.000  Zn
  P1       1.0000 0.27270  0.17122  0.38441  Biso   1.000  P
  P2       1.0000 0.77380  0.23446  0.24135  Biso   1.000  P
  P3       1.0000 0.20710  0.15085  0.54754  Biso   1.000  P
  P4       1.0000 0.70170  0.33550  0.11015  Biso   1.000  P
  O1       1.0000 0.36410  0.21700  0.33320  Biso   1.000  O
  O2       1.0000 0.56210  0.29740  0.12400  Biso   1.000  O
  O3       1.0000 0.62300  0.23130  0.26090  Biso   1.000  O
  O4       1.0000 0.26720  0.16610  0.62440  Biso   1.000  O
  O5       1.0000 0.12060  0.19350  0.37840  Biso   1.000  O
  O6       1.0000 0.78200  0.29400  0.05000  Biso   1.000  O
  O7       1.0000 0.06550  0.18930  0.53730  Biso   1.000  O
  O8       1.0000 0.86910  0.23100  0.30900  Biso   1.000  O
  O9       1.0000 0.80910  0.17260  0.18260  Biso   1.000  O
  H1       1.0000 0.89240  0.17260  0.17510  Biso   1.000  H
  O10      1.0000 0.29670  0.08620  0.37230  Biso   1.000  O
  O11      1.0000 0.95030  0.33070  0.17460  Biso   1.000  O
  H2       1.0000 0.96740  0.37310  0.15810  Biso   1.000  H
  O12      1.0000 0.45820  0.16340  0.49190  Biso   1.000  O
  H3       1.0000 0.49280  0.18230  0.52940  Biso   1.000  H
  O13      1.0000 0.19970  0.06670  0.53160  Biso   1.000  O
  O14      1.0000 0.68140  0.41940  0.09350  Biso   1.000  O
  C1       1.0000 0.32250  0.19580  0.47970  Biso   1.000  C
  C2       1.0000 0.32270  0.28310  0.48810  Biso   1.000  C
  H4       1.0000 0.35410  0.29650  0.53720  Biso   1.000  H
  H5       1.0000 0.23090  0.30220  0.48050  Biso   1.000  H
  H6       1.0000 0.38320  0.30500  0.45180  Biso   1.000  H
  C3       1.0000 0.80550  0.32700  0.19620  Biso   1.000  C
  C4       1.0000 0.78020  0.39110  0.25390  Biso   1.000  C
  H7       1.0000 0.84890  0.38830  0.29260  Biso   1.000  H
  H8       1.0000 0.69040  0.38500  0.27530  Biso   1.000  H
  H9       1.0000 0.78580  0.43970  0.22960  Biso   1.000  H
  U3       1.0000 0.60134  0.77548  0.28075  Biso   1.000  U
  U4       1.0000 0.09625  0.71020  0.06113  Biso   1.000  U
  Zn2      1.0000 0.76631  0.50750  0.05743  Biso   1.000  Zn
  P5       1.0000 0.72730  0.67122  0.11559  Biso   1.000  P
  P6       1.0000 0.22620  0.73446  0.25865  Biso   1.000  P
  P7       1.0000 0.79290  0.65085  0.95246  Biso   1.000  P
  P8       1.0000 0.29830  0.83550  0.38985  Biso   1.000  P
  O15      1.0000 0.63590  0.71700  0.16680  Biso   1.000  O
  O16      1.0000 0.43790  0.79740  0.37600  Biso   1.000  O
  O17      1.0000 0.37700  0.73130  0.23910  Biso   1.000  O
  O18      1.0000 0.73280  0.66610  0.87560  Biso   1.000  O
  O19      1.0000 0.87940  0.69350  0.12160  Biso   1.000  O
  O20      1.0000 0.21800  0.79400  0.45000  Biso   1.000  O
  O21      1.0000 0.93450  0.68930  0.96270  Biso   1.000  O
  O22      1.0000 0.13090  0.73100  0.19100  Biso   1.000  O
  O23      1.0000 0.19090  0.67260  0.31740  Biso   1.000  O
  H10      1.0000 0.10760  0.67260  0.32490  Biso   1.000  H
  O24      1.0000 0.70330  0.58620  0.12770  Biso   1.000  O
  O25      1.0000 0.04970  0.83070  0.32540  Biso   1.000  O
  H11      1.0000 0.03260  0.87310  0.34190  Biso   1.000  H
  O26      1.0000 0.54180  0.66340  0.00810  Biso   1.000  O
  H12      1.0000 0.50720  0.68230  0.97060  Biso   1.000  H
  O27      1.0000 0.80030  0.56670  0.96840  Biso   1.000  O
  O28      1.0000 0.31860  0.91940  0.40650  Biso   1.000  O
  C5       1.0000 0.67750  0.69580  0.02030  Biso   1.000  C
  C6       1.0000 0.67730  0.78310  0.01190  Biso   1.000  C
  H13      1.0000 0.64590  0.79650  0.96280  Biso   1.000  H
  H14      1.0000 0.76910  0.80220  0.01950  Biso   1.000  H
  H15      1.0000 0.61680  0.80500  0.04820  Biso   1.000  H
  C7       1.0000 0.19450  0.82700  0.30380  Biso   1.000  C
  C8       1.0000 0.21980  0.89110  0.24610  Biso   1.000  C
  H16      1.0000 0.15110  0.88830  0.20740  Biso   1.000  H
  H17      1.0000 0.30960  0.88500  0.22470  Biso   1.000  H
  H18      1.0000 0.21420  0.93970  0.27040  Biso   1.000  H
  U5       1.0000 0.60134  0.72452  0.78075  Biso   1.000  U
  U6       1.0000 0.09625  0.78980  0.56113  Biso   1.000  U
  Zn3      1.0000 0.76631  0.99250  0.55743  Biso   1.000  Zn
  P9       1.0000 0.72730  0.82878  0.61559  Biso   1.000  P
  P10      1.0000 0.22620  0.76554  0.75865  Biso   1.000  P
  P11      1.0000 0.79290  0.84915  0.45246  Biso   1.000  P
  P12      1.0000 0.29830  0.66450  0.88985  Biso   1.000  P
  O29      1.0000 0.63590  0.78300  0.66680  Biso   1.000  O
  O30      1.0000 0.43790  0.70260  0.87600  Biso   1.000  O
  O31      1.0000 0.37700  0.76870  0.73910  Biso   1.000  O
  O32      1.0000 0.73280  0.83390  0.37560  Biso   1.000  O
  O33      1.0000 0.87940  0.80650  0.62160  Biso   1.000  O
  O34      1.0000 0.21800  0.70600  0.95000  Biso   1.000  O
  O35      1.0000 0.93450  0.81070  0.46270  Biso   1.000  O
  O36      1.0000 0.13090  0.76900  0.69100  Biso   1.000  O
  O37      1.0000 0.19090  0.82740  0.81740  Biso   1.000  O
  H19      1.0000 0.10760  0.82740  0.82490  Biso   1.000  H
  O38      1.0000 0.70330  0.91380  0.62770  Biso   1.000  O
  O39      1.0000 0.04970  0.66930  0.82540  Biso   1.000  O
  H20      1.0000 0.03260  0.62690  0.84190  Biso   1.000  H
  O40      1.0000 0.54180  0.83660  0.50810  Biso   1.000  O
  H21      1.0000 0.50720  0.81770  0.47060  Biso   1.000  H
  O41      1.0000 0.80030  0.93330  0.46840  Biso   1.000  O
  O42      1.0000 0.31860  0.58060  0.90650  Biso   1.000  O
  C9       1.0000 0.67750  0.80420  0.52030  Biso   1.000  C
  C10      1.0000 0.67730  0.71690  0.51190  Biso   1.000  C
  H22      1.0000 0.64590  0.70350  0.46280  Biso   1.000  H
  H23      1.0000 0.76910  0.69780  0.51950  Biso   1.000  H
  H24      1.0000 0.61680  0.69500  0.54820  Biso   1.000  H
  C11      1.0000 0.19450  0.67300  0.80380  Biso   1.000  C
  C12      1.0000 0.21980  0.60890  0.74610  Biso   1.000  C
  H25      1.0000 0.15110  0.61170  0.70740  Biso   1.000  H
  H26      1.0000 0.30960  0.61500  0.72470  Biso   1.000  H
  H27      1.0000 0.21420  0.56030  0.77040  Biso   1.000  H
  U7       1.0000 0.39866  0.22452  0.71925  Biso   1.000  U
  U8       1.0000 0.90375  0.28980  0.93887  Biso   1.000  U
  Zn4      1.0000 0.23369  0.49250  0.94257  Biso   1.000  Zn
  P13      1.0000 0.27270  0.32878  0.88441  Biso   1.000  P
  P14      1.0000 0.77380  0.26554  0.74135  Biso   1.000  P
  P15      1.0000 0.20710  0.34915  0.04754  Biso   1.000  P
  P16      1.0000 0.70170  0.16450  0.61015  Biso   1.000  P
  O43      1.0000 0.36410  0.28300  0.83320  Biso   1.000  O
  O44      1.0000 0.56210  0.20260  0.62400  Biso   1.000  O
  O45      1.0000 0.62300  0.26870  0.76090  Biso   1.000  O
  O46      1.0000 0.26720  0.33390  0.12440  Biso   1.000  O
  O47      1.0000 0.12060  0.30650  0.87840  Biso   1.000  O
  O48      1.0000 0.78200  0.20600  0.55000  Biso   1.000  O
  O49      1.0000 0.06550  0.31070  0.03730  Biso   1.000  O
  O50      1.0000 0.86910  0.26900  0.80900  Biso   1.000  O
  O51      1.0000 0.80910  0.32740  0.68260  Biso   1.000  O
  H28      1.0000 0.89240  0.32740  0.67510  Biso   1.000  H
  O52      1.0000 0.29670  0.41380  0.87230  Biso   1.000  O
  O53      1.0000 0.95030  0.16930  0.67460  Biso   1.000  O
  H29      1.0000 0.96740  0.12690  0.65810  Biso   1.000  H
  O54      1.0000 0.45820  0.33660  0.99190  Biso   1.000  O
  H30      1.0000 0.49280  0.31770  0.02940  Biso   1.000  H
  O55      1.0000 0.19970  0.43330  0.03160  Biso   1.000  O
  O56      1.0000 0.68140  0.08060  0.59350  Biso   1.000  O
  C13      1.0000 0.32250  0.30420  0.97970  Biso   1.000  C
  C14      1.0000 0.32270  0.21690  0.98810  Biso   1.000  C
  H31      1.0000 0.35410  0.20350  0.03720  Biso   1.000  H
  H32      1.0000 0.23090  0.19780  0.98050  Biso   1.000  H
  H33      1.0000 0.38320  0.19500  0.95180  Biso   1.000  H
  C15      1.0000 0.80550  0.17300  0.69620  Biso   1.000  C
  C16      1.0000 0.78020  0.10890  0.75390  Biso   1.000  C
  H34      1.0000 0.84890  0.11170  0.79260  Biso   1.000  H
  H35      1.0000 0.69040  0.11500  0.77530  Biso   1.000  H
  H36      1.0000 0.78580  0.06030  0.72960  Biso   1.000  H
