data_HEDBEZ_clean
_audit_creation_date              2014-07-02
_audit_creation_method            'Materials Studio'
_symmetry_space_group_name_H-M    'P1'
_symmetry_Int_Tables_number       1
_symmetry_cell_setting            triclinic
loop_
_symmetry_equiv_pos_as_xyz
  x,y,z
_cell_length_a                    10.9229
_cell_length_b                    11.5371
_cell_length_c                    13.4516
_cell_angle_alpha                 69.5020
_cell_angle_beta                  80.0490
_cell_angle_gamma                 62.2530
loop_
_atom_site_label
_atom_site_type_symbol
_atom_site_fract_x
_atom_site_fract_y
_atom_site_fract_z
_atom_site_U_iso_or_equiv
_atom_site_adp_type
_atom_site_occupancy
Ce1    Ce    0.62209   0.21477   0.77533   0.01267  Uiso   1.00
Ce2    Ce    0.37791   0.78523   0.22467   0.01267  Uiso   1.00
U1     U     0.63202   0.70190   0.83325   0.01267  Uiso   1.00
U2     U     0.36798   0.29810   0.16675   0.01267  Uiso   1.00
U3     U     0.00000   0.50000   0.50000   0.01267  Uiso   1.00
H1     H     0.18669   0.09736   0.73039   0.01267  Uiso   1.00
H2     H     0.29301   0.00075   0.58045   0.01267  Uiso   1.00
H3     H     0.09938   0.36268   0.95193   0.01267  Uiso   1.00
H4     H     0.81331   0.90264   0.26961   0.01267  Uiso   1.00
H5     H     0.70699   0.99925   0.41955   0.01267  Uiso   1.00
H6     H     0.90062   0.63732   0.04807   0.01267  Uiso   1.00
C1     C     0.41940   0.02760   0.80950   0.01267  Uiso   1.00
C2     C     0.92090   0.27660   0.71680   0.01267  Uiso   1.00
C3     C     0.03500   0.25740   0.77950   0.01267  Uiso   1.00
C4     C     0.27810   0.13430   0.82840   0.01267  Uiso   1.00
C5     C     0.00990   0.33730   0.84510   0.01267  Uiso   1.00
C6     C     0.25140   0.21380   0.89580   0.01267  Uiso   1.00
C7     C     0.16950   0.15460   0.77340   0.01267  Uiso   1.00
C8     C     0.74440   0.74550   0.50400   0.01267  Uiso   1.00
C9     C     0.47480   0.74640   0.61490   0.01267  Uiso   1.00
C10    C     0.87360   0.45500   0.84950   0.01267  Uiso   1.00
C11    C     0.35690   0.19810   0.96240   0.01267  Uiso   1.00
C12    C     0.37860   0.00020   0.54780   0.01267  Uiso   1.00
C13    C     0.61550   0.87540   0.50340   0.01267  Uiso   1.00
C14    C     0.49250   0.87440   0.55370   0.01267  Uiso   1.00
C15    C     0.11820   0.31110   0.90400   0.01267  Uiso   1.00
C16    C     0.58060   0.97240   0.19050   0.01267  Uiso   1.00
C17    C     0.07910   0.72340   0.28320   0.01267  Uiso   1.00
C18    C     0.96500   0.74260   0.22050   0.01267  Uiso   1.00
C19    C     0.72190   0.86570   0.17160   0.01267  Uiso   1.00
C20    C     0.99010   0.66270   0.15490   0.01267  Uiso   1.00
C21    C     0.74860   0.78620   0.10420   0.01267  Uiso   1.00
C22    C     0.83050   0.84540   0.22660   0.01267  Uiso   1.00
C23    C     0.25560   0.25450   0.49600   0.01267  Uiso   1.00
C24    C     0.52520   0.25360   0.38510   0.01267  Uiso   1.00
C25    C     0.12640   0.54500   0.15050   0.01267  Uiso   1.00
C26    C     0.64310   0.80190   0.03760   0.01267  Uiso   1.00
C27    C     0.62140   0.99980   0.45220   0.01267  Uiso   1.00
C28    C     0.38450   0.12460   0.49660   0.01267  Uiso   1.00
C29    C     0.50750   0.12560   0.44630   0.01267  Uiso   1.00
C30    C     0.88180   0.68890   0.09600   0.01267  Uiso   1.00
O1     O     0.90050   0.35670   0.62260   0.01267  Uiso   1.00
O2     O     0.50650   0.69210   0.71330   0.01267  Uiso   1.00
O3     O     0.31040   0.21670   0.05370   0.01267  Uiso   1.00
O4     O     0.42800   0.90880   0.82710   0.01267  Uiso   1.00
O5     O     0.77400   0.48270   0.79580   0.01267  Uiso   1.00
O6     O     0.73890   0.63170   0.53140   0.01267  Uiso   1.00
O7     O     0.85710   0.20620   0.76010   0.01267  Uiso   1.00
O8     O     0.85700   0.75040   0.47760   0.01267  Uiso   1.00
O9     O     0.51670   0.06000   0.77400   0.01267  Uiso   1.00
O10    O     0.85830   0.52810   0.90550   0.01267  Uiso   1.00
O11    O     0.42380   0.70320   0.57000   0.01267  Uiso   1.00
O12    O     0.47620   0.17280   0.93270   0.01267  Uiso   1.00
O13    O     0.09950   0.64330   0.37740   0.01267  Uiso   1.00
O14    O     0.49350   0.30790   0.28670   0.01267  Uiso   1.00
O15    O     0.68960   0.78330   0.94630   0.01267  Uiso   1.00
O16    O     0.57200   0.09120   0.17290   0.01267  Uiso   1.00
O17    O     0.22600   0.51730   0.20420   0.01267  Uiso   1.00
O18    O     0.26110   0.36830   0.46860   0.01267  Uiso   1.00
O19    O     0.14290   0.79380   0.23990   0.01267  Uiso   1.00
O20    O     0.14300   0.24960   0.52240   0.01267  Uiso   1.00
O21    O     0.48330   0.94000   0.22600   0.01267  Uiso   1.00
O22    O     0.14170   0.47190   0.09450   0.01267  Uiso   1.00
O23    O     0.57620   0.29680   0.43000   0.01267  Uiso   1.00
O24    O     0.52380   0.82720   0.06730   0.01267  Uiso   1.00
