data_HEDBOJ_clean
_audit_creation_date              2014-07-02
_audit_creation_method            'Materials Studio'
_symmetry_space_group_name_H-M    'P1'
_symmetry_Int_Tables_number       1
_symmetry_cell_setting            triclinic
loop_
_symmetry_equiv_pos_as_xyz
  x,y,z
_cell_length_a                    8.3188
_cell_length_b                    15.8523
_cell_length_c                    21.5884
_cell_angle_alpha                 90.0000
_cell_angle_beta                  90.0000
_cell_angle_gamma                 90.0000
loop_
_atom_site_label
_atom_site_type_symbol
_atom_site_fract_x
_atom_site_fract_y
_atom_site_fract_z
_atom_site_U_iso_or_equiv
_atom_site_adp_type
_atom_site_occupancy
Ce1    Ce    0.14518   0.15677   0.72753   0.01267  Uiso   1.00
Ce2    Ce    0.85482   0.84323   0.22753   0.01267  Uiso   1.00
Ce3    Ce    0.35482   0.65677   0.72753   0.01267  Uiso   1.00
Ce4    Ce    0.64518   0.34323   0.22753   0.01267  Uiso   1.00
U1     U     0.97775   0.64397   0.97620   0.01267  Uiso   1.00
U2     U     0.98467   0.36591   0.97183   0.01267  Uiso   1.00
U3     U     0.02225   0.35603   0.47620   0.01267  Uiso   1.00
U4     U     0.01533   0.63409   0.47183   0.01267  Uiso   1.00
U5     U     0.52225   0.14397   0.97620   0.01267  Uiso   1.00
U6     U     0.51533   0.86591   0.97183   0.01267  Uiso   1.00
U7     U     0.47775   0.85603   0.47620   0.01267  Uiso   1.00
U8     U     0.48467   0.13409   0.47183   0.01267  Uiso   1.00
C1     C     0.01790   0.18740   0.97820   0.01267  Uiso   1.00
C2     C     0.02000   0.09230   0.98170   0.01267  Uiso   1.00
C3     C     0.01460   0.91640   0.97900   0.01267  Uiso   1.00
C4     C     0.01020   0.82150   0.98170   0.01267  Uiso   1.00
C5     C     0.18900   0.91300   0.88390   0.01267  Uiso   1.00
C6     C     0.19960   0.09100   0.88480   0.01267  Uiso   1.00
C7     C     0.83480   0.09530   0.07530   0.01267  Uiso   1.00
C8     C     0.10100   0.95970   0.93520   0.01267  Uiso   1.00
C9     C     0.92340   0.96070   0.02440   0.01267  Uiso   1.00
C10    C     0.10680   0.04690   0.93580   0.01267  Uiso   1.00
C11    C     0.92950   0.04960   0.02450   0.01267  Uiso   1.00
C12    C     0.82440   0.91570   0.07260   0.01267  Uiso   1.00
C13    C     0.98210   0.81260   0.47820   0.01267  Uiso   1.00
C14    C     0.98000   0.90770   0.48170   0.01267  Uiso   1.00
C15    C     0.98540   0.08360   0.47900   0.01267  Uiso   1.00
C16    C     0.98980   0.17850   0.48170   0.01267  Uiso   1.00
C17    C     0.81100   0.08700   0.38390   0.01267  Uiso   1.00
C18    C     0.80040   0.90900   0.38480   0.01267  Uiso   1.00
C19    C     0.16520   0.90470   0.57530   0.01267  Uiso   1.00
C20    C     0.89900   0.04030   0.43520   0.01267  Uiso   1.00
C21    C     0.07660   0.03930   0.52440   0.01267  Uiso   1.00
C22    C     0.89320   0.95310   0.43580   0.01267  Uiso   1.00
C23    C     0.07050   0.95040   0.52450   0.01267  Uiso   1.00
C24    C     0.17560   0.08430   0.57260   0.01267  Uiso   1.00
C25    C     0.48210   0.68740   0.97820   0.01267  Uiso   1.00
C26    C     0.48000   0.59230   0.98170   0.01267  Uiso   1.00
C27    C     0.48540   0.41640   0.97900   0.01267  Uiso   1.00
C28    C     0.48980   0.32150   0.98170   0.01267  Uiso   1.00
C29    C     0.31100   0.41300   0.88390   0.01267  Uiso   1.00
C30    C     0.30040   0.59100   0.88480   0.01267  Uiso   1.00
C31    C     0.66520   0.59530   0.07530   0.01267  Uiso   1.00
C32    C     0.39900   0.45970   0.93520   0.01267  Uiso   1.00
C33    C     0.57660   0.46070   0.02440   0.01267  Uiso   1.00
C34    C     0.39320   0.54690   0.93580   0.01267  Uiso   1.00
C35    C     0.57050   0.54960   0.02450   0.01267  Uiso   1.00
C36    C     0.67560   0.41570   0.07260   0.01267  Uiso   1.00
C37    C     0.51790   0.31260   0.47820   0.01267  Uiso   1.00
C38    C     0.52000   0.40770   0.48170   0.01267  Uiso   1.00
C39    C     0.51460   0.58360   0.47900   0.01267  Uiso   1.00
C40    C     0.51020   0.67850   0.48170   0.01267  Uiso   1.00
C41    C     0.68900   0.58700   0.38390   0.01267  Uiso   1.00
C42    C     0.69960   0.40900   0.38480   0.01267  Uiso   1.00
C43    C     0.33480   0.40470   0.57530   0.01267  Uiso   1.00
C44    C     0.60100   0.54030   0.43520   0.01267  Uiso   1.00
C45    C     0.42340   0.53930   0.52440   0.01267  Uiso   1.00
C46    C     0.60680   0.45310   0.43580   0.01267  Uiso   1.00
C47    C     0.42950   0.45040   0.52450   0.01267  Uiso   1.00
C48    C     0.32440   0.58430   0.57260   0.01267  Uiso   1.00
O1     O     0.95500   0.22730   0.02290   0.01267  Uiso   1.00
O2     O     0.07700   0.22530   0.93350   0.01267  Uiso   1.00
O3     O     0.94080   0.78350   0.02410   0.01267  Uiso   1.00
O4     O     0.33400   0.89450   0.89050   0.01267  Uiso   1.00
O5     O     0.11160   0.90090   0.83420   0.01267  Uiso   1.00
O6     O     0.34230   0.11700   0.89390   0.01267  Uiso   1.00
O7     O     0.13220   0.09310   0.83330   0.01267  Uiso   1.00
O8     O     0.88220   0.90800   0.12540   0.01267  Uiso   1.00
O9     O     0.68310   0.89200   0.05810   0.01267  Uiso   1.00
O10    O     0.92230   0.50490   0.95270   0.01267  Uiso   1.00
O11    O     0.69070   0.11600   0.06250   0.01267  Uiso   1.00
O12    O     0.89860   0.10820   0.12480   0.01267  Uiso   1.00
O13    O     0.08060   0.78140   0.93860   0.01267  Uiso   1.00
O14    O     0.04500   0.77270   0.52290   0.01267  Uiso   1.00
O15    O     0.92300   0.77470   0.43350   0.01267  Uiso   1.00
O16    O     0.05920   0.21650   0.52410   0.01267  Uiso   1.00
O17    O     0.66600   0.10550   0.39050   0.01267  Uiso   1.00
O18    O     0.88840   0.09910   0.33420   0.01267  Uiso   1.00
O19    O     0.65770   0.88300   0.39390   0.01267  Uiso   1.00
O20    O     0.86780   0.90690   0.33330   0.01267  Uiso   1.00
O21    O     0.11780   0.09200   0.62540   0.01267  Uiso   1.00
O22    O     0.31690   0.10800   0.55810   0.01267  Uiso   1.00
O23    O     0.07770   0.49510   0.45270   0.01267  Uiso   1.00
O24    O     0.30930   0.88400   0.56250   0.01267  Uiso   1.00
O25    O     0.10140   0.89180   0.62480   0.01267  Uiso   1.00
O26    O     0.91940   0.21860   0.43860   0.01267  Uiso   1.00
O27    O     0.54500   0.72730   0.02290   0.01267  Uiso   1.00
O28    O     0.42300   0.72530   0.93350   0.01267  Uiso   1.00
O29    O     0.55920   0.28350   0.02410   0.01267  Uiso   1.00
O30    O     0.16600   0.39450   0.89050   0.01267  Uiso   1.00
O31    O     0.38840   0.40090   0.83420   0.01267  Uiso   1.00
O32    O     0.15770   0.61700   0.89390   0.01267  Uiso   1.00
O33    O     0.36780   0.59310   0.83330   0.01267  Uiso   1.00
O34    O     0.61780   0.40800   0.12540   0.01267  Uiso   1.00
O35    O     0.81690   0.39200   0.05810   0.01267  Uiso   1.00
O36    O     0.57770   0.00490   0.95270   0.01267  Uiso   1.00
O37    O     0.80930   0.61600   0.06250   0.01267  Uiso   1.00
O38    O     0.60140   0.60820   0.12480   0.01267  Uiso   1.00
O39    O     0.41940   0.28140   0.93860   0.01267  Uiso   1.00
O40    O     0.45500   0.27270   0.52290   0.01267  Uiso   1.00
O41    O     0.57700   0.27470   0.43350   0.01267  Uiso   1.00
O42    O     0.44080   0.71650   0.52410   0.01267  Uiso   1.00
O43    O     0.83400   0.60550   0.39050   0.01267  Uiso   1.00
O44    O     0.61160   0.59910   0.33420   0.01267  Uiso   1.00
O45    O     0.84230   0.38300   0.39390   0.01267  Uiso   1.00
O46    O     0.63220   0.40690   0.33330   0.01267  Uiso   1.00
O47    O     0.38220   0.59200   0.62540   0.01267  Uiso   1.00
O48    O     0.18310   0.60800   0.55810   0.01267  Uiso   1.00
O49    O     0.42230   0.99510   0.45270   0.01267  Uiso   1.00
O50    O     0.19070   0.38400   0.56250   0.01267  Uiso   1.00
O51    O     0.39860   0.39180   0.62480   0.01267  Uiso   1.00
O52    O     0.58060   0.71860   0.43860   0.01267  Uiso   1.00
