data_HEDCAW_clean
_audit_creation_date              2014-07-02
_audit_creation_method            'Materials Studio'
_symmetry_space_group_name_H-M    'P1'
_symmetry_Int_Tables_number       1
_symmetry_cell_setting            triclinic
loop_
_symmetry_equiv_pos_as_xyz
  x,y,z
_cell_length_a                    15.8085
_cell_length_b                    15.8085
_cell_length_c                    21.0207
_cell_angle_alpha                 85.2861
_cell_angle_beta                  85.2861
_cell_angle_gamma                 60.5712
loop_
_atom_site_label
_atom_site_type_symbol
_atom_site_fract_x
_atom_site_fract_y
_atom_site_fract_z
_atom_site_U_iso_or_equiv
_atom_site_adp_type
_atom_site_occupancy
Zn1    Zn    0.43533   0.95773   0.00741   0.01267  Uiso   1.00
Zn2    Zn    0.00850   0.00218   0.68084   0.01267  Uiso   1.00
Zn3    Zn    0.04227   0.56467   0.49259   0.01267  Uiso   1.00
Zn4    Zn    0.99782   0.99150   0.81916   0.01267  Uiso   1.00
Zn5    Zn    0.56467   0.04227   0.99259   0.01267  Uiso   1.00
Zn6    Zn    0.99150   0.99782   0.31916   0.01267  Uiso   1.00
Zn7    Zn    0.95773   0.43533   0.50741   0.01267  Uiso   1.00
Zn8    Zn    0.00218   0.00850   0.18084   0.01267  Uiso   1.00
H1     H     0.10590   0.28450   0.81370   0.01267  Uiso   1.00
H2     H     0.93520   0.45500   0.67890   0.01267  Uiso   1.00
H3     H     0.12120   0.52960   0.84940   0.01267  Uiso   1.00
H4     H     0.60380   0.72680   0.88530   0.01267  Uiso   1.00
H5     H     0.22790   0.15130   0.86890   0.01267  Uiso   1.00
H6     H     0.04490   0.70630   0.65930   0.01267  Uiso   1.00
H7     H     0.39500   0.26740   0.85570   0.01267  Uiso   1.00
H8     H     0.86320   0.44800   0.86910   0.01267  Uiso   1.00
H9     H     0.89100   0.70180   0.80570   0.01267  Uiso   1.00
H10    H     0.90520   0.28760   0.86130   0.01267  Uiso   1.00
H11    H     0.09620   0.68500   0.84610   0.01267  Uiso   1.00
H12    H     0.96340   0.29500   0.67440   0.01267  Uiso   1.00
H13    H     0.06630   0.55130   0.66430   0.01267  Uiso   1.00
H14    H     0.78070   0.83590   0.85520   0.01267  Uiso   1.00
H15    H     0.28680   0.39860   0.79510   0.01267  Uiso   1.00
H16    H     0.70670   0.59490   0.82850   0.01267  Uiso   1.00
H17    H     0.71550   0.89410   0.68630   0.01267  Uiso   1.00
H18    H     0.54500   0.06480   0.82110   0.01267  Uiso   1.00
H19    H     0.47040   0.87880   0.65060   0.01267  Uiso   1.00
H20    H     0.27320   0.39620   0.61470   0.01267  Uiso   1.00
H21    H     0.84870   0.77210   0.63110   0.01267  Uiso   1.00
H22    H     0.29370   0.95510   0.84070   0.01267  Uiso   1.00
H23    H     0.73260   0.60500   0.64430   0.01267  Uiso   1.00
H24    H     0.55200   0.13680   0.63090   0.01267  Uiso   1.00
H25    H     0.29820   0.10900   0.69430   0.01267  Uiso   1.00
H26    H     0.71240   0.09480   0.63870   0.01267  Uiso   1.00
H27    H     0.31500   0.90380   0.65390   0.01267  Uiso   1.00
H28    H     0.70500   0.03660   0.82560   0.01267  Uiso   1.00
H29    H     0.44870   0.93370   0.83570   0.01267  Uiso   1.00
H30    H     0.16410   0.21930   0.64480   0.01267  Uiso   1.00
H31    H     0.60140   0.71320   0.70490   0.01267  Uiso   1.00
H32    H     0.40510   0.29330   0.67150   0.01267  Uiso   1.00
H33    H     0.89410   0.71550   0.18630   0.01267  Uiso   1.00
H34    H     0.06480   0.54500   0.32110   0.01267  Uiso   1.00
H35    H     0.87880   0.47040   0.15060   0.01267  Uiso   1.00
H36    H     0.39620   0.27320   0.11470   0.01267  Uiso   1.00
H37    H     0.77210   0.84870   0.13110   0.01267  Uiso   1.00
H38    H     0.95510   0.29370   0.34070   0.01267  Uiso   1.00
H39    H     0.60500   0.73260   0.14430   0.01267  Uiso   1.00
H40    H     0.13680   0.55200   0.13090   0.01267  Uiso   1.00
H41    H     0.10900   0.29820   0.19430   0.01267  Uiso   1.00
H42    H     0.09480   0.71240   0.13870   0.01267  Uiso   1.00
H43    H     0.90380   0.31500   0.15390   0.01267  Uiso   1.00
H44    H     0.03660   0.70500   0.32560   0.01267  Uiso   1.00
H45    H     0.93370   0.44870   0.33570   0.01267  Uiso   1.00
H46    H     0.21930   0.16410   0.14480   0.01267  Uiso   1.00
H47    H     0.71320   0.60140   0.20490   0.01267  Uiso   1.00
H48    H     0.29330   0.40510   0.17150   0.01267  Uiso   1.00
H49    H     0.28450   0.10590   0.31370   0.01267  Uiso   1.00
H50    H     0.45500   0.93520   0.17890   0.01267  Uiso   1.00
H51    H     0.52960   0.12120   0.34940   0.01267  Uiso   1.00
H52    H     0.72680   0.60380   0.38530   0.01267  Uiso   1.00
H53    H     0.15130   0.22790   0.36890   0.01267  Uiso   1.00
H54    H     0.70630   0.04490   0.15930   0.01267  Uiso   1.00
H55    H     0.26740   0.39500   0.35570   0.01267  Uiso   1.00
H56    H     0.44800   0.86320   0.36910   0.01267  Uiso   1.00
H57    H     0.70180   0.89100   0.30570   0.01267  Uiso   1.00
H58    H     0.28760   0.90520   0.36130   0.01267  Uiso   1.00
H59    H     0.68500   0.09620   0.34610   0.01267  Uiso   1.00
H60    H     0.29500   0.96340   0.17440   0.01267  Uiso   1.00
H61    H     0.55130   0.06630   0.16430   0.01267  Uiso   1.00
H62    H     0.83590   0.78070   0.35520   0.01267  Uiso   1.00
H63    H     0.39860   0.28680   0.29510   0.01267  Uiso   1.00
H64    H     0.59490   0.70670   0.32850   0.01267  Uiso   1.00
C1     C     0.89410   0.46790   0.77160   0.01267  Uiso   1.00
C2     C     0.06450   0.71970   0.75080   0.01267  Uiso   1.00
C3     C     0.16420   0.28160   0.82180   0.01267  Uiso   1.00
C4     C     0.93270   0.27890   0.76940   0.01267  Uiso   1.00
C5     C     0.92580   0.42260   0.71540   0.01267  Uiso   1.00
C6     C     0.10840   0.56540   0.81060   0.01267  Uiso   1.00
C7     C     0.66250   0.72130   0.86880   0.01267  Uiso   1.00
C8     C     0.23770   0.20390   0.85690   0.01267  Uiso   1.00
C9     C     0.06000   0.67120   0.69830   0.01267  Uiso   1.00
C10    C     0.33590   0.27170   0.84800   0.01267  Uiso   1.00
C11    C     0.88400   0.41800   0.83030   0.01267  Uiso   1.00
C12    C     0.83210   0.70650   0.82120   0.01267  Uiso   1.00
C13    C     0.90730   0.32330   0.82440   0.01267  Uiso   1.00
C14    C     0.09090   0.65970   0.80910   0.01267  Uiso   1.00
C15    C     0.68230   0.79230   0.87920   0.01267  Uiso   1.00
C16    C     0.94420   0.32640   0.71270   0.01267  Uiso   1.00
C17    C     0.10770   0.52230   0.75680   0.01267  Uiso   1.00
C18    C     0.81350   0.63250   0.81180   0.01267  Uiso   1.00
C19    C     0.31760   0.19800   0.87430   0.01267  Uiso   1.00
C20    C     0.04570   0.81830   0.74220   0.01267  Uiso   1.00
C21    C     0.07610   0.57690   0.69950   0.01267  Uiso   1.00
C22    C     0.18890   0.35610   0.79960   0.01267  Uiso   1.00
C23    C     0.38780   0.11840   0.91700   0.01267  Uiso   1.00
C24    C     0.76770   0.78510   0.85210   0.01267  Uiso   1.00
C25    C     0.27180   0.35080   0.81110   0.01267  Uiso   1.00
C26    C     0.72370   0.64190   0.83550   0.01267  Uiso   1.00
C27    C     0.61440   0.87320   0.92310   0.01267  Uiso   1.00
C28    C     0.95730   0.17670   0.77130   0.01267  Uiso   1.00
C29    C     0.53210   0.10590   0.72840   0.01267  Uiso   1.00
C30    C     0.28030   0.93550   0.74920   0.01267  Uiso   1.00
C31    C     0.71840   0.83580   0.67820   0.01267  Uiso   1.00
C32    C     0.72110   0.06730   0.73060   0.01267  Uiso   1.00
C33    C     0.57740   0.07420   0.78460   0.01267  Uiso   1.00
C34    C     0.43460   0.89160   0.68940   0.01267  Uiso   1.00
C35    C     0.27870   0.33750   0.63120   0.01267  Uiso   1.00
C36    C     0.79610   0.76230   0.64310   0.01267  Uiso   1.00
C37    C     0.32880   0.94000   0.80170   0.01267  Uiso   1.00
C38    C     0.72830   0.66410   0.65200   0.01267  Uiso   1.00
C39    C     0.58200   0.11600   0.66970   0.01267  Uiso   1.00
C40    C     0.29350   0.16790   0.67880   0.01267  Uiso   1.00
C41    C     0.67670   0.09270   0.67560   0.01267  Uiso   1.00
C42    C     0.34030   0.90910   0.69090   0.01267  Uiso   1.00
C43    C     0.20770   0.31770   0.62080   0.01267  Uiso   1.00
C44    C     0.67360   0.05580   0.78730   0.01267  Uiso   1.00
C45    C     0.47770   0.89230   0.74320   0.01267  Uiso   1.00
C46    C     0.36750   0.18650   0.68820   0.01267  Uiso   1.00
C47    C     0.80200   0.68240   0.62570   0.01267  Uiso   1.00
C48    C     0.18170   0.95430   0.75780   0.01267  Uiso   1.00
C49    C     0.42310   0.92390   0.80050   0.01267  Uiso   1.00
C50    C     0.64390   0.81110   0.70040   0.01267  Uiso   1.00
C51    C     0.88160   0.61220   0.58300   0.01267  Uiso   1.00
C52    C     0.21490   0.23230   0.64790   0.01267  Uiso   1.00
C53    C     0.64920   0.72820   0.68890   0.01267  Uiso   1.00
C54    C     0.35810   0.27630   0.66450   0.01267  Uiso   1.00
C55    C     0.12680   0.38560   0.57690   0.01267  Uiso   1.00
C56    C     0.82330   0.04270   0.72870   0.01267  Uiso   1.00
C57    C     0.10590   0.53210   0.22840   0.01267  Uiso   1.00
C58    C     0.93550   0.28030   0.24920   0.01267  Uiso   1.00
C59    C     0.83580   0.71840   0.17820   0.01267  Uiso   1.00
C60    C     0.06730   0.72110   0.23060   0.01267  Uiso   1.00
C61    C     0.07420   0.57740   0.28460   0.01267  Uiso   1.00
C62    C     0.89160   0.43460   0.18940   0.01267  Uiso   1.00
C63    C     0.33750   0.27870   0.13120   0.01267  Uiso   1.00
C64    C     0.76230   0.79610   0.14310   0.01267  Uiso   1.00
C65    C     0.94000   0.32880   0.30170   0.01267  Uiso   1.00
C66    C     0.66410   0.72830   0.15200   0.01267  Uiso   1.00
C67    C     0.11600   0.58200   0.16970   0.01267  Uiso   1.00
C68    C     0.16790   0.29350   0.17880   0.01267  Uiso   1.00
C69    C     0.09270   0.67670   0.17560   0.01267  Uiso   1.00
C70    C     0.90910   0.34030   0.19090   0.01267  Uiso   1.00
C71    C     0.31770   0.20770   0.12080   0.01267  Uiso   1.00
C72    C     0.05580   0.67360   0.28730   0.01267  Uiso   1.00
C73    C     0.89230   0.47770   0.24320   0.01267  Uiso   1.00
C74    C     0.18650   0.36750   0.18820   0.01267  Uiso   1.00
C75    C     0.68240   0.80200   0.12570   0.01267  Uiso   1.00
C76    C     0.95430   0.18170   0.25780   0.01267  Uiso   1.00
C77    C     0.92390   0.42310   0.30050   0.01267  Uiso   1.00
C78    C     0.81110   0.64390   0.20040   0.01267  Uiso   1.00
C79    C     0.61220   0.88160   0.08300   0.01267  Uiso   1.00
C80    C     0.23230   0.21490   0.14790   0.01267  Uiso   1.00
C81    C     0.72820   0.64920   0.18890   0.01267  Uiso   1.00
C82    C     0.27630   0.35810   0.16450   0.01267  Uiso   1.00
C83    C     0.38560   0.12680   0.07690   0.01267  Uiso   1.00
C84    C     0.04270   0.82330   0.22870   0.01267  Uiso   1.00
C85    C     0.46790   0.89410   0.27160   0.01267  Uiso   1.00
C86    C     0.71970   0.06450   0.25080   0.01267  Uiso   1.00
C87    C     0.28160   0.16420   0.32180   0.01267  Uiso   1.00
C88    C     0.27890   0.93270   0.26940   0.01267  Uiso   1.00
C89    C     0.42260   0.92580   0.21540   0.01267  Uiso   1.00
C90    C     0.56540   0.10840   0.31060   0.01267  Uiso   1.00
C91    C     0.72130   0.66250   0.36880   0.01267  Uiso   1.00
C92    C     0.20390   0.23770   0.35690   0.01267  Uiso   1.00
C93    C     0.67120   0.06000   0.19830   0.01267  Uiso   1.00
C94    C     0.27170   0.33590   0.34800   0.01267  Uiso   1.00
C95    C     0.41800   0.88400   0.33030   0.01267  Uiso   1.00
C96    C     0.70650   0.83210   0.32120   0.01267  Uiso   1.00
C97    C     0.32330   0.90730   0.32440   0.01267  Uiso   1.00
C98    C     0.65970   0.09090   0.30910   0.01267  Uiso   1.00
C99    C     0.79230   0.68230   0.37920   0.01267  Uiso   1.00
C100   C     0.32640   0.94420   0.21270   0.01267  Uiso   1.00
C101   C     0.52230   0.10770   0.25680   0.01267  Uiso   1.00
C102   C     0.63250   0.81350   0.31180   0.01267  Uiso   1.00
C103   C     0.19800   0.31760   0.37430   0.01267  Uiso   1.00
C104   C     0.81830   0.04570   0.24220   0.01267  Uiso   1.00
C105   C     0.57690   0.07610   0.19950   0.01267  Uiso   1.00
C106   C     0.35610   0.18890   0.29960   0.01267  Uiso   1.00
C107   C     0.11840   0.38780   0.41700   0.01267  Uiso   1.00
C108   C     0.78510   0.76770   0.35210   0.01267  Uiso   1.00
C109   C     0.35080   0.27180   0.31110   0.01267  Uiso   1.00
C110   C     0.64190   0.72370   0.33550   0.01267  Uiso   1.00
C111   C     0.87320   0.61440   0.42310   0.01267  Uiso   1.00
C112   C     0.17670   0.95730   0.27130   0.01267  Uiso   1.00
O1     O     0.53650   0.87030   0.93990   0.01267  Uiso   1.00
O2     O     0.35750   0.05830   0.93800   0.01267  Uiso   1.00
O3     O     0.63430   0.93070   0.93150   0.01267  Uiso   1.00
O4     O     0.45680   0.11860   0.93050   0.01267  Uiso   1.00
O5     O     0.88250   0.55750   0.77260   0.01267  Uiso   1.00
O6     O     0.12040   0.43020   0.76170   0.01267  Uiso   1.00
O7     O     0.03110   0.86430   0.69190   0.01267  Uiso   1.00
O8     O     0.04560   0.85720   0.79940   0.01267  Uiso   1.00
O9     O     0.94890   0.13250   0.81840   0.01267  Uiso   1.00
O10    O     0.97880   0.13620   0.71360   0.01267  Uiso   1.00
O11    O     0.12970   0.46350   0.56010   0.01267  Uiso   1.00
O12    O     0.94170   0.64250   0.56200   0.01267  Uiso   1.00
O13    O     0.06930   0.36570   0.56850   0.01267  Uiso   1.00
O14    O     0.88140   0.54320   0.56950   0.01267  Uiso   1.00
O15    O     0.44250   0.11750   0.72740   0.01267  Uiso   1.00
O16    O     0.56980   0.87960   0.73830   0.01267  Uiso   1.00
O17    O     0.13570   0.96890   0.80810   0.01267  Uiso   1.00
O18    O     0.14280   0.95440   0.70060   0.01267  Uiso   1.00
O19    O     0.86750   0.05110   0.68160   0.01267  Uiso   1.00
O20    O     0.86380   0.02120   0.78640   0.01267  Uiso   1.00
O21    O     0.46350   0.12970   0.06010   0.01267  Uiso   1.00
O22    O     0.64250   0.94170   0.06200   0.01267  Uiso   1.00
O23    O     0.36570   0.06930   0.06850   0.01267  Uiso   1.00
O24    O     0.54320   0.88140   0.06950   0.01267  Uiso   1.00
O25    O     0.11750   0.44250   0.22740   0.01267  Uiso   1.00
O26    O     0.87960   0.56980   0.23830   0.01267  Uiso   1.00
O27    O     0.96890   0.13570   0.30810   0.01267  Uiso   1.00
O28    O     0.95440   0.14280   0.20060   0.01267  Uiso   1.00
O29    O     0.05110   0.86750   0.18160   0.01267  Uiso   1.00
O30    O     0.02120   0.86380   0.28640   0.01267  Uiso   1.00
O31    O     0.87030   0.53650   0.43990   0.01267  Uiso   1.00
O32    O     0.05830   0.35750   0.43800   0.01267  Uiso   1.00
O33    O     0.93070   0.63430   0.43150   0.01267  Uiso   1.00
O34    O     0.11860   0.45680   0.43050   0.01267  Uiso   1.00
O35    O     0.55750   0.88250   0.27260   0.01267  Uiso   1.00
O36    O     0.43020   0.12040   0.26170   0.01267  Uiso   1.00
O37    O     0.86430   0.03110   0.19190   0.01267  Uiso   1.00
O38    O     0.85720   0.04560   0.29940   0.01267  Uiso   1.00
O39    O     0.13250   0.94890   0.31840   0.01267  Uiso   1.00
O40    O     0.13620   0.97880   0.21360   0.01267  Uiso   1.00
