data_HEFDIH_clean
_audit_creation_date              2014-07-02
_audit_creation_method            'Materials Studio'
_symmetry_space_group_name_H-M    'P1'
_symmetry_Int_Tables_number       1
_symmetry_cell_setting            triclinic
loop_
_symmetry_equiv_pos_as_xyz
  x,y,z
_cell_length_a                    12.7630
_cell_length_b                    17.7075
_cell_length_c                    17.7075
_cell_angle_alpha                 65.5804
_cell_angle_beta                  76.0984
_cell_angle_gamma                 103.9020
loop_
_atom_site_label
_atom_site_type_symbol
_atom_site_fract_x
_atom_site_fract_y
_atom_site_fract_z
_atom_site_U_iso_or_equiv
_atom_site_adp_type
_atom_site_occupancy
Mn1    Mn    0.86427   0.30059   0.16879   0.01267  Uiso   1.00
Mn2    Mn    0.53870   0.75149   0.82913   0.01267  Uiso   1.00
Mn3    Mn    0.03306   0.16879   0.53062   0.01267  Uiso   1.00
Mn4    Mn    0.36783   0.82913   0.41938   0.01267  Uiso   1.00
Mn5    Mn    0.56368   0.53062   0.30059   0.01267  Uiso   1.00
Mn6    Mn    0.78721   0.41938   0.75149   0.01267  Uiso   1.00
Mo1    Mo    0.71820   0.53319   0.99543   0.01267  Uiso   1.00
Mo2    Mo    0.71363   0.99543   0.47138   0.01267  Uiso   1.00
Mo3    Mo    0.18501   0.47138   0.53319   0.01267  Uiso   1.00
H1     H     0.53640   0.14360   0.23800   0.01267  Uiso   1.00
H2     H     0.60670   0.24160   0.15570   0.01267  Uiso   1.00
H3     H     0.52870   0.24680   0.28840   0.01267  Uiso   1.00
H4     H     0.59840   0.19170   0.33230   0.01267  Uiso   1.00
H5     H     0.73480   0.29980   0.34350   0.01267  Uiso   1.00
H6     H     0.66170   0.36000   0.32150   0.01267  Uiso   1.00
H7     H     0.75340   0.82190   0.88430   0.01267  Uiso   1.00
H8     H     0.81370   0.92590   0.81610   0.01267  Uiso   1.00
H9     H     0.05540   0.53440   0.91690   0.01267  Uiso   1.00
H10    H     0.27040   0.52830   0.08030   0.01267  Uiso   1.00
H11    H     0.82050   0.74760   0.68220   0.01267  Uiso   1.00
H12    H     0.74070   0.79820   0.64970   0.01267  Uiso   1.00
H13    H     0.82440   0.48090   0.20480   0.01267  Uiso   1.00
H14    H     0.86000   0.44460   0.28820   0.01267  Uiso   1.00
H15    H     0.37930   0.46310   0.02320   0.01267  Uiso   1.00
H16    H     0.02920   0.58260   0.15050   0.01267  Uiso   1.00
H17    H     0.15710   0.58730   0.11590   0.01267  Uiso   1.00
H18    H     0.08170   0.53520   0.21950   0.01267  Uiso   1.00
H19    H     0.65010   0.65620   0.67600   0.01267  Uiso   1.00
H20    H     0.66530   0.61140   0.76800   0.01267  Uiso   1.00
H21    H     0.81150   0.89930   0.69740   0.01267  Uiso   1.00
H22    H     0.88190   0.85030   0.74770   0.01267  Uiso   1.00
H23    H     0.84920   0.09600   0.16790   0.01267  Uiso   1.00
H24    H     0.88890   0.14460   0.06260   0.01267  Uiso   1.00
H25    H     0.28410   0.33220   0.02610   0.01267  Uiso   1.00
H26    H     0.05360   0.12660   0.09350   0.01267  Uiso   1.00
H27    H     0.17270   0.19000   0.08220   0.01267  Uiso   1.00
H28    H     0.13710   0.21030   0.99930   0.01267  Uiso   1.00
H29    H     0.09050   0.64810   0.95050   0.01267  Uiso   1.00
H30    H     0.41270   0.52470   0.73860   0.01267  Uiso   1.00
H31    H     0.36680   0.46380   0.84330   0.01267  Uiso   1.00
H32    H     0.50110   0.50510   0.78470   0.01267  Uiso   1.00
H33    H     0.62460   0.92510   0.91400   0.01267  Uiso   1.00
H34    H     0.58030   0.82000   0.96640   0.01267  Uiso   1.00
H35    H     0.20860   0.50540   0.85220   0.01267  Uiso   1.00
H36    H     0.22260   0.79780   0.00480   0.01267  Uiso   1.00
H37    H     0.14080   0.75570   0.96720   0.01267  Uiso   1.00
H38    H     0.23500   0.85390   0.90550   0.01267  Uiso   1.00
H39    H     0.75490   0.21310   0.06840   0.01267  Uiso   1.00
H40    H     0.68630   0.10910   0.13420   0.01267  Uiso   1.00
H41    H     0.41520   0.85210   0.98020   0.01267  Uiso   1.00
H42    H     0.46330   0.91990   0.87610   0.01267  Uiso   1.00
H43    H     0.77440   0.23800   0.61840   0.01267  Uiso   1.00
H44    H     0.76240   0.15570   0.60270   0.01267  Uiso   1.00
H45    H     0.81710   0.28840   0.46480   0.01267  Uiso   1.00
H46    H     0.93070   0.33230   0.47600   0.01267  Uiso   1.00
H47    H     0.07830   0.34350   0.35670   0.01267  Uiso   1.00
H48    H     0.98320   0.32150   0.31850   0.01267  Uiso   1.00
H49    H     0.63770   0.88430   0.29380   0.01267  Uiso   1.00
H50    H     0.62980   0.81610   0.25800   0.01267  Uiso   1.00
H51    H     0.97230   0.91690   0.54870   0.01267  Uiso   1.00
H52    H     0.35070   0.08030   0.39140   0.01267  Uiso   1.00
H53    H     0.50270   0.68220   0.57020   0.01267  Uiso   1.00
H54    H     0.39040   0.64970   0.55210   0.01267  Uiso   1.00
H55    H     0.02920   0.20480   0.31430   0.01267  Uiso   1.00
H56    H     0.14820   0.28820   0.26720   0.01267  Uiso   1.00
H57    H     0.40250   0.02320   0.51370   0.01267  Uiso   1.00
H58    H     0.17970   0.15050   0.26690   0.01267  Uiso   1.00
H59    H     0.27300   0.11590   0.29680   0.01267  Uiso   1.00
H60    H     0.30120   0.21950   0.24530   0.01267  Uiso   1.00
H61    H     0.32610   0.67600   0.66780   0.01267  Uiso   1.00
H62    H     0.43330   0.76800   0.62060   0.01267  Uiso   1.00
H63    H     0.50890   0.69740   0.40330   0.01267  Uiso   1.00
H64    H     0.62960   0.74770   0.40200   0.01267  Uiso   1.00
H65    H     0.01710   0.16790   0.73610   0.01267  Uiso   1.00
H66    H     0.95150   0.06260   0.79280   0.01267  Uiso   1.00
H67    H     0.31020   0.02610   0.64170   0.01267  Uiso   1.00
H68    H     0.14710   0.09350   0.77990   0.01267  Uiso   1.00
H69    H     0.25490   0.08220   0.72780   0.01267  Uiso   1.00
H70    H     0.13640   0.99930   0.79040   0.01267  Uiso   1.00
H71    H     0.04100   0.95050   0.40140   0.01267  Uiso   1.00
H72    H     0.15130   0.73860   0.73670   0.01267  Uiso   1.00
H73    H     0.21010   0.84330   0.69290   0.01267  Uiso   1.00
H74    H     0.28580   0.78470   0.71020   0.01267  Uiso   1.00
H75    H     0.53860   0.91400   0.16090   0.01267  Uiso   1.00
H76    H     0.54670   0.96640   0.21360   0.01267  Uiso   1.00
H77    H     0.06080   0.85220   0.64240   0.01267  Uiso   1.00
H78    H     0.22740   0.00480   0.19740   0.01267  Uiso   1.00
H79    H     0.10800   0.96720   0.27710   0.01267  Uiso   1.00
H80    H     0.14050   0.90550   0.24060   0.01267  Uiso   1.00
H81    H     0.82330   0.06840   0.71850   0.01267  Uiso   1.00
H82    H     0.82050   0.13420   0.75670   0.01267  Uiso   1.00
H83    H     0.39540   0.98020   0.16770   0.01267  Uiso   1.00
H84    H     0.33940   0.87610   0.20400   0.01267  Uiso   1.00
H85    H     0.39280   0.61840   0.14360   0.01267  Uiso   1.00
H86    H     0.36510   0.60270   0.24160   0.01267  Uiso   1.00
H87    H     0.28190   0.46480   0.24680   0.01267  Uiso   1.00
H88    H     0.40670   0.47600   0.19170   0.01267  Uiso   1.00
H89    H     0.43500   0.35670   0.29980   0.01267  Uiso   1.00
H90    H     0.30170   0.31850   0.36000   0.01267  Uiso   1.00
H91    H     0.93150   0.29380   0.82190   0.01267  Uiso   1.00
H92    H     0.88780   0.25800   0.92590   0.01267  Uiso   1.00
H93    H     0.52100   0.54870   0.53440   0.01267  Uiso   1.00
H94    H     0.74210   0.39140   0.52830   0.01267  Uiso   1.00
H95    H     0.07290   0.57020   0.74760   0.01267  Uiso   1.00
H96    H     0.94250   0.55210   0.79820   0.01267  Uiso   1.00
H97    H     0.34350   0.31430   0.48090   0.01267  Uiso   1.00
H98    H     0.41540   0.26720   0.44460   0.01267  Uiso   1.00
H99    H     0.91620   0.51370   0.46310   0.01267  Uiso   1.00
H100   H     0.44660   0.26690   0.58260   0.01267  Uiso   1.00
H101   H     0.56980   0.29680   0.58730   0.01267  Uiso   1.00
H102   H     0.54650   0.24530   0.53520   0.01267  Uiso   1.00
H103   H     0.99390   0.66780   0.65620   0.01267  Uiso   1.00
H104   H     0.05390   0.62060   0.61140   0.01267  Uiso   1.00
H105   H     0.91220   0.40330   0.89930   0.01267  Uiso   1.00
H106   H     0.03160   0.40200   0.85030   0.01267  Uiso   1.00
H107   H     0.75320   0.73610   0.09600   0.01267  Uiso   1.00
H108   H     0.74430   0.79280   0.14460   0.01267  Uiso   1.00
H109   H     0.95190   0.64170   0.33220   0.01267  Uiso   1.00
H110   H     0.92700   0.77990   0.12660   0.01267  Uiso   1.00
H111   H     0.98270   0.72780   0.19000   0.01267  Uiso   1.00
H112   H     0.92680   0.79040   0.21030   0.01267  Uiso   1.00
H113   H     0.44240   0.40140   0.64810   0.01267  Uiso   1.00
H114   H     0.88800   0.73670   0.52470   0.01267  Uiso   1.00
H115   H     0.90300   0.69290   0.46380   0.01267  Uiso   1.00
H116   H     0.99600   0.71020   0.50510   0.01267  Uiso   1.00
H117   H     0.69950   0.16090   0.92510   0.01267  Uiso   1.00
H118   H     0.76030   0.21360   0.82000   0.01267  Uiso   1.00
H119   H     0.70320   0.64240   0.50540   0.01267  Uiso   1.00
H120   H     0.42480   0.19740   0.79780   0.01267  Uiso   1.00
H121   H     0.38510   0.27710   0.75570   0.01267  Uiso   1.00
H122   H     0.38110   0.24060   0.85390   0.01267  Uiso   1.00
H123   H     0.54180   0.71850   0.21310   0.01267  Uiso   1.00
H124   H     0.57720   0.75670   0.10910   0.01267  Uiso   1.00
H125   H     0.56310   0.16770   0.85210   0.01267  Uiso   1.00
H126   H     0.54340   0.20400   0.91990   0.01267  Uiso   1.00
C1     C     0.60520   0.19800   0.21200   0.01267  Uiso   1.00
C2     C     0.33440   0.60440   0.84590   0.01267  Uiso   1.00
C3     C     0.59950   0.23500   0.27600   0.01267  Uiso   1.00
C4     C     0.04950   0.24350   0.08410   0.01267  Uiso   1.00
C5     C     0.03450   0.46670   0.15790   0.01267  Uiso   1.00
C6     C     0.81390   0.44940   0.02360   0.01267  Uiso   1.00
C7     C     0.12250   0.32480   0.08110   0.01267  Uiso   1.00
C8     C     0.60530   0.60560   0.97250   0.01267  Uiso   1.00
C9     C     0.72630   0.34720   0.29520   0.01267  Uiso   1.00
C10    C     0.66020   0.50480   0.13000   0.01267  Uiso   1.00
C11    C     0.85120   0.63630   0.86790   0.01267  Uiso   1.00
C12    C     0.75970   0.86930   0.82820   0.01267  Uiso   1.00
C13    C     0.30510   0.75930   0.92250   0.01267  Uiso   1.00
C14    C     0.13160   0.56880   0.90420   0.01267  Uiso   1.00
C15    C     0.23360   0.47570   0.08110   0.01267  Uiso   1.00
C16    C     0.74390   0.75000   0.70050   0.01267  Uiso   1.00
C17    C     0.26700   0.68610   0.90420   0.01267  Uiso   1.00
C18    C     0.83690   0.43040   0.24580   0.01267  Uiso   1.00
C19    C     0.29810   0.43720   0.04680   0.01267  Uiso   1.00
C20    C     0.07970   0.55040   0.16120   0.01267  Uiso   1.00
C21    C     0.64990   0.66110   0.72860   0.01267  Uiso   1.00
C22    C     0.80490   0.85170   0.75360   0.01267  Uiso   1.00
C23    C     0.86000   0.15010   0.11520   0.01267  Uiso   1.00
C24    C     0.24170   0.35990   0.04780   0.01267  Uiso   1.00
C25    C     0.10850   0.18770   0.06280   0.01267  Uiso   1.00
C26    C     0.15200   0.63610   0.92410   0.01267  Uiso   1.00
C27    C     0.42970   0.51530   0.79100   0.01267  Uiso   1.00
C28    C     0.44260   0.59550   0.80100   0.01267  Uiso   1.00
C29    C     0.83780   0.62520   0.01430   0.01267  Uiso   1.00
C30    C     0.58410   0.87110   0.91430   0.01267  Uiso   1.00
C31    C     0.11320   0.43530   0.11660   0.01267  Uiso   1.00
C32    C     0.56370   0.41070   0.07100   0.01267  Uiso   1.00
C33    C     0.22230   0.55180   0.86530   0.01267  Uiso   1.00
C34    C     0.21810   0.79490   0.95270   0.01267  Uiso   1.00
C35    C     0.74540   0.16250   0.12370   0.01267  Uiso   1.00
C36    C     0.46170   0.86430   0.92130   0.01267  Uiso   1.00
C37    C     0.70130   0.48520   0.90280   0.01267  Uiso   1.00
C38    C     0.81720   0.21200   0.59000   0.01267  Uiso   1.00
C39    C     0.18030   0.84590   0.54970   0.01267  Uiso   1.00
C40    C     0.87550   0.27600   0.48900   0.01267  Uiso   1.00
C41    C     0.13360   0.08410   0.67240   0.01267  Uiso   1.00
C42    C     0.19240   0.15790   0.37540   0.01267  Uiso   1.00
C43    C     0.83750   0.02360   0.52700   0.01267  Uiso   1.00
C44    C     0.20360   0.08110   0.59410   0.01267  Uiso   1.00
C45    C     0.57780   0.97250   0.42190   0.01267  Uiso   1.00
C46    C     0.02150   0.29520   0.35760   0.01267  Uiso   1.00
C47    C     0.79020   0.13000   0.36520   0.01267  Uiso   1.00
C48    C     0.71910   0.86790   0.49580   0.01267  Uiso   1.00
C49    C     0.58790   0.82820   0.30250   0.01267  Uiso   1.00
C50    C     0.22760   0.92250   0.31820   0.01267  Uiso   1.00
C51    C     0.03580   0.90420   0.52700   0.01267  Uiso   1.00
C52    C     0.31470   0.08110   0.44320   0.01267  Uiso   1.00
C53    C     0.44440   0.70050   0.54950   0.01267  Uiso   1.00
C54    C     0.17120   0.90420   0.40970   0.01267  Uiso   1.00
C55    C     0.08270   0.24580   0.32380   0.01267  Uiso   1.00
C56    C     0.34490   0.04680   0.51600   0.01267  Uiso   1.00
C57    C     0.24090   0.16120   0.28840   0.01267  Uiso   1.00
C58    C     0.37850   0.72860   0.61030   0.01267  Uiso   1.00
C59    C     0.55850   0.75360   0.39470   0.01267  Uiso   1.00
C60    C     0.97520   0.11520   0.73470   0.01267  Uiso   1.00
C61    C     0.28950   0.04780   0.59230   0.01267  Uiso   1.00
C62    C     0.17130   0.06280   0.74950   0.01267  Uiso   1.00
C63    C     0.07610   0.92410   0.43980   0.01267  Uiso   1.00
C64    C     0.22070   0.79100   0.69370   0.01267  Uiso   1.00
C65    C     0.24360   0.80100   0.60350   0.01267  Uiso   1.00
C66    C     0.85210   0.01430   0.36050   0.01267  Uiso   1.00
C67    C     0.49840   0.91430   0.21460   0.01267  Uiso   1.00
C68    C     0.22980   0.11660   0.44810   0.01267  Uiso   1.00
C69    C     0.63470   0.07100   0.51830   0.01267  Uiso   1.00
C70    C     0.08760   0.86530   0.58290   0.01267  Uiso   1.00
C71    C     0.17080   0.95270   0.25240   0.01267  Uiso   1.00
C72    C     0.86910   0.12370   0.71380   0.01267  Uiso   1.00
C73    C     0.38300   0.92130   0.21440   0.01267  Uiso   1.00
C74    C     0.60410   0.90280   0.61200   0.01267  Uiso   1.00
C75    C     0.40720   0.59000   0.19800   0.01267  Uiso   1.00
C76    C     0.73000   0.54970   0.60440   0.01267  Uiso   1.00
C77    C     0.36450   0.48900   0.23500   0.01267  Uiso   1.00
C78    C     0.80600   0.67240   0.24350   0.01267  Uiso   1.00
C79    C     0.56780   0.37540   0.46670   0.01267  Uiso   1.00
C80    C     0.36450   0.52700   0.44940   0.01267  Uiso   1.00
C81    C     0.79770   0.59410   0.32480   0.01267  Uiso   1.00
C82    C     0.99970   0.42190   0.60560   0.01267  Uiso   1.00
C83    C     0.37910   0.35760   0.34720   0.01267  Uiso   1.00
C84    C     0.15540   0.36520   0.50480   0.01267  Uiso   1.00
C85    C     0.21490   0.49580   0.63630   0.01267  Uiso   1.00
C86    C     0.89040   0.30250   0.86930   0.01267  Uiso   1.00
C87    C     0.54580   0.31820   0.75930   0.01267  Uiso   1.00
C88    C     0.56280   0.52700   0.56880   0.01267  Uiso   1.00
C89    C     0.75790   0.44320   0.47570   0.01267  Uiso   1.00
C90    C     0.99390   0.54950   0.75000   0.01267  Uiso   1.00
C91    C     0.58090   0.40970   0.68610   0.01267  Uiso   1.00
C92    C     0.40650   0.32380   0.43040   0.01267  Uiso   1.00
C93    C     0.86090   0.51600   0.43720   0.01267  Uiso   1.00
C94    C     0.52930   0.28840   0.55040   0.01267  Uiso   1.00
C95    C     0.98880   0.61030   0.66110   0.01267  Uiso   1.00
C96    C     0.95320   0.39470   0.85170   0.01267  Uiso   1.00
C97    C     0.70990   0.73470   0.15010   0.01267  Uiso   1.00
C98    C     0.88180   0.59230   0.35990   0.01267  Uiso   1.00
C99    C     0.92080   0.74950   0.18770   0.01267  Uiso   1.00
C100   C     0.51590   0.43980   0.63610   0.01267  Uiso   1.00
C101   C     0.91440   0.69370   0.51530   0.01267  Uiso   1.00
C102   C     0.84710   0.60350   0.59550   0.01267  Uiso   1.00
C103   C     0.21260   0.36050   0.62520   0.01267  Uiso   1.00
C104   C     0.71300   0.21460   0.87110   0.01267  Uiso   1.00
C105   C     0.67790   0.44810   0.43530   0.01267  Uiso   1.00
C106   C     0.15300   0.51830   0.41070   0.01267  Uiso   1.00
C107   C     0.67050   0.58290   0.55180   0.01267  Uiso   1.00
C108   C     0.42320   0.25240   0.79490   0.01267  Uiso   1.00
C109   C     0.58290   0.71380   0.16250   0.01267  Uiso   1.00
C110   C     0.59740   0.21440   0.86430   0.01267  Uiso   1.00
C111   C     0.21610   0.61200   0.48520   0.01267  Uiso   1.00
N1     N     0.70890   0.17830   0.19650   0.01267  Uiso   1.00
N2     N     0.35410   0.66860   0.86510   0.01267  Uiso   1.00
N3     N     0.92620   0.41300   0.19720   0.01267  Uiso   1.00
N4     N     0.92260   0.69470   0.80120   0.01267  Uiso   1.00
N5     N     0.06180   0.36230   0.11470   0.01267  Uiso   1.00
N6     N     0.85730   0.39910   0.04320   0.01267  Uiso   1.00
N7     N     0.94190   0.22770   0.10700   0.01267  Uiso   1.00
N8     N     0.54770   0.64740   0.95820   0.01267  Uiso   1.00
N9     N     0.53560   0.65800   0.77560   0.01267  Uiso   1.00
N10    N     0.70130   0.31740   0.23450   0.01267  Uiso   1.00
N11    N     0.64800   0.87340   0.83500   0.01267  Uiso   1.00
N12    N     0.72640   0.76710   0.77280   0.01267  Uiso   1.00
N13    N     0.48280   0.34560   0.11210   0.01267  Uiso   1.00
N14    N     0.41370   0.79120   0.90700   0.01267  Uiso   1.00
N15    N     0.90170   0.67190   0.02620   0.01267  Uiso   1.00
N16    N     0.63210   0.49170   0.20120   0.01267  Uiso   1.00
N17    N     0.70030   0.45370   0.85720   0.01267  Uiso   1.00
N18    N     0.90540   0.19650   0.62520   0.01267  Uiso   1.00
N19    N     0.21920   0.86510   0.46630   0.01267  Uiso   1.00
N20    N     0.12340   0.19720   0.38980   0.01267  Uiso   1.00
N21    N     0.72380   0.80120   0.50410   0.01267  Uiso   1.00
N22    N     0.17650   0.11470   0.52300   0.01267  Uiso   1.00
N23    N     0.90050   0.04320   0.55770   0.01267  Uiso   1.00
N24    N     0.04890   0.10700   0.66530   0.01267  Uiso   1.00
N25    N     0.50590   0.95820   0.39440   0.01267  Uiso   1.00
N26    N     0.31120   0.77560   0.56640   0.01267  Uiso   1.00
N27    N     0.93580   0.23450   0.44810   0.01267  Uiso   1.00
N28    N     0.48300   0.83500   0.29160   0.01267  Uiso   1.00
N29    N     0.49920   0.77280   0.46010   0.01267  Uiso   1.00
N30    N     0.59490   0.11210   0.54230   0.01267  Uiso   1.00
N31    N     0.32070   0.90700   0.30180   0.01267  Uiso   1.00
N32    N     0.92790   0.02620   0.30190   0.01267  Uiso   1.00
N33    N     0.83330   0.20120   0.30710   0.01267  Uiso   1.00
N34    N     0.55750   0.85720   0.68910   0.01267  Uiso   1.00
N35    N     0.53060   0.62520   0.17830   0.01267  Uiso   1.00
N36    N     0.68550   0.46630   0.66860   0.01267  Uiso   1.00
N37    N     0.51320   0.38980   0.41300   0.01267  Uiso   1.00
N38    N     0.22790   0.50410   0.69470   0.01267  Uiso   1.00
N39    N     0.69950   0.52300   0.36230   0.01267  Uiso   1.00
N40    N     0.45820   0.55770   0.39910   0.01267  Uiso   1.00
N41    N     0.71420   0.66530   0.22770   0.01267  Uiso   1.00
N42    N     0.90030   0.39440   0.64740   0.01267  Uiso   1.00
N43    N     0.87760   0.56640   0.65800   0.01267  Uiso   1.00
N44    N     0.38390   0.44810   0.31740   0.01267  Uiso   1.00
N45    N     0.77460   0.29160   0.87340   0.01267  Uiso   1.00
N46    N     0.95930   0.46010   0.76710   0.01267  Uiso   1.00
N47    N     0.13720   0.54230   0.34560   0.01267  Uiso   1.00
N48    N     0.62250   0.30180   0.79120   0.01267  Uiso   1.00
N49    N     0.22980   0.30190   0.67190   0.01267  Uiso   1.00
N50    N     0.14040   0.30710   0.49170   0.01267  Uiso   1.00
N51    N     0.24660   0.68910   0.45370   0.01267  Uiso   1.00
