data_image0
_cell_length_a       9.9445
_cell_length_b       18.5391
_cell_length_c       20.2889
_cell_angle_alpha    88.904
_cell_angle_beta     83.648
_cell_angle_gamma    86.713

_symmetry_space_group_name_H-M    "P 1"
_symmetry_int_tables_number       1

loop_
  _symmetry_equiv_pos_as_xyz
  'x, y, z'

loop_
  _atom_site_label
  _atom_site_occupancy
  _atom_site_fract_x
  _atom_site_fract_y
  _atom_site_fract_z
  _atom_site_thermal_displace_type
  _atom_site_B_iso_or_equiv
  _atom_site_type_symbol
  Ba1      1.0000 0.04270  0.24190  0.57638  Biso   1.000  Ba
  Cd1      1.0000 0.61289  0.45305  0.03887  Biso   1.000  Cd
  Cd2      1.0000 0.89934  0.95876  0.45562  Biso   1.000  Cd
  C1       1.0000 0.01560  0.11490  0.41570  Biso   1.000  C
  C2       1.0000 0.03530  0.16790  0.35880  Biso   1.000  C
  C3       1.0000 0.11410  0.22720  0.36310  Biso   1.000  C
  H1       1.0000 0.15630  0.23430  0.40200  Biso   1.000  H
  C4       1.0000 0.13040  0.27560  0.31050  Biso   1.000  C
  H2       1.0000 0.18460  0.31570  0.31360  Biso   1.000  H
  C5       1.0000 0.06850  0.26640  0.25310  Biso   1.000  C
  C6       1.0000 0.99300  0.20620  0.24880  Biso   1.000  C
  H3       1.0000 0.95360  0.19830  0.20920  Biso   1.000  H
  C7       1.0000 0.97430  0.15760  0.30120  Biso   1.000  C
  H4       1.0000 0.92020  0.11750  0.29800  Biso   1.000  H
  C8       1.0000 0.08040  0.31880  0.19740  Biso   1.000  C
  C9       1.0000 0.20660  0.34620  0.17500  Biso   1.000  C
  H5       1.0000 0.28370  0.33220  0.19700  Biso   1.000  H
  C10      1.0000 0.21990  0.39360  0.12090  Biso   1.000  C
  C11      1.0000 0.10840  0.41620  0.08930  Biso   1.000  C
  H6       1.0000 0.11660  0.44910  0.05290  Biso   1.000  H
  C12      1.0000 0.98290  0.38920  0.11240  Biso   1.000  C
  C13      1.0000 0.97110  0.34150  0.16460  Biso   1.000  C
  H7       1.0000 0.88500  0.32340  0.17860  Biso   1.000  H
  C14      1.0000 0.85840  0.41500  0.07930  Biso   1.000  C
  C15      1.0000 0.35750  0.41610  0.09300  Biso   1.000  C
  C16      1.0000 0.52830  0.39780  0.90430  Biso   1.000  C
  C17      1.0000 0.53470  0.34070  0.85160  Biso   1.000  C
  C18      1.0000 0.45360  0.34850  0.80270  Biso   1.000  C
  H8       1.0000 0.39200  0.38960  0.80220  Biso   1.000  H
  C19      1.0000 0.45820  0.29700  0.75230  Biso   1.000  C
  H9       1.0000 0.40150  0.30390  0.71770  Biso   1.000  H
  C20      1.0000 0.54580  0.23610  0.75330  Biso   1.000  C
  C21      1.0000 0.62270  0.22690  0.80510  Biso   1.000  C
  H10      1.0000 0.68020  0.18450  0.80760  Biso   1.000  H
  C22      1.0000 0.61790  0.27840  0.85380  Biso   1.000  C
  H11      1.0000 0.67240  0.27100  0.88930  Biso   1.000  H
  C23      1.0000 0.55260  0.18330  0.69960  Biso   1.000  C
  C24      1.0000 0.43540  0.16350  0.67490  Biso   1.000  C
  H12      1.0000 0.35020  0.18560  0.69160  Biso   1.000  H
  C25      1.0000 0.44200  0.11080  0.62530  Biso   1.000  C
  C26      1.0000 0.56560  0.07950  0.59930  Biso   1.000  C
  H13      1.0000 0.56980  0.04400  0.56590  Biso   1.000  H
  C27      1.0000 0.68420  0.10060  0.62260  Biso   1.000  C
  C28      1.0000 0.67730  0.15120  0.67290  Biso   1.000  C
  H14      1.0000 0.75830  0.16410  0.68940  Biso   1.000  H
  C29      1.0000 0.81910  0.07060  0.59010  Biso   1.000  C
  C30      1.0000 0.31550  0.08730  0.59840  Biso   1.000  C
  O1       1.0000 0.92970  0.06770  0.41040  Biso   1.000  O
  O2       1.0000 0.08120  0.12300  0.46310  Biso   1.000  O
  O3       1.0000 0.76300  0.37180  0.08250  Biso   1.000  O
  O4       1.0000 0.85390  0.47410  0.05160  Biso   1.000  O
  O5       1.0000 0.36480  0.45120  0.03890  Biso   1.000  O
  O6       1.0000 0.45890  0.39600  0.12020  Biso   1.000  O
  O7       1.0000 0.61120  0.38760  0.94780  Biso   1.000  O
  O8       1.0000 0.44160  0.44780  0.89970  Biso   1.000  O
  O9       1.0000 0.92320  0.09440  0.60620  Biso   1.000  O
  O10      1.0000 0.81730  0.02250  0.55020  Biso   1.000  O
  O11      1.0000 0.32060  0.03340  0.56710  Biso   1.000  O
  O12      1.0000 0.21070  0.12560  0.60990  Biso   1.000  O
  Ba2      1.0000 0.95730  0.75810  0.42362  Biso   1.000  Ba
  Cd3      1.0000 0.38711  0.54695  0.96113  Biso   1.000  Cd
  Cd4      1.0000 0.10066  0.04124  0.54438  Biso   1.000  Cd
  C31      1.0000 0.98440  0.88510  0.58430  Biso   1.000  C
  C32      1.0000 0.96470  0.83210  0.64120  Biso   1.000  C
  C33      1.0000 0.88590  0.77280  0.63690  Biso   1.000  C
  H15      1.0000 0.84370  0.76570  0.59800  Biso   1.000  H
  C34      1.0000 0.86960  0.72440  0.68950  Biso   1.000  C
  H16      1.0000 0.81540  0.68430  0.68640  Biso   1.000  H
  C35      1.0000 0.93150  0.73360  0.74690  Biso   1.000  C
  C36      1.0000 0.00700  0.79380  0.75120  Biso   1.000  C
  H17      1.0000 0.04640  0.80170  0.79080  Biso   1.000  H
  C37      1.0000 0.02570  0.84240  0.69880  Biso   1.000  C
  H18      1.0000 0.07980  0.88250  0.70200  Biso   1.000  H
  C38      1.0000 0.91960  0.68120  0.80260  Biso   1.000  C
  C39      1.0000 0.79340  0.65380  0.82500  Biso   1.000  C
  H19      1.0000 0.71630  0.66780  0.80300  Biso   1.000  H
  C40      1.0000 0.78010  0.60640  0.87910  Biso   1.000  C
  C41      1.0000 0.89160  0.58380  0.91070  Biso   1.000  C
  H20      1.0000 0.88340  0.55090  0.94710  Biso   1.000  H
  C42      1.0000 0.01710  0.61080  0.88760  Biso   1.000  C
  C43      1.0000 0.02890  0.65850  0.83540  Biso   1.000  C
  H21      1.0000 0.11500  0.67660  0.82140  Biso   1.000  H
  C44      1.0000 0.14160  0.58500  0.92070  Biso   1.000  C
  C45      1.0000 0.64250  0.58390  0.90700  Biso   1.000  C
  C46      1.0000 0.47170  0.60220  0.09570  Biso   1.000  C
  C47      1.0000 0.46530  0.65930  0.14840  Biso   1.000  C
  C48      1.0000 0.54640  0.65150  0.19730  Biso   1.000  C
  H22      1.0000 0.60800  0.61040  0.19780  Biso   1.000  H
  C49      1.0000 0.54180  0.70300  0.24770  Biso   1.000  C
  H23      1.0000 0.59850  0.69610  0.28230  Biso   1.000  H
  C50      1.0000 0.45420  0.76390  0.24670  Biso   1.000  C
  C51      1.0000 0.37730  0.77310  0.19490  Biso   1.000  C
  H24      1.0000 0.31980  0.81550  0.19240  Biso   1.000  H
  C52      1.0000 0.38210  0.72160  0.14620  Biso   1.000  C
  H25      1.0000 0.32760  0.72900  0.11070  Biso   1.000  H
  C53      1.0000 0.44740  0.81670  0.30040  Biso   1.000  C
  C54      1.0000 0.56460  0.83650  0.32510  Biso   1.000  C
  H26      1.0000 0.64980  0.81440  0.30840  Biso   1.000  H
  C55      1.0000 0.55800  0.88920  0.37470  Biso   1.000  C
  C56      1.0000 0.43440  0.92050  0.40070  Biso   1.000  C
  H27      1.0000 0.43020  0.95600  0.43410  Biso   1.000  H
  C57      1.0000 0.31580  0.89940  0.37740  Biso   1.000  C
  C58      1.0000 0.32270  0.84880  0.32710  Biso   1.000  C
  H28      1.0000 0.24170  0.83590  0.31060  Biso   1.000  H
  C59      1.0000 0.18090  0.92940  0.40990  Biso   1.000  C
  C60      1.0000 0.68450  0.91270  0.40160  Biso   1.000  C
  O13      1.0000 0.07030  0.93230  0.58960  Biso   1.000  O
  O14      1.0000 0.91880  0.87700  0.53690  Biso   1.000  O
  O15      1.0000 0.23700  0.62820  0.91750  Biso   1.000  O
  O16      1.0000 0.14610  0.52590  0.94840  Biso   1.000  O
  O17      1.0000 0.63520  0.54880  0.96110  Biso   1.000  O
  O18      1.0000 0.54110  0.60400  0.87980  Biso   1.000  O
  O19      1.0000 0.38880  0.61240  0.05220  Biso   1.000  O
  O20      1.0000 0.55840  0.55220  0.10030  Biso   1.000  O
  O21      1.0000 0.07680  0.90560  0.39380  Biso   1.000  O
  O22      1.0000 0.18270  0.97750  0.44980  Biso   1.000  O
  O23      1.0000 0.67940  0.96660  0.43290  Biso   1.000  O
  O24      1.0000 0.78930  0.87440  0.39010  Biso   1.000  O
  Cd5      1.0000 0.41284  0.97102  0.01904  Biso   1.000  Cd
  C61      1.0000 0.04170  0.60460  0.09550  Biso   1.000  C
  H29      1.0000 0.00740  0.56000  0.08040  Biso   1.000  H
  H30      1.0000 0.13600  0.60860  0.07650  Biso   1.000  H
  H31      1.0000 0.03700  0.60370  0.14410  Biso   1.000  H
  C62      1.0000 0.83250  0.65960  0.06060  Biso   1.000  C
  H32      1.0000 0.79720  0.61300  0.06280  Biso   1.000  H
  C63      1.0000 0.75480  0.71920  0.04390  Biso   1.000  C
  H33      1.0000 0.66520  0.71290  0.03380  Biso   1.000  H
  C64      1.0000 0.80150  0.78800  0.04100  Biso   1.000  C
  C65      1.0000 0.93410  0.79330  0.05540  Biso   1.000  C
  H34      1.0000 0.97210  0.83920  0.05520  Biso   1.000  H
  C66      1.0000 0.00710  0.73430  0.06950  Biso   1.000  C
  H35      1.0000 0.09880  0.73860  0.07710  Biso   1.000  H
  C67      1.0000 0.67040  0.89880  0.08320  Biso   1.000  C
  C68      1.0000 0.70560  0.88420  0.14930  Biso   1.000  C
  H36      1.0000 0.75940  0.84420  0.16360  Biso   1.000  H
  C69      1.0000 0.64710  0.93860  0.18630  Biso   1.000  C
  H37      1.0000 0.65190  0.94420  0.23240  Biso   1.000  H
  C70      1.0000 0.57500  0.98750  0.14420  Biso   1.000  C
  C71      1.0000 0.71110  0.85280  0.02660  Biso   1.000  C
  C72      1.0000 0.67950  0.86210  0.96170  Biso   1.000  C
  C73      1.0000 0.72630  0.81640  0.90690  Biso   1.000  C
  H38      1.0000 0.78750  0.77520  0.90810  Biso   1.000  H
  C74      1.0000 0.66860  0.84180  0.85360  Biso   1.000  C
  H39      1.0000 0.67890  0.82110  0.81070  Biso   1.000  H
  C75      1.0000 0.58730  0.90710  0.87410  Biso   1.000  C
  C76      1.0000 0.49450  0.04980  0.16430  Biso   1.000  C
  C77      1.0000 0.49550  0.06920  0.23490  Biso   1.000  C
  C78      1.0000 0.37520  0.07490  0.27950  Biso   1.000  C
  H40      1.0000 0.28990  0.06730  0.26470  Biso   1.000  H
  C79      1.0000 0.38390  0.09150  0.34490  Biso   1.000  C
  H41      1.0000 0.30320  0.09670  0.37450  Biso   1.000  H
  C80      1.0000 0.50290  0.11710  0.43740  Biso   1.000  C
  H42      1.0000 0.45500  0.08050  0.46480  Biso   1.000  H
  H43      1.0000 0.45800  0.16480  0.44660  Biso   1.000  H
  H44      1.0000 0.59690  0.11700  0.44770  Biso   1.000  H
  C81      1.0000 0.61700  0.09650  0.32590  Biso   1.000  C
  H45      1.0000 0.70080  0.10420  0.34230  Biso   1.000  H
  C82      1.0000 0.61480  0.08150  0.26100  Biso   1.000  C
  H46      1.0000 0.69750  0.07950  0.23250  Biso   1.000  H
  Cl1      1.0000 0.22000  0.89910  0.06720  Biso   1.000  Cl
  N1       1.0000 0.59230  0.91560  0.94040  Biso   1.000  N
  N2       1.0000 0.59700  0.96150  0.08020  Biso   1.000  N
  N3       1.0000 0.95690  0.66840  0.07350  Biso   1.000  N
  N4       1.0000 0.50130  0.10050  0.36720  Biso   1.000  N
  Cd6      1.0000 0.58716  0.02898  0.98096  Biso   1.000  Cd
  C83      1.0000 0.95830  0.39540  0.90450  Biso   1.000  C
  H47      1.0000 0.99260  0.44000  0.91960  Biso   1.000  H
  H48      1.0000 0.86400  0.39140  0.92350  Biso   1.000  H
  H49      1.0000 0.96300  0.39630  0.85590  Biso   1.000  H
  C84      1.0000 0.16750  0.34040  0.93940  Biso   1.000  C
  H50      1.0000 0.20280  0.38700  0.93720  Biso   1.000  H
  C85      1.0000 0.24520  0.28080  0.95610  Biso   1.000  C
  H51      1.0000 0.33480  0.28710  0.96620  Biso   1.000  H
  C86      1.0000 0.19850  0.21200  0.95900  Biso   1.000  C
  C87      1.0000 0.06590  0.20670  0.94460  Biso   1.000  C
  H52      1.0000 0.02790  0.16080  0.94480  Biso   1.000  H
  C88      1.0000 0.99290  0.26570  0.93050  Biso   1.000  C
  H53      1.0000 0.90120  0.26140  0.92290  Biso   1.000  H
  C89      1.0000 0.32960  0.10120  0.91680  Biso   1.000  C
  C90      1.0000 0.29440  0.11580  0.85070  Biso   1.000  C
  H54      1.0000 0.24060  0.15580  0.83640  Biso   1.000  H
  C91      1.0000 0.35290  0.06140  0.81370  Biso   1.000  C
  H55      1.0000 0.34810  0.05580  0.76760  Biso   1.000  H
  C92      1.0000 0.42500  0.01250  0.85580  Biso   1.000  C
  C93      1.0000 0.28890  0.14720  0.97340  Biso   1.000  C
  C94      1.0000 0.32050  0.13790  0.03830  Biso   1.000  C
  C95      1.0000 0.27370  0.18360  0.09310  Biso   1.000  C
  H56      1.0000 0.21250  0.22480  0.09190  Biso   1.000  H
  C96      1.0000 0.33140  0.15820  0.14640  Biso   1.000  C
  H57      1.0000 0.32110  0.17890  0.18930  Biso   1.000  H
  C97      1.0000 0.41270  0.09290  0.12590  Biso   1.000  C
  C98      1.0000 0.50550  0.95020  0.83570  Biso   1.000  C
  C99      1.0000 0.50450  0.93080  0.76510  Biso   1.000  C
  C100     1.0000 0.62480  0.92510  0.72050  Biso   1.000  C
  H58      1.0000 0.71010  0.93270  0.73530  Biso   1.000  H
  C101     1.0000 0.61610  0.90850  0.65510  Biso   1.000  C
  H59      1.0000 0.69680  0.90330  0.62550  Biso   1.000  H
  C102     1.0000 0.49710  0.88290  0.56260  Biso   1.000  C
  H60      1.0000 0.54500  0.91950  0.53520  Biso   1.000  H
  H61      1.0000 0.54200  0.83520  0.55340  Biso   1.000  H
  H62      1.0000 0.40310  0.88300  0.55230  Biso   1.000  H
  C103     1.0000 0.38300  0.90350  0.67410  Biso   1.000  C
  H63      1.0000 0.29920  0.89580  0.65770  Biso   1.000  H
  C104     1.0000 0.38520  0.91850  0.73900  Biso   1.000  C
  H64      1.0000 0.30250  0.92050  0.76750  Biso   1.000  H
  Cl2      1.0000 0.78000  0.10090  0.93280  Biso   1.000  Cl
  N5       1.0000 0.40770  0.08440  0.05960  Biso   1.000  N
  N6       1.0000 0.40300  0.03850  0.91980  Biso   1.000  N
  N7       1.0000 0.04310  0.33160  0.92650  Biso   1.000  N
  N8       1.0000 0.49870  0.89950  0.63280  Biso   1.000  N
