data_HEFFAB_charged
_audit_creation_date              2014-07-02
_audit_creation_method            'Materials Studio'
_symmetry_space_group_name_H-M    'P1'
_symmetry_Int_Tables_number       1
_symmetry_cell_setting            triclinic
loop_
_symmetry_equiv_pos_as_xyz
  x,y,z
_cell_length_a                    19.8340
_cell_length_b                    20.2240
_cell_length_c                    20.2840
_cell_angle_alpha                 87.4800
_cell_angle_beta                  64.4180
_cell_angle_gamma                 82.8960
loop_
_atom_site_label
_atom_site_type_symbol
_atom_site_fract_x
_atom_site_fract_y
_atom_site_fract_z
_atom_site_U_iso_or_equiv
_atom_site_adp_type
_atom_site_occupancy
Mn1    Mn    0.17462   0.95716   0.54331   0.01267  Uiso   1.00
Mn2    Mn    0.71600   0.46291   0.95342   0.01267  Uiso   1.00
Mn3    Mn    0.32354   0.04578   0.46198   0.01267  Uiso   1.00
Mn4    Mn    0.10390   0.87243   0.71340   0.01267  Uiso   1.00
Mn5    Mn    0.82538   0.04284   0.45669   0.01267  Uiso   1.00
Mn6    Mn    0.28400   0.53709   0.04658   0.01267  Uiso   1.00
Mn7    Mn    0.67646   0.95422   0.53802   0.01267  Uiso   1.00
Mn8    Mn    0.89610   0.12757   0.28660   0.01267  Uiso   1.00
Cd1    Cd    0.21907   0.45948   0.94991   0.01267  Uiso   1.00
Cd2    Cd    0.78093   0.54052   0.05009   0.01267  Uiso   1.00
H1     H     0.94780   0.08080   0.83590   0.01267  Uiso   1.00
H2     H     0.93760   0.18770   0.88160   0.01267  Uiso   1.00
H3     H     0.12790   0.22400   0.70470   0.01267  Uiso   1.00
H4     H     0.13810   0.11720   0.65890   0.01267  Uiso   1.00
H5     H     0.91200   0.30930   0.86450   0.01267  Uiso   1.00
H6     H     0.01160   0.44670   0.91970   0.01267  Uiso   1.00
H7     H     0.13330   0.27430   0.81920   0.01267  Uiso   1.00
H8     H     0.21800   0.39410   0.23400   0.01267  Uiso   1.00
H9     H     0.18160   0.30980   0.32100   0.01267  Uiso   1.00
H10    H     0.11300   0.21290   0.19340   0.01267  Uiso   1.00
H11    H     0.15170   0.29640   0.10580   0.01267  Uiso   1.00
H12    H     0.21260   0.19090   0.34270   0.01267  Uiso   1.00
H13    H     0.06050   0.06600   0.46010   0.01267  Uiso   1.00
H14    H     0.01830   0.19440   0.32110   0.01267  Uiso   1.00
H15    H     0.35640   0.69820   0.89190   0.01267  Uiso   1.00
H16    H     0.40060   0.78250   0.80330   0.01267  Uiso   1.00
H17    H     0.31820   0.69680   0.68130   0.01267  Uiso   1.00
H18    H     0.28300   0.60970   0.76650   0.01267  Uiso   1.00
H19    H     0.48080   0.81480   0.68350   0.01267  Uiso   1.00
H20    H     0.43430   0.94650   0.55180   0.01267  Uiso   1.00
H21    H     0.28530   0.81490   0.66430   0.01267  Uiso   1.00
H22    H     0.47030   0.44690   0.94750   0.01267  Uiso   1.00
H23    H     0.65310   0.31910   0.81890   0.01267  Uiso   1.00
H24    H     0.44560   0.29960   0.83300   0.01267  Uiso   1.00
H25    H     0.67320   0.29000   0.69460   0.01267  Uiso   1.00
H26    H     0.73140   0.20100   0.60970   0.01267  Uiso   1.00
H27    H     0.56310   0.09290   0.73970   0.01267  Uiso   1.00
H28    H     0.50700   0.17950   0.81910   0.01267  Uiso   1.00
H29    H     0.05220   0.91920   0.16410   0.01267  Uiso   1.00
H30    H     0.06240   0.81230   0.11840   0.01267  Uiso   1.00
H31    H     0.87210   0.77600   0.29530   0.01267  Uiso   1.00
H32    H     0.86190   0.88280   0.34110   0.01267  Uiso   1.00
H33    H     0.08800   0.69070   0.13550   0.01267  Uiso   1.00
H34    H     0.98840   0.55330   0.08030   0.01267  Uiso   1.00
H35    H     0.86670   0.72570   0.18080   0.01267  Uiso   1.00
H36    H     0.78200   0.60590   0.76600   0.01267  Uiso   1.00
H37    H     0.81840   0.69020   0.67900   0.01267  Uiso   1.00
H38    H     0.88700   0.78710   0.80660   0.01267  Uiso   1.00
H39    H     0.84830   0.70360   0.89420   0.01267  Uiso   1.00
H40    H     0.78740   0.80910   0.65730   0.01267  Uiso   1.00
H41    H     0.93950   0.93400   0.53990   0.01267  Uiso   1.00
H42    H     0.98170   0.80560   0.67890   0.01267  Uiso   1.00
H43    H     0.64360   0.30180   0.10810   0.01267  Uiso   1.00
H44    H     0.59940   0.21750   0.19670   0.01267  Uiso   1.00
H45    H     0.68180   0.30320   0.31870   0.01267  Uiso   1.00
H46    H     0.71700   0.39030   0.23350   0.01267  Uiso   1.00
H47    H     0.51920   0.18520   0.31650   0.01267  Uiso   1.00
H48    H     0.56570   0.05350   0.44820   0.01267  Uiso   1.00
H49    H     0.71470   0.18510   0.33570   0.01267  Uiso   1.00
H50    H     0.52970   0.55310   0.05250   0.01267  Uiso   1.00
H51    H     0.34690   0.68090   0.18110   0.01267  Uiso   1.00
H52    H     0.55440   0.70040   0.16700   0.01267  Uiso   1.00
H53    H     0.32680   0.71000   0.30540   0.01267  Uiso   1.00
H54    H     0.26860   0.79900   0.39030   0.01267  Uiso   1.00
H55    H     0.43690   0.90710   0.26030   0.01267  Uiso   1.00
H56    H     0.49300   0.82050   0.18090   0.01267  Uiso   1.00
C1     C     0.15190   0.38480   0.87140   0.01267  Uiso   1.00
C2     C     0.87630   0.42700   0.93130   0.01267  Uiso   1.00
C3     C     0.04940   0.02070   0.71330   0.01267  Uiso   1.00
C4     C     0.04390   0.08900   0.74310   0.01267  Uiso   1.00
C5     C     0.98430   0.10990   0.80930   0.01267  Uiso   1.00
C6     C     0.97830   0.17340   0.83640   0.01267  Uiso   1.00
C7     C     0.03180   0.21590   0.79750   0.01267  Uiso   1.00
C8     C     0.09130   0.19490   0.73130   0.01267  Uiso   1.00
C9     C     0.09740   0.13150   0.70410   0.01267  Uiso   1.00
C10    C     0.02330   0.28210   0.83700   0.01267  Uiso   1.00
C11    C     0.95540   0.32310   0.86580   0.01267  Uiso   1.00
C12    C     0.95110   0.38450   0.89660   0.01267  Uiso   1.00
C13    C     0.01460   0.40480   0.89860   0.01267  Uiso   1.00
C14    C     0.08250   0.36370   0.86970   0.01267  Uiso   1.00
C15    C     0.08690   0.30240   0.83890   0.01267  Uiso   1.00
C16    C     0.21650   0.40430   0.10010   0.01267  Uiso   1.00
C17    C     0.19120   0.35110   0.15770   0.01267  Uiso   1.00
C18    C     0.19820   0.35670   0.22520   0.01267  Uiso   1.00
C19    C     0.17580   0.30700   0.27710   0.01267  Uiso   1.00
C20    C     0.14520   0.25350   0.26540   0.01267  Uiso   1.00
C21    C     0.13520   0.24910   0.20120   0.01267  Uiso   1.00
C22    C     0.15880   0.29910   0.14900   0.01267  Uiso   1.00
C23    C     0.12130   0.20030   0.32180   0.01267  Uiso   1.00
C24    C     0.16570   0.17460   0.35490   0.01267  Uiso   1.00
C25    C     0.14170   0.12250   0.40840   0.01267  Uiso   1.00
C26    C     0.07540   0.10080   0.42550   0.01267  Uiso   1.00
C27    C     0.02590   0.12700   0.39450   0.01267  Uiso   1.00
C28    C     0.05000   0.17600   0.34310   0.01267  Uiso   1.00
C29    C     0.95190   0.10130   0.42140   0.01267  Uiso   1.00
C30    C     0.19620   0.09110   0.43890   0.01267  Uiso   1.00
C31    C     0.28780   0.59320   0.89580   0.01267  Uiso   1.00
C32    C     0.31520   0.64810   0.83910   0.01267  Uiso   1.00
C33    C     0.34890   0.69740   0.84870   0.01267  Uiso   1.00
C34    C     0.37420   0.74940   0.79630   0.01267  Uiso   1.00
C35    C     0.35990   0.75070   0.73710   0.01267  Uiso   1.00
C36    C     0.32610   0.69740   0.72420   0.01267  Uiso   1.00
C37    C     0.30460   0.64590   0.77520   0.01267  Uiso   1.00
C38    C     0.37930   0.80540   0.68200   0.01267  Uiso   1.00
C39    C     0.44780   0.83230   0.66260   0.01267  Uiso   1.00
C40    C     0.46760   0.88580   0.61170   0.01267  Uiso   1.00
C41    C     0.41990   0.91170   0.58640   0.01267  Uiso   1.00
C42    C     0.34740   0.89100   0.60790   0.01267  Uiso   1.00
C43    C     0.33050   0.83370   0.65350   0.01267  Uiso   1.00
C44    C     0.29150   0.91970   0.58210   0.01267  Uiso   1.00
C45    C     0.54540   0.90870   0.58680   0.01267  Uiso   1.00
C46    C     0.36720   0.40840   0.91550   0.01267  Uiso   1.00
C47    C     0.44700   0.37810   0.89060   0.01267  Uiso   1.00
C48    C     0.49190   0.41050   0.91400   0.01267  Uiso   1.00
C49    C     0.56940   0.38800   0.88720   0.01267  Uiso   1.00
C50    C     0.61530   0.41930   0.91330   0.01267  Uiso   1.00
C51    C     0.60070   0.33340   0.83800   0.01267  Uiso   1.00
C52    C     0.55440   0.29990   0.81680   0.01267  Uiso   1.00
C53    C     0.47760   0.32280   0.84530   0.01267  Uiso   1.00
C54    C     0.58770   0.24320   0.76590   0.01267  Uiso   1.00
C55    C     0.65140   0.24930   0.70350   0.01267  Uiso   1.00
C56    C     0.68570   0.19680   0.65190   0.01267  Uiso   1.00
C57    C     0.65060   0.13770   0.66420   0.01267  Uiso   1.00
C58    C     0.58530   0.13340   0.72940   0.01267  Uiso   1.00
C59    C     0.55300   0.18350   0.77730   0.01267  Uiso   1.00
C60    C     0.68770   0.08220   0.60730   0.01267  Uiso   1.00
C61    C     0.84810   0.61520   0.12860   0.01267  Uiso   1.00
C62    C     0.12370   0.57300   0.06870   0.01267  Uiso   1.00
C63    C     0.95060   0.97930   0.28670   0.01267  Uiso   1.00
C64    C     0.95610   0.91100   0.25690   0.01267  Uiso   1.00
C65    C     0.01570   0.89010   0.19070   0.01267  Uiso   1.00
C66    C     0.02170   0.82660   0.16360   0.01267  Uiso   1.00
C67    C     0.96820   0.78410   0.20250   0.01267  Uiso   1.00
C68    C     0.90870   0.80510   0.26870   0.01267  Uiso   1.00
C69    C     0.90260   0.86850   0.29590   0.01267  Uiso   1.00
C70    C     0.97670   0.71790   0.16300   0.01267  Uiso   1.00
C71    C     0.04460   0.67690   0.13420   0.01267  Uiso   1.00
C72    C     0.04890   0.61550   0.10340   0.01267  Uiso   1.00
C73    C     0.98540   0.59520   0.10140   0.01267  Uiso   1.00
C74    C     0.91750   0.63630   0.13030   0.01267  Uiso   1.00
C75    C     0.91310   0.69760   0.16110   0.01267  Uiso   1.00
C76    C     0.78350   0.59570   0.89990   0.01267  Uiso   1.00
C77    C     0.80880   0.64890   0.84230   0.01267  Uiso   1.00
C78    C     0.80180   0.64330   0.77480   0.01267  Uiso   1.00
C79    C     0.82420   0.69300   0.72290   0.01267  Uiso   1.00
C80    C     0.85480   0.74650   0.73460   0.01267  Uiso   1.00
C81    C     0.86480   0.75090   0.79880   0.01267  Uiso   1.00
C82    C     0.84120   0.70090   0.85100   0.01267  Uiso   1.00
C83    C     0.87870   0.79970   0.67820   0.01267  Uiso   1.00
C84    C     0.83430   0.82540   0.64510   0.01267  Uiso   1.00
C85    C     0.85830   0.87750   0.59160   0.01267  Uiso   1.00
C86    C     0.92460   0.89920   0.57450   0.01267  Uiso   1.00
C87    C     0.97410   0.87300   0.60550   0.01267  Uiso   1.00
C88    C     0.95000   0.82400   0.65690   0.01267  Uiso   1.00
C89    C     0.04810   0.89870   0.57860   0.01267  Uiso   1.00
C90    C     0.80380   0.90890   0.56110   0.01267  Uiso   1.00
C91    C     0.71220   0.40680   0.10420   0.01267  Uiso   1.00
C92    C     0.68480   0.35190   0.16090   0.01267  Uiso   1.00
C93    C     0.65110   0.30260   0.15130   0.01267  Uiso   1.00
C94    C     0.62580   0.25060   0.20370   0.01267  Uiso   1.00
C95    C     0.64010   0.24930   0.26290   0.01267  Uiso   1.00
C96    C     0.67390   0.30260   0.27580   0.01267  Uiso   1.00
C97    C     0.69540   0.35410   0.22480   0.01267  Uiso   1.00
C98    C     0.62070   0.19460   0.31800   0.01267  Uiso   1.00
C99    C     0.55220   0.16770   0.33740   0.01267  Uiso   1.00
C100   C     0.53240   0.11420   0.38830   0.01267  Uiso   1.00
C101   C     0.58010   0.08830   0.41360   0.01267  Uiso   1.00
C102   C     0.65260   0.10900   0.39210   0.01267  Uiso   1.00
C103   C     0.66950   0.16630   0.34650   0.01267  Uiso   1.00
C104   C     0.70850   0.08030   0.41790   0.01267  Uiso   1.00
C105   C     0.45460   0.09130   0.41320   0.01267  Uiso   1.00
C106   C     0.63280   0.59160   0.08450   0.01267  Uiso   1.00
C107   C     0.55300   0.62190   0.10940   0.01267  Uiso   1.00
C108   C     0.50810   0.58950   0.08600   0.01267  Uiso   1.00
C109   C     0.43060   0.61200   0.11280   0.01267  Uiso   1.00
C110   C     0.38470   0.58070   0.08670   0.01267  Uiso   1.00
C111   C     0.39930   0.66660   0.16200   0.01267  Uiso   1.00
C112   C     0.44560   0.70010   0.18320   0.01267  Uiso   1.00
C113   C     0.52240   0.67720   0.15470   0.01267  Uiso   1.00
C114   C     0.41230   0.75680   0.23410   0.01267  Uiso   1.00
C115   C     0.34860   0.75070   0.29650   0.01267  Uiso   1.00
C116   C     0.31430   0.80320   0.34810   0.01267  Uiso   1.00
C117   C     0.34940   0.86230   0.33580   0.01267  Uiso   1.00
C118   C     0.41470   0.86660   0.27060   0.01267  Uiso   1.00
C119   C     0.44700   0.81650   0.22270   0.01267  Uiso   1.00
C120   C     0.31230   0.91780   0.39270   0.01267  Uiso   1.00
O1     O     0.14430   0.76730   0.69390   0.01267  Uiso   1.00
O2     O     0.14770   0.87480   0.79600   0.01267  Uiso   1.00
O3     O     0.99340   0.85220   0.79330   0.01267  Uiso   1.00
O4     O     0.28950   0.13540   0.54420   0.01267  Uiso   1.00
O5     O     0.21410   0.36250   0.82040   0.01267  Uiso   1.00
O6     O     0.14240   0.43000   0.91530   0.01267  Uiso   1.00
O7     O     0.86600   0.47130   0.97770   0.01267  Uiso   1.00
O8     O     0.82630   0.41900   0.91150   0.01267  Uiso   1.00
O9     O     0.09150   0.01450   0.64690   0.01267  Uiso   1.00
O10    O     0.01270   0.97730   0.75590   0.01267  Uiso   1.00
O11    O     0.25960   0.10460   0.41450   0.01267  Uiso   1.00
O12    O     0.16950   0.05350   0.49140   0.01267  Uiso   1.00
O13    O     0.92990   0.06290   0.46730   0.01267  Uiso   1.00
O14    O     0.91650   0.12500   0.39080   0.01267  Uiso   1.00
O15    O     0.24940   0.44840   0.11130   0.01267  Uiso   1.00
O16    O     0.19670   0.40000   0.04830   0.01267  Uiso   1.00
O17    O     0.25950   0.54930   0.88270   0.01267  Uiso   1.00
O18    O     0.30610   0.59920   0.94910   0.01267  Uiso   1.00
O19    O     0.28920   0.98270   0.56600   0.01267  Uiso   1.00
O20    O     0.22490   0.90810   0.61140   0.01267  Uiso   1.00
O21    O     0.57720   0.89780   0.62370   0.01267  Uiso   1.00
O22    O     0.56430   0.94650   0.53450   0.01267  Uiso   1.00
O23    O     0.34390   0.46100   0.95250   0.01267  Uiso   1.00
O24    O     0.32570   0.38110   0.89250   0.01267  Uiso   1.00
O25    O     0.59130   0.45210   0.97030   0.01267  Uiso   1.00
O26    O     0.68690   0.41350   0.87200   0.01267  Uiso   1.00
O27    O     0.75460   0.08310   0.56370   0.01267  Uiso   1.00
O28    O     0.64640   0.03770   0.60980   0.01267  Uiso   1.00
O29    O     0.85570   0.23270   0.30610   0.01267  Uiso   1.00
O30    O     0.85230   0.12520   0.20400   0.01267  Uiso   1.00
O31    O     0.00660   0.14780   0.20670   0.01267  Uiso   1.00
O32    O     0.71050   0.86460   0.45580   0.01267  Uiso   1.00
O33    O     0.78590   0.63750   0.17960   0.01267  Uiso   1.00
O34    O     0.85760   0.57000   0.08470   0.01267  Uiso   1.00
O35    O     0.13400   0.52870   0.02230   0.01267  Uiso   1.00
O36    O     0.17370   0.58100   0.08850   0.01267  Uiso   1.00
O37    O     0.90850   0.98550   0.35310   0.01267  Uiso   1.00
O38    O     0.98730   0.02270   0.24410   0.01267  Uiso   1.00
O39    O     0.74040   0.89540   0.58550   0.01267  Uiso   1.00
O40    O     0.83050   0.94650   0.50860   0.01267  Uiso   1.00
O41    O     0.07010   0.93710   0.53270   0.01267  Uiso   1.00
O42    O     0.08350   0.87500   0.60920   0.01267  Uiso   1.00
O43    O     0.75060   0.55160   0.88870   0.01267  Uiso   1.00
O44    O     0.80330   0.60000   0.95170   0.01267  Uiso   1.00
O45    O     0.74050   0.45070   0.11730   0.01267  Uiso   1.00
O46    O     0.69390   0.40080   0.05090   0.01267  Uiso   1.00
O47    O     0.71080   0.01730   0.43400   0.01267  Uiso   1.00
O48    O     0.77510   0.09190   0.38860   0.01267  Uiso   1.00
O49    O     0.42280   0.10220   0.37630   0.01267  Uiso   1.00
O50    O     0.43570   0.05350   0.46550   0.01267  Uiso   1.00
O51    O     0.65610   0.53900   0.04750   0.01267  Uiso   1.00
O52    O     0.67430   0.61890   0.10750   0.01267  Uiso   1.00
O53    O     0.40870   0.54790   0.02970   0.01267  Uiso   1.00
O54    O     0.31310   0.58650   0.12800   0.01267  Uiso   1.00
O55    O     0.24540   0.91690   0.43630   0.01267  Uiso   1.00
O56    O     0.35360   0.96230   0.39020   0.01267  Uiso   1.00
Cd3    Cd    0.94195   0.51781   0.53079   0.01267  Uiso   1.00
Cd4    Cd    0.05805   0.48219   0.46921   0.01267  Uiso   1.00
H57    H     0.85880   0.27080   0.58540   0.01267  Uiso   1.00
H58    H     0.83900   0.15940   0.61350   0.01267  Uiso   1.00
H59    H     0.06960   0.23290   0.57550   0.01267  Uiso   1.00
H60    H     0.03980   0.12100   0.60560   0.01267  Uiso   1.00
H61    H     0.87820   0.05400   0.63480   0.01267  Uiso   1.00
H62    H     0.96650   0.03180   0.59040   0.01267  Uiso   1.00
H63    H     0.93200   0.05060   0.67540   0.01267  Uiso   1.00
H64    H     0.94670   0.26910   0.44640   0.01267  Uiso   1.00
H65    H     0.94280   0.33780   0.34640   0.01267  Uiso   1.00
H66    H     0.97760   0.59240   0.26630   0.01267  Uiso   1.00
H67    H     0.00290   0.68950   0.31530   0.01267  Uiso   1.00
H68    H     0.84170   0.45910   0.33330   0.01267  Uiso   1.00
H69    H     0.83300   0.42880   0.22870   0.01267  Uiso   1.00
H70    H     0.05080   0.42320   0.11040   0.01267  Uiso   1.00
H71    H     0.06520   0.45180   0.21330   0.01267  Uiso   1.00
H72    H     0.98740   0.39750   0.05460   0.01267  Uiso   1.00
H73    H     0.91100   0.36570   0.10200   0.01267  Uiso   1.00
H74    H     0.90800   0.44210   0.07790   0.01267  Uiso   1.00
H75    H     0.14120   0.72920   0.41460   0.01267  Uiso   1.00
H76    H     0.16100   0.84060   0.38650   0.01267  Uiso   1.00
H77    H     0.93040   0.76710   0.42450   0.01267  Uiso   1.00
H78    H     0.96020   0.87900   0.39440   0.01267  Uiso   1.00
H79    H     0.12180   0.94600   0.36520   0.01267  Uiso   1.00
H80    H     0.03350   0.96820   0.40960   0.01267  Uiso   1.00
H81    H     0.06800   0.94940   0.32460   0.01267  Uiso   1.00
H82    H     0.05330   0.73090   0.55360   0.01267  Uiso   1.00
H83    H     0.05720   0.66220   0.65360   0.01267  Uiso   1.00
H84    H     0.02240   0.40760   0.73370   0.01267  Uiso   1.00
H85    H     0.99710   0.31050   0.68470   0.01267  Uiso   1.00
H86    H     0.15830   0.54090   0.66670   0.01267  Uiso   1.00
H87    H     0.16700   0.57120   0.77130   0.01267  Uiso   1.00
H88    H     0.94920   0.57680   0.88960   0.01267  Uiso   1.00
H89    H     0.93480   0.54820   0.78670   0.01267  Uiso   1.00
H90    H     0.01260   0.60250   0.94540   0.01267  Uiso   1.00
H91    H     0.08900   0.63430   0.89800   0.01267  Uiso   1.00
H92    H     0.09200   0.55790   0.92210   0.01267  Uiso   1.00
C121   C     0.96390   0.35520   0.48920   0.01267  Uiso   1.00
C122   C     0.97520   0.33610   0.55440   0.01267  Uiso   1.00
C123   C     0.96230   0.26430   0.57500   0.01267  Uiso   1.00
C124   C     0.89840   0.24080   0.58800   0.01267  Uiso   1.00
C125   C     0.88570   0.17400   0.60540   0.01267  Uiso   1.00
C126   C     0.02290   0.21950   0.58210   0.01267  Uiso   1.00
C127   C     0.00290   0.15270   0.60040   0.01267  Uiso   1.00
C128   C     0.92840   0.06100   0.62930   0.01267  Uiso   1.00
C129   C     0.95230   0.31520   0.44080   0.01267  Uiso   1.00
C130   C     0.95050   0.35230   0.38630   0.01267  Uiso   1.00
C131   C     0.96220   0.41910   0.39840   0.01267  Uiso   1.00
C132   C     0.96370   0.47390   0.35280   0.01267  Uiso   1.00
C133   C     0.97850   0.53850   0.36020   0.01267  Uiso   1.00
C134   C     0.98380   0.59380   0.31010   0.01267  Uiso   1.00
C135   C     0.99860   0.64630   0.33590   0.01267  Uiso   1.00
C136   C     0.99300   0.37470   0.59790   0.01267  Uiso   1.00
C137   C     0.95550   0.46060   0.28420   0.01267  Uiso   1.00
C138   C     0.88550   0.45260   0.28830   0.01267  Uiso   1.00
C139   C     0.88090   0.43520   0.22560   0.01267  Uiso   1.00
C140   C     0.00820   0.43140   0.15600   0.01267  Uiso   1.00
C141   C     0.01620   0.44840   0.21750   0.01267  Uiso   1.00
C142   C     0.93610   0.40620   0.09320   0.01267  Uiso   1.00
C143   C     0.03610   0.64480   0.51080   0.01267  Uiso   1.00
C144   C     0.02480   0.66390   0.44560   0.01267  Uiso   1.00
C145   C     0.03770   0.73570   0.42500   0.01267  Uiso   1.00
C146   C     0.10160   0.75920   0.41200   0.01267  Uiso   1.00
C147   C     0.11430   0.82600   0.39460   0.01267  Uiso   1.00
C148   C     0.97710   0.78050   0.41790   0.01267  Uiso   1.00
C149   C     0.99710   0.84730   0.39960   0.01267  Uiso   1.00
C150   C     0.07160   0.93900   0.37070   0.01267  Uiso   1.00
C151   C     0.04770   0.68480   0.55920   0.01267  Uiso   1.00
C152   C     0.04950   0.64770   0.61370   0.01267  Uiso   1.00
C153   C     0.03780   0.58090   0.60160   0.01267  Uiso   1.00
C154   C     0.03630   0.52610   0.64720   0.01267  Uiso   1.00
C155   C     0.02150   0.46150   0.63980   0.01267  Uiso   1.00
C156   C     0.01620   0.40620   0.68990   0.01267  Uiso   1.00
C157   C     0.00140   0.35370   0.66410   0.01267  Uiso   1.00
C158   C     0.00700   0.62530   0.40210   0.01267  Uiso   1.00
C159   C     0.04450   0.53940   0.71580   0.01267  Uiso   1.00
C160   C     0.11450   0.54740   0.71170   0.01267  Uiso   1.00
C161   C     0.11910   0.56480   0.77440   0.01267  Uiso   1.00
C162   C     0.99180   0.56860   0.84400   0.01267  Uiso   1.00
C163   C     0.98380   0.55160   0.78250   0.01267  Uiso   1.00
C164   C     0.06390   0.59380   0.90680   0.01267  Uiso   1.00
N1     N     0.96940   0.42060   0.46170   0.01267  Uiso   1.00
N2     N     0.99010   0.56040   0.41660   0.01267  Uiso   1.00
N3     N     0.93890   0.42690   0.16260   0.01267  Uiso   1.00
N4     N     0.94080   0.13120   0.61040   0.01267  Uiso   1.00
N5     N     0.03060   0.57940   0.53830   0.01267  Uiso   1.00
N6     N     0.00990   0.43960   0.58340   0.01267  Uiso   1.00
N7     N     0.06110   0.57310   0.83740   0.01267  Uiso   1.00
N8     N     0.05920   0.86880   0.38960   0.01267  Uiso   1.00
Cl1    Cl    0.80510   0.55570   0.61710   0.01267  Uiso   1.00
Cl2    Cl    0.19490   0.44430   0.38290   0.01267  Uiso   1.00
Cd5    Cd    0.55570   0.48325   0.47017   0.01267  Uiso   1.00
Cd6    Cd    0.44430   0.51675   0.52983   0.01267  Uiso   1.00
H93    H     0.61930   0.62110   0.88600   0.01267  Uiso   1.00
H94    H     0.53050   0.64270   0.92660   0.01267  Uiso   1.00
H95    H     0.56420   0.56770   0.93250   0.01267  Uiso   1.00
H96    H     0.66280   0.60380   0.76290   0.01267  Uiso   1.00
H97    H     0.64900   0.57990   0.65760   0.01267  Uiso   1.00
H98    H     0.44240   0.52980   0.79170   0.01267  Uiso   1.00
H99    H     0.45990   0.56140   0.88950   0.01267  Uiso   1.00
H100   H     0.54630   0.67690   0.65000   0.01267  Uiso   1.00
H101   H     0.54540   0.73730   0.54260   0.01267  Uiso   1.00
H102   H     0.48210   0.68210   0.31840   0.01267  Uiso   1.00
H103   H     0.46970   0.58080   0.26870   0.01267  Uiso   1.00
H104   H     0.38070   0.37890   0.11400   0.01267  Uiso   1.00
H105   H     0.46950   0.35730   0.07340   0.01267  Uiso   1.00
H106   H     0.43580   0.43230   0.06750   0.01267  Uiso   1.00
H107   H     0.33720   0.39620   0.23710   0.01267  Uiso   1.00
H108   H     0.35100   0.42010   0.34240   0.01267  Uiso   1.00
H109   H     0.55760   0.47020   0.20830   0.01267  Uiso   1.00
H110   H     0.54010   0.43860   0.11050   0.01267  Uiso   1.00
H111   H     0.45370   0.32310   0.35000   0.01267  Uiso   1.00
H112   H     0.45460   0.26270   0.45740   0.01267  Uiso   1.00
H113   H     0.51790   0.31790   0.68160   0.01267  Uiso   1.00
H114   H     0.53030   0.41920   0.73130   0.01267  Uiso   1.00
C165   C     0.56960   0.60640   0.90050   0.01267  Uiso   1.00
C166   C     0.61640   0.59060   0.76790   0.01267  Uiso   1.00
C167   C     0.60910   0.57530   0.70460   0.01267  Uiso   1.00
C168   C     0.54300   0.55340   0.71140   0.01267  Uiso   1.00
C169   C     0.48770   0.54690   0.78360   0.01267  Uiso   1.00
C170   C     0.49860   0.56500   0.84160   0.01267  Uiso   1.00
C171   C     0.53350   0.59110   0.59980   0.01267  Uiso   1.00
C172   C     0.53270   0.53690   0.64970   0.01267  Uiso   1.00
C173   C     0.54120   0.65880   0.61020   0.01267  Uiso   1.00
C174   C     0.53960   0.69140   0.55200   0.01267  Uiso   1.00
C175   C     0.52810   0.64770   0.50660   0.01267  Uiso   1.00
C176   C     0.51860   0.66260   0.44220   0.01267  Uiso   1.00
C177   C     0.50040   0.62270   0.39930   0.01267  Uiso   1.00
C178   C     0.48520   0.63880   0.33770   0.01267  Uiso   1.00
C179   C     0.47630   0.58420   0.31210   0.01267  Uiso   1.00
C180   C     0.52220   0.46930   0.64090   0.01267  Uiso   1.00
C181   C     0.43040   0.39360   0.09950   0.01267  Uiso   1.00
C182   C     0.38360   0.40940   0.23210   0.01267  Uiso   1.00
C183   C     0.39090   0.42470   0.29540   0.01267  Uiso   1.00
C184   C     0.45700   0.44660   0.28860   0.01267  Uiso   1.00
C185   C     0.51230   0.45310   0.21640   0.01267  Uiso   1.00
C186   C     0.50140   0.43500   0.15840   0.01267  Uiso   1.00
C187   C     0.46650   0.40890   0.40020   0.01267  Uiso   1.00
C188   C     0.46730   0.46310   0.35030   0.01267  Uiso   1.00
C189   C     0.45880   0.34120   0.38980   0.01267  Uiso   1.00
C190   C     0.46040   0.30860   0.44800   0.01267  Uiso   1.00
C191   C     0.47190   0.35230   0.49340   0.01267  Uiso   1.00
C192   C     0.48140   0.33740   0.55780   0.01267  Uiso   1.00
C193   C     0.49960   0.37730   0.60070   0.01267  Uiso   1.00
C194   C     0.51480   0.36120   0.66230   0.01267  Uiso   1.00
C195   C     0.52370   0.41580   0.68790   0.01267  Uiso   1.00
C196   C     0.47780   0.53070   0.35910   0.01267  Uiso   1.00
N9     N     0.52240   0.58540   0.53810   0.01267  Uiso   1.00
N10    N     0.49450   0.55410   0.41220   0.01267  Uiso   1.00
N11    N     0.56190   0.58750   0.83340   0.01267  Uiso   1.00
N12    N     0.47760   0.41460   0.46190   0.01267  Uiso   1.00
N13    N     0.50550   0.44590   0.58780   0.01267  Uiso   1.00
N14    N     0.43810   0.41250   0.16660   0.01267  Uiso   1.00
Cl3    Cl    0.69170   0.44810   0.39100   0.01267  Uiso   1.00
Cl4    Cl    0.30830   0.55190   0.60900   0.01267  Uiso   1.00
