data_image0
_cell_length_a       10.006
_cell_length_b       18.34
_cell_length_c       20.26
_cell_angle_alpha    88.72
_cell_angle_beta     83.46
_cell_angle_gamma    86.86

_symmetry_space_group_name_H-M    "P 1"
_symmetry_int_tables_number       1

loop_
  _symmetry_equiv_pos_as_xyz
  'x, y, z'

loop_
  _atom_site_label
  _atom_site_occupancy
  _atom_site_fract_x
  _atom_site_fract_y
  _atom_site_fract_z
  _atom_site_thermal_displace_type
  _atom_site_B_iso_or_equiv
  _atom_site_type_symbol
  Na1      1.0000 0.89290  0.72080  0.87910  Biso   1.000  Na
  Cd1      1.0000 0.88666  0.54786  0.96064  Biso   1.000  Cd
  Cd2      1.0000 0.38930  0.95980  0.45490  Biso   1.000  Cd
  C1       1.0000 0.96400  0.59710  0.10070  Biso   1.000  C
  C2       1.0000 0.95700  0.65640  0.15340  Biso   1.000  C
  C3       1.0000 0.04320  0.65130  0.20150  Biso   1.000  C
  H1       1.0000 0.10690  0.61240  0.20150  Biso   1.000  H
  C4       1.0000 0.03560  0.70450  0.25070  Biso   1.000  C
  H2       1.0000 0.09220  0.69900  0.28400  Biso   1.000  H
  C5       1.0000 0.94990  0.76240  0.25110  Biso   1.000  C
  C6       1.0000 0.86260  0.76810  0.20110  Biso   1.000  C
  H3       1.0000 0.79790  0.80660  0.20260  Biso   1.000  H
  C7       1.0000 0.86920  0.71840  0.14970  Biso   1.000  C
  H4       1.0000 0.81780  0.72600  0.11450  Biso   1.000  H
  C8       1.0000 0.93460  0.82070  0.30430  Biso   1.000  C
  C9       1.0000 0.81130  0.84920  0.33040  Biso   1.000  C
  H5       1.0000 0.73390  0.83510  0.31380  Biso   1.000  H
  C10      1.0000 0.80030  0.89970  0.38240  Biso   1.000  C
  C11      1.0000 0.91630  0.92410  0.40400  Biso   1.000  C
  H6       1.0000 0.91100  0.95960  0.43630  Biso   1.000  H
  C12      1.0000 0.03930  0.89490  0.37700  Biso   1.000  C
  C13      1.0000 0.05080  0.84020  0.33030  Biso   1.000  C
  H7       1.0000 0.13400  0.81690  0.31670  Biso   1.000  H
  C14      1.0000 0.16870  0.91210  0.40070  Biso   1.000  C
  C15      1.0000 0.66690  0.93050  0.41180  Biso   1.000  C
  C16      1.0000 0.48270  0.89330  0.58520  Biso   1.000  C
  C17      1.0000 0.46300  0.83780  0.64480  Biso   1.000  C
  C18      1.0000 0.38700  0.77620  0.63640  Biso   1.000  C
  H8       1.0000 0.35030  0.76920  0.59700  Biso   1.000  H
  C19      1.0000 0.36840  0.72380  0.69250  Biso   1.000  C
  H9       1.0000 0.31590  0.68360  0.69170  Biso   1.000  H
  C20      1.0000 0.43270  0.73850  0.74490  Biso   1.000  C
  C21      1.0000 0.50280  0.79710  0.75230  Biso   1.000  C
  H10      1.0000 0.53540  0.80450  0.79270  Biso   1.000  H
  C22      1.0000 0.52950  0.85050  0.69710  Biso   1.000  C
  H11      1.0000 0.58630  0.88890  0.69850  Biso   1.000  H
  C23      1.0000 0.41990  0.68120  0.80010  Biso   1.000  C
  C24      1.0000 0.29310  0.65400  0.82270  Biso   1.000  C
  H12      1.0000 0.21880  0.66460  0.79980  Biso   1.000  H
  C25      1.0000 0.28200  0.60900  0.88290  Biso   1.000  C
  C26      1.0000 0.39390  0.58720  0.91020  Biso   1.000  C
  H13      1.0000 0.38710  0.55410  0.94580  Biso   1.000  H
  C27      1.0000 0.52030  0.61250  0.88710  Biso   1.000  C
  C28      1.0000 0.52960  0.66010  0.83090  Biso   1.000  C
  H14      1.0000 0.61300  0.67720  0.81460  Biso   1.000  H
  C29      1.0000 0.65000  0.58360  0.91650  Biso   1.000  C
  C30      1.0000 0.14800  0.58440  0.91300  Biso   1.000  C
  O1       1.0000 0.65090  0.53370  0.94810  Biso   1.000  O
  O2       1.0000 0.74350  0.62950  0.91260  Biso   1.000  O
  O3       1.0000 0.13880  0.54800  0.96410  Biso   1.000  O
  O4       1.0000 0.04200  0.60820  0.88770  Biso   1.000  O
  O5       1.0000 0.40520  0.88820  0.54110  Biso   1.000  O
  O6       1.0000 0.57820  0.93090  0.59280  Biso   1.000  O
  O7       1.0000 0.16920  0.96500  0.44150  Biso   1.000  O
  O8       1.0000 0.27920  0.88940  0.38150  Biso   1.000  O
  O9       1.0000 0.67500  0.96650  0.45790  Biso   1.000  O
  O10      1.0000 0.56760  0.90870  0.39560  Biso   1.000  O
  O11      1.0000 0.88780  0.61190  0.05360  Biso   1.000  O
  O12      1.0000 0.05410  0.54910  0.10300  Biso   1.000  O
  Na2      1.0000 0.10710  0.27920  0.12090  Biso   1.000  Na
  Cd3      1.0000 0.11334  0.45214  0.03936  Biso   1.000  Cd
  Cd4      1.0000 0.61070  0.04020  0.54510  Biso   1.000  Cd
  C31      1.0000 0.03600  0.40290  0.89930  Biso   1.000  C
  C32      1.0000 0.04300  0.34360  0.84660  Biso   1.000  C
  C33      1.0000 0.95680  0.34870  0.79850  Biso   1.000  C
  H15      1.0000 0.89310  0.38760  0.79850  Biso   1.000  H
  C34      1.0000 0.96440  0.29550  0.74930  Biso   1.000  C
  H16      1.0000 0.90780  0.30100  0.71600  Biso   1.000  H
  C35      1.0000 0.05010  0.23760  0.74890  Biso   1.000  C
  C36      1.0000 0.13740  0.23190  0.79890  Biso   1.000  C
  H17      1.0000 0.20210  0.19340  0.79740  Biso   1.000  H
  C37      1.0000 0.13080  0.28160  0.85030  Biso   1.000  C
  H18      1.0000 0.18220  0.27400  0.88550  Biso   1.000  H
  C38      1.0000 0.06540  0.17930  0.69570  Biso   1.000  C
  C39      1.0000 0.18870  0.15080  0.66960  Biso   1.000  C
  H19      1.0000 0.26610  0.16490  0.68620  Biso   1.000  H
  C40      1.0000 0.19970  0.10030  0.61760  Biso   1.000  C
  C41      1.0000 0.08370  0.07590  0.59600  Biso   1.000  C
  H20      1.0000 0.08900  0.04040  0.56370  Biso   1.000  H
  C42      1.0000 0.96070  0.10510  0.62300  Biso   1.000  C
  C43      1.0000 0.94920  0.15980  0.66970  Biso   1.000  C
  H21      1.0000 0.86600  0.18310  0.68330  Biso   1.000  H
  C44      1.0000 0.83130  0.08790  0.59930  Biso   1.000  C
  C45      1.0000 0.33310  0.06950  0.58820  Biso   1.000  C
  C46      1.0000 0.51730  0.10670  0.41480  Biso   1.000  C
  C47      1.0000 0.53700  0.16220  0.35520  Biso   1.000  C
  C48      1.0000 0.61300  0.22380  0.36360  Biso   1.000  C
  H22      1.0000 0.64970  0.23080  0.40300  Biso   1.000  H
  C49      1.0000 0.63160  0.27620  0.30750  Biso   1.000  C
  H23      1.0000 0.68410  0.31640  0.30830  Biso   1.000  H
  C50      1.0000 0.56730  0.26150  0.25510  Biso   1.000  C
  C51      1.0000 0.49720  0.20290  0.24770  Biso   1.000  C
  H24      1.0000 0.46460  0.19550  0.20730  Biso   1.000  H
  C52      1.0000 0.47050  0.14950  0.30290  Biso   1.000  C
  H25      1.0000 0.41370  0.11110  0.30150  Biso   1.000  H
  C53      1.0000 0.58010  0.31880  0.19990  Biso   1.000  C
  C54      1.0000 0.70690  0.34600  0.17730  Biso   1.000  C
  H26      1.0000 0.78120  0.33540  0.20020  Biso   1.000  H
  C55      1.0000 0.71800  0.39100  0.11710  Biso   1.000  C
  C56      1.0000 0.60610  0.41280  0.08980  Biso   1.000  C
  H27      1.0000 0.61290  0.44590  0.05420  Biso   1.000  H
  C57      1.0000 0.47970  0.38750  0.11290  Biso   1.000  C
  C58      1.0000 0.47040  0.33990  0.16910  Biso   1.000  C
  H28      1.0000 0.38700  0.32280  0.18540  Biso   1.000  H
  C59      1.0000 0.35000  0.41640  0.08350  Biso   1.000  C
  C60      1.0000 0.85200  0.41560  0.08700  Biso   1.000  C
  O13      1.0000 0.34910  0.46630  0.05190  Biso   1.000  O
  O14      1.0000 0.25650  0.37050  0.08740  Biso   1.000  O
  O15      1.0000 0.86120  0.45200  0.03590  Biso   1.000  O
  O16      1.0000 0.95800  0.39180  0.11230  Biso   1.000  O
  O17      1.0000 0.59480  0.11180  0.45890  Biso   1.000  O
  O18      1.0000 0.42180  0.06910  0.40720  Biso   1.000  O
  O19      1.0000 0.83080  0.03500  0.55850  Biso   1.000  O
  O20      1.0000 0.72080  0.11060  0.61850  Biso   1.000  O
  O21      1.0000 0.32500  0.03350  0.54210  Biso   1.000  O
  O22      1.0000 0.43240  0.09130  0.60440  Biso   1.000  O
  O23      1.0000 0.11220  0.38810  0.94640  Biso   1.000  O
  O24      1.0000 0.94590  0.45090  0.89700  Biso   1.000  O
  Cd5      1.0000 0.91568  0.96922  0.01845  Biso   1.000  Cd
  Cl1      1.0000 0.72950  0.88230  0.05250  Biso   1.000  Cl
  N1       1.0000 0.90020  0.08350  0.06060  Biso   1.000  N
  N2       1.0000 0.90190  0.03620  0.92190  Biso   1.000  N
  N3       1.0000 0.00140  0.10660  0.36740  Biso   1.000  N
  N4       1.0000 0.54000  0.33670  0.92320  Biso   1.000  N
  C61      1.0000 0.46650  0.40010  0.89760  Biso   1.000  C
  H29      1.0000 0.42830  0.38690  0.85850  Biso   1.000  H
  H30      1.0000 0.52710  0.43850  0.88670  Biso   1.000  H
  H31      1.0000 0.39580  0.41670  0.93080  Biso   1.000  H
  C62      1.0000 0.66180  0.34270  0.93350  Biso   1.000  C
  H32      1.0000 0.69610  0.38890  0.92870  Biso   1.000  H
  C63      1.0000 0.75270  0.28200  0.95240  Biso   1.000  C
  H33      1.0000 0.83840  0.29010  0.96340  Biso   1.000  H
  C64      1.0000 0.70750  0.21520  0.95330  Biso   1.000  C
  C65      1.0000 0.55680  0.21190  0.95170  Biso   1.000  C
  H34      1.0000 0.50980  0.17100  0.96580  Biso   1.000  H
  C66      1.0000 0.49700  0.27250  0.92840  Biso   1.000  C
  H35      1.0000 0.41310  0.26710  0.91410  Biso   1.000  H
  C67      1.0000 0.78660  0.14640  0.97260  Biso   1.000  C
  C68      1.0000 0.81940  0.13660  0.03940  Biso   1.000  C
  C69      1.0000 0.77350  0.18860  0.09190  Biso   1.000  C
  H36      1.0000 0.71960  0.23130  0.08920  Biso   1.000  H
  C70      1.0000 0.82930  0.15940  0.14640  Biso   1.000  C
  H37      1.0000 0.81550  0.17810  0.18900  Biso   1.000  H
  C71      1.0000 0.91230  0.09550  0.12660  Biso   1.000  C
  C72      1.0000 0.82420  0.10370  0.91610  Biso   1.000  C
  C73      1.0000 0.79460  0.11680  0.84890  Biso   1.000  C
  H38      1.0000 0.74300  0.15620  0.83390  Biso   1.000  H
  C74      1.0000 0.85480  0.06220  0.81170  Biso   1.000  C
  H39      1.0000 0.85250  0.05740  0.76630  Biso   1.000  H
  C75      1.0000 0.92440  0.01170  0.85420  Biso   1.000  C
  C76      1.0000 0.99360  0.04930  0.16480  Biso   1.000  C
  C77      1.0000 0.99420  0.07030  0.23730  Biso   1.000  C
  C78      1.0000 0.87940  0.07780  0.28050  Biso   1.000  C
  H40      1.0000 0.79630  0.07090  0.26580  Biso   1.000  H
  C79      1.0000 0.88620  0.09580  0.34600  Biso   1.000  C
  H41      1.0000 0.80750  0.10020  0.37520  Biso   1.000  H
  C80      1.0000 0.12210  0.08150  0.26130  Biso   1.000  C
  H42      1.0000 0.20340  0.07420  0.23450  Biso   1.000  H
  C81      1.0000 0.11640  0.10350  0.32510  Biso   1.000  C
  H43      1.0000 0.19530  0.11710  0.34050  Biso   1.000  H
  C82      1.0000 0.01100  0.12850  0.43760  Biso   1.000  C
  H44      1.0000 0.93070  0.15670  0.45390  Biso   1.000  H
  H45      1.0000 0.02010  0.08560  0.46500  Biso   1.000  H
  H46      1.0000 0.08780  0.15730  0.43880  Biso   1.000  H
  Cd6      1.0000 0.08432  0.03078  0.98155  Biso   1.000  Cd
  Cl2      1.0000 0.27050  0.11770  0.94750  Biso   1.000  Cl
  N5       1.0000 0.09980  0.91650  0.93940  Biso   1.000  N
  N6       1.0000 0.09810  0.96380  0.07810  Biso   1.000  N
  N7       1.0000 0.99860  0.89340  0.63260  Biso   1.000  N
  N8       1.0000 0.46000  0.66330  0.07680  Biso   1.000  N
  C83      1.0000 0.53350  0.59990  0.10240  Biso   1.000  C
  H47      1.0000 0.57170  0.61310  0.14150  Biso   1.000  H
  H48      1.0000 0.47290  0.56150  0.11330  Biso   1.000  H
  H49      1.0000 0.60420  0.58330  0.06920  Biso   1.000  H
  C84      1.0000 0.33820  0.65730  0.06650  Biso   1.000  C
  H50      1.0000 0.30390  0.61110  0.07130  Biso   1.000  H
  C85      1.0000 0.24730  0.71800  0.04760  Biso   1.000  C
  H51      1.0000 0.16160  0.70990  0.03660  Biso   1.000  H
  C86      1.0000 0.29250  0.78480  0.04670  Biso   1.000  C
  C87      1.0000 0.44320  0.78810  0.04830  Biso   1.000  C
  H52      1.0000 0.49020  0.82900  0.03420  Biso   1.000  H
  C88      1.0000 0.50300  0.72750  0.07160  Biso   1.000  C
  H53      1.0000 0.58690  0.73290  0.08590  Biso   1.000  H
  C89      1.0000 0.21340  0.85360  0.02740  Biso   1.000  C
  C90      1.0000 0.18060  0.86340  0.96060  Biso   1.000  C
  C91      1.0000 0.22650  0.81140  0.90810  Biso   1.000  C
  H54      1.0000 0.28040  0.76870  0.91080  Biso   1.000  H
  C92      1.0000 0.17070  0.84060  0.85360  Biso   1.000  C
  H55      1.0000 0.18450  0.82190  0.81100  Biso   1.000  H
  C93      1.0000 0.08770  0.90450  0.87340  Biso   1.000  C
  C94      1.0000 0.17580  0.89630  0.08390  Biso   1.000  C
  C95      1.0000 0.20540  0.88320  0.15110  Biso   1.000  C
  H56      1.0000 0.25700  0.84380  0.16610  Biso   1.000  H
  C96      1.0000 0.14520  0.93780  0.18830  Biso   1.000  C
  H57      1.0000 0.14750  0.94260  0.23370  Biso   1.000  H
  C97      1.0000 0.07560  0.98830  0.14580  Biso   1.000  C
  C98      1.0000 0.00640  0.95070  0.83520  Biso   1.000  C
  C99      1.0000 0.00580  0.92970  0.76270  Biso   1.000  C
  C100     1.0000 0.12060  0.92220  0.71950  Biso   1.000  C
  H58      1.0000 0.20370  0.92910  0.73420  Biso   1.000  H
  C101     1.0000 0.11380  0.90420  0.65400  Biso   1.000  C
  H59      1.0000 0.19250  0.89980  0.62480  Biso   1.000  H
  C102     1.0000 0.87790  0.91850  0.73870  Biso   1.000  C
  H60      1.0000 0.79660  0.92580  0.76550  Biso   1.000  H
  C103     1.0000 0.88360  0.89650  0.67490  Biso   1.000  C
  H61      1.0000 0.80470  0.88290  0.65950  Biso   1.000  H
  C104     1.0000 0.98900  0.87150  0.56240  Biso   1.000  C
  H62      1.0000 0.06930  0.84330  0.54610  Biso   1.000  H
  H63      1.0000 0.97990  0.91440  0.53500  Biso   1.000  H
  H64      1.0000 0.91220  0.84270  0.56120  Biso   1.000  H
