data_HEFVAR_clean
_audit_creation_date              2014-07-02
_audit_creation_method            'Materials Studio'
_symmetry_space_group_name_H-M    'P1'
_symmetry_Int_Tables_number       1
_symmetry_cell_setting            triclinic
loop_
_symmetry_equiv_pos_as_xyz
  x,y,z
_cell_length_a                    15.6530
_cell_length_b                    16.0791
_cell_length_c                    16.0791
_cell_angle_alpha                 112.3230
_cell_angle_beta                  90.8118
_cell_angle_gamma                 90.8118
loop_
_atom_site_label
_atom_site_type_symbol
_atom_site_fract_x
_atom_site_fract_y
_atom_site_fract_z
_atom_site_U_iso_or_equiv
_atom_site_adp_type
_atom_site_occupancy
Cu1    Cu    0.06538   0.20490   0.71796   0.01267  Uiso   1.00
Cu2    Cu    0.43136   0.81254   0.34094   0.01267  Uiso   1.00
Cu3    Cu    0.43462   0.28204   0.79510   0.01267  Uiso   1.00
Cu4    Cu    0.06864   0.65906   0.18746   0.01267  Uiso   1.00
Cu5    Cu    0.93462   0.79510   0.28204   0.01267  Uiso   1.00
Cu6    Cu    0.56864   0.18746   0.65906   0.01267  Uiso   1.00
Cu7    Cu    0.56538   0.71796   0.20490   0.01267  Uiso   1.00
Cu8    Cu    0.93136   0.34094   0.81254   0.01267  Uiso   1.00
Cu9    Cu    0.25000   0.77131   0.22869   0.01267  Uiso   1.00
Cu10   Cu    0.75000   0.22869   0.77131   0.01267  Uiso   1.00
H1     H     0.15860   0.15600   0.09220   0.01267  Uiso   1.00
H2     H     0.10420   0.15750   0.95710   0.01267  Uiso   1.00
H3     H     0.05630   0.42150   0.08550   0.01267  Uiso   1.00
H4     H     0.12170   0.41690   0.21490   0.01267  Uiso   1.00
H5     H     0.77360   0.89690   0.71070   0.01267  Uiso   1.00
H6     H     0.85720   0.01930   0.71650   0.01267  Uiso   1.00
H7     H     0.06440   0.89020   0.75780   0.01267  Uiso   1.00
H8     H     0.97580   0.77180   0.75080   0.01267  Uiso   1.00
H9     H     0.77840   0.40930   0.45950   0.01267  Uiso   1.00
H10    H     0.85070   0.41300   0.58840   0.01267  Uiso   1.00
H11    H     0.88750   0.14410   0.46410   0.01267  Uiso   1.00
H12    H     0.80830   0.14760   0.34000   0.01267  Uiso   1.00
H13    H     0.33160   0.54070   0.71830   0.01267  Uiso   1.00
H14    H     0.26290   0.41810   0.73290   0.01267  Uiso   1.00
H15    H     0.03640   0.53680   0.73020   0.01267  Uiso   1.00
H16    H     0.11120   0.65360   0.71140   0.01267  Uiso   1.00
H17    H     0.03770   0.07900   0.52900   0.01267  Uiso   1.00
H18    H     0.10600   0.96390   0.41930   0.01267  Uiso   1.00
H19    H     0.32410   0.03770   0.56810   0.01267  Uiso   1.00
H20    H     0.24960   0.15090   0.67650   0.01267  Uiso   1.00
H21    H     0.34140   0.90780   0.84400   0.01267  Uiso   1.00
H22    H     0.39580   0.04290   0.84250   0.01267  Uiso   1.00
H23    H     0.44370   0.91450   0.57850   0.01267  Uiso   1.00
H24    H     0.37830   0.78510   0.58310   0.01267  Uiso   1.00
H25    H     0.72640   0.28930   0.10310   0.01267  Uiso   1.00
H26    H     0.64280   0.28350   0.98070   0.01267  Uiso   1.00
H27    H     0.43560   0.24220   0.10980   0.01267  Uiso   1.00
H28    H     0.52420   0.24920   0.22820   0.01267  Uiso   1.00
H29    H     0.72160   0.54050   0.59070   0.01267  Uiso   1.00
H30    H     0.64930   0.41160   0.58700   0.01267  Uiso   1.00
H31    H     0.61250   0.53590   0.85590   0.01267  Uiso   1.00
H32    H     0.69170   0.66000   0.85240   0.01267  Uiso   1.00
H33    H     0.16840   0.28170   0.45930   0.01267  Uiso   1.00
H34    H     0.23710   0.26710   0.58190   0.01267  Uiso   1.00
H35    H     0.46360   0.26980   0.46320   0.01267  Uiso   1.00
H36    H     0.38880   0.28860   0.34640   0.01267  Uiso   1.00
H37    H     0.46230   0.47100   0.92100   0.01267  Uiso   1.00
H38    H     0.39400   0.58070   0.03610   0.01267  Uiso   1.00
H39    H     0.17590   0.43190   0.96230   0.01267  Uiso   1.00
H40    H     0.25040   0.32350   0.84910   0.01267  Uiso   1.00
H41    H     0.84140   0.84400   0.90780   0.01267  Uiso   1.00
H42    H     0.89580   0.84250   0.04290   0.01267  Uiso   1.00
H43    H     0.94370   0.57850   0.91450   0.01267  Uiso   1.00
H44    H     0.87830   0.58310   0.78510   0.01267  Uiso   1.00
H45    H     0.22640   0.10310   0.28930   0.01267  Uiso   1.00
H46    H     0.14280   0.98070   0.28350   0.01267  Uiso   1.00
H47    H     0.93560   0.10980   0.24220   0.01267  Uiso   1.00
H48    H     0.02420   0.22820   0.24920   0.01267  Uiso   1.00
H49    H     0.22160   0.59070   0.54050   0.01267  Uiso   1.00
H50    H     0.14930   0.58700   0.41160   0.01267  Uiso   1.00
H51    H     0.11250   0.85590   0.53590   0.01267  Uiso   1.00
H52    H     0.19170   0.85240   0.66000   0.01267  Uiso   1.00
H53    H     0.66840   0.45930   0.28170   0.01267  Uiso   1.00
H54    H     0.73710   0.58190   0.26710   0.01267  Uiso   1.00
H55    H     0.96360   0.46320   0.26980   0.01267  Uiso   1.00
H56    H     0.88880   0.34640   0.28860   0.01267  Uiso   1.00
H57    H     0.96230   0.92100   0.47100   0.01267  Uiso   1.00
H58    H     0.89400   0.03610   0.58070   0.01267  Uiso   1.00
H59    H     0.67590   0.96230   0.43190   0.01267  Uiso   1.00
H60    H     0.75040   0.84910   0.32350   0.01267  Uiso   1.00
H61    H     0.65860   0.09220   0.15600   0.01267  Uiso   1.00
H62    H     0.60420   0.95710   0.15750   0.01267  Uiso   1.00
H63    H     0.55630   0.08550   0.42150   0.01267  Uiso   1.00
H64    H     0.62170   0.21490   0.41690   0.01267  Uiso   1.00
H65    H     0.27360   0.71070   0.89690   0.01267  Uiso   1.00
H66    H     0.35720   0.71650   0.01930   0.01267  Uiso   1.00
H67    H     0.56440   0.75780   0.89020   0.01267  Uiso   1.00
H68    H     0.47580   0.75080   0.77180   0.01267  Uiso   1.00
H69    H     0.27840   0.45950   0.40930   0.01267  Uiso   1.00
H70    H     0.35070   0.58840   0.41300   0.01267  Uiso   1.00
H71    H     0.38750   0.46410   0.14410   0.01267  Uiso   1.00
H72    H     0.30830   0.34000   0.14760   0.01267  Uiso   1.00
H73    H     0.83160   0.71830   0.54070   0.01267  Uiso   1.00
H74    H     0.76290   0.73290   0.41810   0.01267  Uiso   1.00
H75    H     0.53640   0.73020   0.53680   0.01267  Uiso   1.00
H76    H     0.61120   0.71140   0.65360   0.01267  Uiso   1.00
H77    H     0.53770   0.52900   0.07900   0.01267  Uiso   1.00
H78    H     0.60600   0.41930   0.96390   0.01267  Uiso   1.00
H79    H     0.82410   0.56810   0.03770   0.01267  Uiso   1.00
H80    H     0.74960   0.67650   0.15090   0.01267  Uiso   1.00
Rh1    Rh    0.20934   0.28449   0.27735   0.01267  Uiso   1.00
Rh2    Rh    0.29066   0.72265   0.71551   0.01267  Uiso   1.00
Rh3    Rh    0.79066   0.71551   0.72265   0.01267  Uiso   1.00
Rh4    Rh    0.70934   0.27735   0.28449   0.01267  Uiso   1.00
C1     C     0.14040   0.21120   0.09000   0.01267  Uiso   1.00
C2     C     0.10690   0.21130   0.00930   0.01267  Uiso   1.00
C3     C     0.07750   0.29120   0.00640   0.01267  Uiso   1.00
C4     C     0.08000   0.36720   0.08460   0.01267  Uiso   1.00
C5     C     0.11740   0.36350   0.16210   0.01267  Uiso   1.00
C6     C     0.04510   0.29400   0.92020   0.01267  Uiso   1.00
C7     C     0.83370   0.89570   0.71950   0.01267  Uiso   1.00
C8     C     0.88290   0.96880   0.72280   0.01267  Uiso   1.00
C9     C     0.97100   0.96710   0.73530   0.01267  Uiso   1.00
C10    C     0.00480   0.89240   0.74700   0.01267  Uiso   1.00
C11    C     0.95180   0.82220   0.74300   0.01267  Uiso   1.00
C12    C     0.03120   0.04230   0.73530   0.01267  Uiso   1.00
C13    C     0.79900   0.35470   0.46170   0.01267  Uiso   1.00
C14    C     0.84190   0.35750   0.53870   0.01267  Uiso   1.00
C15    C     0.87210   0.27730   0.54210   0.01267  Uiso   1.00
C16    C     0.86320   0.19850   0.46590   0.01267  Uiso   1.00
C17    C     0.81720   0.20160   0.39140   0.01267  Uiso   1.00
C18    C     0.91190   0.27810   0.62830   0.01267  Uiso   1.00
C19    C     0.27110   0.54010   0.72150   0.01267  Uiso   1.00
C20    C     0.23050   0.46650   0.73010   0.01267  Uiso   1.00
C21    C     0.14310   0.46440   0.73460   0.01267  Uiso   1.00
C22    C     0.09710   0.53630   0.72790   0.01267  Uiso   1.00
C23    C     0.14210   0.60600   0.71800   0.01267  Uiso   1.00
C24    C     0.09360   0.39100   0.75060   0.01267  Uiso   1.00
C25    C     0.09650   0.07000   0.53760   0.01267  Uiso   1.00
C26    C     0.13690   0.00140   0.47180   0.01267  Uiso   1.00
C27    C     0.22120   0.98730   0.48210   0.01267  Uiso   1.00
C28    C     0.26490   0.04470   0.55950   0.01267  Uiso   1.00
C29    C     0.21980   0.11240   0.62380   0.01267  Uiso   1.00
C30    C     0.26850   0.91040   0.41340   0.01267  Uiso   1.00
C31    C     0.35960   0.91000   0.78880   0.01267  Uiso   1.00
C32    C     0.39310   0.99070   0.78870   0.01267  Uiso   1.00
C33    C     0.42250   0.99360   0.70880   0.01267  Uiso   1.00
C34    C     0.42000   0.91540   0.63280   0.01267  Uiso   1.00
C35    C     0.38260   0.83790   0.63650   0.01267  Uiso   1.00
C36    C     0.45490   0.07980   0.70600   0.01267  Uiso   1.00
C37    C     0.66630   0.28050   0.10430   0.01267  Uiso   1.00
C38    C     0.61710   0.27720   0.03120   0.01267  Uiso   1.00
C39    C     0.52900   0.26470   0.03290   0.01267  Uiso   1.00
C40    C     0.49520   0.25300   0.10760   0.01267  Uiso   1.00
C41    C     0.54820   0.25700   0.17780   0.01267  Uiso   1.00
C42    C     0.46880   0.26470   0.95770   0.01267  Uiso   1.00
C43    C     0.70100   0.53830   0.64530   0.01267  Uiso   1.00
C44    C     0.65810   0.46130   0.64250   0.01267  Uiso   1.00
C45    C     0.62790   0.45790   0.72270   0.01267  Uiso   1.00
C46    C     0.63680   0.53410   0.80150   0.01267  Uiso   1.00
C47    C     0.68280   0.60860   0.79840   0.01267  Uiso   1.00
C48    C     0.58810   0.37170   0.72190   0.01267  Uiso   1.00
C49    C     0.22890   0.27850   0.45990   0.01267  Uiso   1.00
C50    C     0.26950   0.26990   0.53350   0.01267  Uiso   1.00
C51    C     0.35690   0.26540   0.53560   0.01267  Uiso   1.00
C52    C     0.40290   0.27210   0.46370   0.01267  Uiso   1.00
C53    C     0.35790   0.28200   0.39400   0.01267  Uiso   1.00
C54    C     0.40640   0.24940   0.60900   0.01267  Uiso   1.00
C55    C     0.40350   0.46240   0.93000   0.01267  Uiso   1.00
C56    C     0.36310   0.52820   0.99860   0.01267  Uiso   1.00
C57    C     0.27880   0.51790   0.01270   0.01267  Uiso   1.00
C58    C     0.23510   0.44050   0.95530   0.01267  Uiso   1.00
C59    C     0.28020   0.37620   0.88760   0.01267  Uiso   1.00
C60    C     0.23150   0.58660   0.08960   0.01267  Uiso   1.00
C61    C     0.85960   0.78880   0.91000   0.01267  Uiso   1.00
C62    C     0.89310   0.78870   0.99070   0.01267  Uiso   1.00
C63    C     0.92250   0.70880   0.99360   0.01267  Uiso   1.00
C64    C     0.92000   0.63280   0.91540   0.01267  Uiso   1.00
C65    C     0.88260   0.63650   0.83790   0.01267  Uiso   1.00
C66    C     0.95490   0.70600   0.07980   0.01267  Uiso   1.00
C67    C     0.16630   0.10430   0.28050   0.01267  Uiso   1.00
C68    C     0.11710   0.03120   0.27720   0.01267  Uiso   1.00
C69    C     0.02900   0.03290   0.26470   0.01267  Uiso   1.00
C70    C     0.99520   0.10760   0.25300   0.01267  Uiso   1.00
C71    C     0.04820   0.17780   0.25700   0.01267  Uiso   1.00
C72    C     0.96880   0.95770   0.26470   0.01267  Uiso   1.00
C73    C     0.20100   0.64530   0.53830   0.01267  Uiso   1.00
C74    C     0.15810   0.64250   0.46130   0.01267  Uiso   1.00
C75    C     0.12790   0.72270   0.45790   0.01267  Uiso   1.00
C76    C     0.13680   0.80150   0.53410   0.01267  Uiso   1.00
C77    C     0.18280   0.79840   0.60860   0.01267  Uiso   1.00
C78    C     0.08810   0.72190   0.37170   0.01267  Uiso   1.00
C79    C     0.72890   0.45990   0.27850   0.01267  Uiso   1.00
C80    C     0.76950   0.53350   0.26990   0.01267  Uiso   1.00
C81    C     0.85690   0.53560   0.26540   0.01267  Uiso   1.00
C82    C     0.90290   0.46370   0.27210   0.01267  Uiso   1.00
C83    C     0.85790   0.39400   0.28200   0.01267  Uiso   1.00
C84    C     0.90640   0.60900   0.24940   0.01267  Uiso   1.00
C85    C     0.90350   0.93000   0.46240   0.01267  Uiso   1.00
C86    C     0.86310   0.99860   0.52820   0.01267  Uiso   1.00
C87    C     0.77880   0.01270   0.51790   0.01267  Uiso   1.00
C88    C     0.73510   0.95530   0.44050   0.01267  Uiso   1.00
C89    C     0.78020   0.88760   0.37620   0.01267  Uiso   1.00
C90    C     0.73150   0.08960   0.58660   0.01267  Uiso   1.00
C91    C     0.64040   0.09000   0.21120   0.01267  Uiso   1.00
C92    C     0.60690   0.00930   0.21130   0.01267  Uiso   1.00
C93    C     0.57750   0.00640   0.29120   0.01267  Uiso   1.00
C94    C     0.58000   0.08460   0.36720   0.01267  Uiso   1.00
C95    C     0.61740   0.16210   0.36350   0.01267  Uiso   1.00
C96    C     0.54510   0.92020   0.29400   0.01267  Uiso   1.00
C97    C     0.33370   0.71950   0.89570   0.01267  Uiso   1.00
C98    C     0.38290   0.72280   0.96880   0.01267  Uiso   1.00
C99    C     0.47100   0.73530   0.96710   0.01267  Uiso   1.00
C100   C     0.50480   0.74700   0.89240   0.01267  Uiso   1.00
C101   C     0.45180   0.74300   0.82220   0.01267  Uiso   1.00
C102   C     0.53120   0.73530   0.04230   0.01267  Uiso   1.00
C103   C     0.29900   0.46170   0.35470   0.01267  Uiso   1.00
C104   C     0.34190   0.53870   0.35750   0.01267  Uiso   1.00
C105   C     0.37210   0.54210   0.27730   0.01267  Uiso   1.00
C106   C     0.36320   0.46590   0.19850   0.01267  Uiso   1.00
C107   C     0.31720   0.39140   0.20160   0.01267  Uiso   1.00
C108   C     0.41190   0.62830   0.27810   0.01267  Uiso   1.00
C109   C     0.77110   0.72150   0.54010   0.01267  Uiso   1.00
C110   C     0.73050   0.73010   0.46650   0.01267  Uiso   1.00
C111   C     0.64310   0.73460   0.46440   0.01267  Uiso   1.00
C112   C     0.59710   0.72790   0.53630   0.01267  Uiso   1.00
C113   C     0.64210   0.71800   0.60600   0.01267  Uiso   1.00
C114   C     0.59360   0.75060   0.39100   0.01267  Uiso   1.00
C115   C     0.59650   0.53760   0.07000   0.01267  Uiso   1.00
C116   C     0.63690   0.47180   0.00140   0.01267  Uiso   1.00
C117   C     0.72120   0.48210   0.98730   0.01267  Uiso   1.00
C118   C     0.76490   0.55950   0.04470   0.01267  Uiso   1.00
C119   C     0.71980   0.62380   0.11240   0.01267  Uiso   1.00
C120   C     0.76850   0.41340   0.91040   0.01267  Uiso   1.00
N1     N     0.14790   0.28580   0.16460   0.01267  Uiso   1.00
N2     N     0.86710   0.82240   0.72840   0.01267  Uiso   1.00
N3     N     0.78540   0.27880   0.39060   0.01267  Uiso   1.00
N4     N     0.22870   0.60990   0.71750   0.01267  Uiso   1.00
N5     N     0.13740   0.12600   0.61520   0.01267  Uiso   1.00
N6     N     0.35210   0.83540   0.71420   0.01267  Uiso   1.00
N7     N     0.63290   0.27160   0.17760   0.01267  Uiso   1.00
N8     N     0.71460   0.60940   0.72120   0.01267  Uiso   1.00
N9     N     0.27130   0.28250   0.39010   0.01267  Uiso   1.00
N10    N     0.36260   0.38480   0.87400   0.01267  Uiso   1.00
N11    N     0.85210   0.71420   0.83540   0.01267  Uiso   1.00
N12    N     0.13290   0.17760   0.27160   0.01267  Uiso   1.00
N13    N     0.21460   0.72120   0.60940   0.01267  Uiso   1.00
N14    N     0.77130   0.39010   0.28250   0.01267  Uiso   1.00
N15    N     0.86260   0.87400   0.38480   0.01267  Uiso   1.00
N16    N     0.64790   0.16460   0.28580   0.01267  Uiso   1.00
N17    N     0.36710   0.72840   0.82240   0.01267  Uiso   1.00
N18    N     0.28540   0.39060   0.27880   0.01267  Uiso   1.00
N19    N     0.72870   0.71750   0.60990   0.01267  Uiso   1.00
N20    N     0.63740   0.61520   0.12600   0.01267  Uiso   1.00
Cl1    Cl    0.30879   0.18507   0.18893   0.01267  Uiso   1.00
Cl2    Cl    0.11059   0.38511   0.36833   0.01267  Uiso   1.00
Cl3    Cl    0.19121   0.81107   0.81493   0.01267  Uiso   1.00
Cl4    Cl    0.38941   0.63167   0.61489   0.01267  Uiso   1.00
Cl5    Cl    0.69121   0.81493   0.81107   0.01267  Uiso   1.00
Cl6    Cl    0.88941   0.61489   0.63167   0.01267  Uiso   1.00
Cl7    Cl    0.80879   0.18893   0.18507   0.01267  Uiso   1.00
Cl8    Cl    0.61059   0.36833   0.38511   0.01267  Uiso   1.00
O1     O     0.98630   0.34810   0.92470   0.01267  Uiso   1.00
O2     O     0.07980   0.24210   0.84970   0.01267  Uiso   1.00
O3     O     0.99540   0.10300   0.71420   0.01267  Uiso   1.00
O4     O     0.10690   0.03770   0.75050   0.01267  Uiso   1.00
O5     O     0.88280   0.33610   0.69870   0.01267  Uiso   1.00
O6     O     0.96860   0.22170   0.62350   0.01267  Uiso   1.00
O7     O     0.12520   0.31380   0.72020   0.01267  Uiso   1.00
O8     O     0.02620   0.41430   0.79310   0.01267  Uiso   1.00
O9     O     0.34020   0.89140   0.43520   0.01267  Uiso   1.00
O10    O     0.22680   0.87270   0.33950   0.01267  Uiso   1.00
O11    O     0.36620   0.80570   0.23210   0.01267  Uiso   1.00
O12    O     0.51370   0.07530   0.65190   0.01267  Uiso   1.00
O13    O     0.42020   0.15030   0.75790   0.01267  Uiso   1.00
O14    O     0.50460   0.28580   0.89700   0.01267  Uiso   1.00
O15    O     0.39310   0.24950   0.96230   0.01267  Uiso   1.00
O16    O     0.61720   0.30130   0.66390   0.01267  Uiso   1.00
O17    O     0.53140   0.37650   0.77830   0.01267  Uiso   1.00
O18    O     0.37480   0.27980   0.68620   0.01267  Uiso   1.00
O19    O     0.47380   0.20690   0.58570   0.01267  Uiso   1.00
O20    O     0.15980   0.56480   0.10860   0.01267  Uiso   1.00
O21    O     0.27320   0.66050   0.12730   0.01267  Uiso   1.00
O22    O     0.13380   0.76790   0.19430   0.01267  Uiso   1.00
O23    O     0.01370   0.65190   0.07530   0.01267  Uiso   1.00
O24    O     0.92020   0.75790   0.15030   0.01267  Uiso   1.00
O25    O     0.00460   0.89700   0.28580   0.01267  Uiso   1.00
O26    O     0.89310   0.96230   0.24950   0.01267  Uiso   1.00
O27    O     0.11720   0.66390   0.30130   0.01267  Uiso   1.00
O28    O     0.03140   0.77830   0.37650   0.01267  Uiso   1.00
O29    O     0.87480   0.68620   0.27980   0.01267  Uiso   1.00
O30    O     0.97380   0.58570   0.20690   0.01267  Uiso   1.00
O31    O     0.65980   0.10860   0.56480   0.01267  Uiso   1.00
O32    O     0.77320   0.12730   0.66050   0.01267  Uiso   1.00
O33    O     0.63380   0.19430   0.76790   0.01267  Uiso   1.00
O34    O     0.48630   0.92470   0.34810   0.01267  Uiso   1.00
O35    O     0.57980   0.84970   0.24210   0.01267  Uiso   1.00
O36    O     0.49540   0.71420   0.10300   0.01267  Uiso   1.00
O37    O     0.60690   0.75050   0.03770   0.01267  Uiso   1.00
O38    O     0.38280   0.69870   0.33610   0.01267  Uiso   1.00
O39    O     0.46860   0.62350   0.22170   0.01267  Uiso   1.00
O40    O     0.62520   0.72020   0.31380   0.01267  Uiso   1.00
O41    O     0.52620   0.79310   0.41430   0.01267  Uiso   1.00
O42    O     0.84020   0.43520   0.89140   0.01267  Uiso   1.00
O43    O     0.72680   0.33950   0.87270   0.01267  Uiso   1.00
O44    O     0.86620   0.23210   0.80570   0.01267  Uiso   1.00
