data_image0
_cell_length_a       23.6965
_cell_length_b       23.6965
_cell_length_c       13.5437
_cell_angle_alpha    90
_cell_angle_beta     90
_cell_angle_gamma    120

_symmetry_space_group_name_H-M    "P 1"
_symmetry_int_tables_number       1

loop_
  _symmetry_equiv_pos_as_xyz
  'x, y, z'

loop_
  _atom_site_label
  _atom_site_occupancy
  _atom_site_fract_x
  _atom_site_fract_y
  _atom_site_fract_z
  _atom_site_thermal_displace_type
  _atom_site_B_iso_or_equiv
  _atom_site_type_symbol
  Fe1      1.0000 0.36123  0.09308  0.11893  Biso   1.000  Fe
  Ga1      1.0000 0.34990  0.24363  0.91668  Biso   1.000  Ga
  P1       1.0000 0.41936  0.23695  0.12064  Biso   1.000  P
  P2       1.0000 0.32701  0.98661  0.27598  Biso   1.000  P
  O1       1.0000 0.36890  0.21180  0.03800  Biso   1.000  O
  O2       1.0000 0.42340  0.17680  0.15680  Biso   1.000  O
  O3       1.0000 0.39160  0.25980  0.20710  Biso   1.000  O
  O4       1.0000 0.48470  0.29080  0.09140  Biso   1.000  O
  O5       1.0000 0.37620  0.04500  0.21270  Biso   1.000  O
  O6       1.0000 0.36610  0.95710  0.32280  Biso   1.000  O
  O7       1.0000 0.27160  0.93610  0.21560  Biso   1.000  O
  O8       1.0000 0.30030  0.00970  0.35930  Biso   1.000  O
  N1       1.0000 0.44440  0.27770  0.86940  Biso   1.000  N
  N2       1.0000 0.33350  0.15680  0.85270  Biso   1.000  N
  N3       1.0000 0.25140  0.18880  0.94260  Biso   1.000  N
  C1       1.0000 0.44830  0.22050  0.82800  Biso   1.000  C
  C2       1.0000 0.38520  0.17440  0.77950  Biso   1.000  C
  C3       1.0000 0.26610  0.12360  0.81860  Biso   1.000  C
  C4       1.0000 0.22470  0.12080  0.90490  Biso   1.000  C
  H1       1.0000 0.47620  0.29130  0.92040  Biso   1.000  H
  H2       1.0000 0.45760  0.31240  0.82500  Biso   1.000  H
  H3       1.0000 0.22470  0.20600  0.90940  Biso   1.000  H
  H4       1.0000 0.24870  0.18300  0.01420  Biso   1.000  H
  H5       1.0000 0.45120  0.19710  0.89350  Biso   1.000  H
  H6       1.0000 0.38890  0.13120  0.76340  Biso   1.000  H
  H7       1.0000 0.37990  0.20900  0.72430  Biso   1.000  H
  H8       1.0000 0.26420  0.14860  0.75130  Biso   1.000  H
  H9       1.0000 0.24240  0.07560  0.78960  Biso   1.000  H
  H10      1.0000 0.17460  0.09780  0.87880  Biso   1.000  H
  H11      1.0000 0.22290  0.09420  0.97320  Biso   1.000  H
  Ga2      1.0000 0.30544  0.24025  0.21440  Biso   1.000  Ga
  Fe2      1.0000 0.02790  0.42641  0.45226  Biso   1.000  Fe
  Ga3      1.0000 0.01657  0.57696  0.25001  Biso   1.000  Ga
  P3       1.0000 0.08603  0.57028  0.45397  Biso   1.000  P
  P4       1.0000 0.99368  0.31994  0.60931  Biso   1.000  P
  O9       1.0000 0.03557  0.54513  0.37133  Biso   1.000  O
  O10      1.0000 0.09007  0.51013  0.49013  Biso   1.000  O
  O11      1.0000 0.05827  0.59313  0.54043  Biso   1.000  O
  O12      1.0000 0.15137  0.62413  0.42473  Biso   1.000  O
  O13      1.0000 0.04287  0.37833  0.54603  Biso   1.000  O
  O14      1.0000 0.03277  0.29043  0.65613  Biso   1.000  O
  O15      1.0000 0.93827  0.26943  0.54893  Biso   1.000  O
  O16      1.0000 0.96697  0.34303  0.69263  Biso   1.000  O
  N4       1.0000 0.11107  0.61103  0.20273  Biso   1.000  N
  N5       1.0000 0.00017  0.49013  0.18603  Biso   1.000  N
  N6       1.0000 0.91807  0.52213  0.27593  Biso   1.000  N
  C5       1.0000 0.11497  0.55383  0.16133  Biso   1.000  C
  C6       1.0000 0.05187  0.50773  0.11283  Biso   1.000  C
  C7       1.0000 0.93277  0.45693  0.15193  Biso   1.000  C
  C8       1.0000 0.89137  0.45413  0.23823  Biso   1.000  C
  H12      1.0000 0.14287  0.62463  0.25373  Biso   1.000  H
  H13      1.0000 0.12427  0.64573  0.15833  Biso   1.000  H
  H14      1.0000 0.89137  0.53933  0.24273  Biso   1.000  H
  H15      1.0000 0.91537  0.51633  0.34753  Biso   1.000  H
  H16      1.0000 0.11787  0.53043  0.22683  Biso   1.000  H
  H17      1.0000 0.05557  0.46453  0.09673  Biso   1.000  H
  H18      1.0000 0.04657  0.54233  0.05763  Biso   1.000  H
  H19      1.0000 0.93087  0.48193  0.08463  Biso   1.000  H
  H20      1.0000 0.90907  0.40893  0.12293  Biso   1.000  H
  H21      1.0000 0.84127  0.43113  0.21213  Biso   1.000  H
  H22      1.0000 0.88957  0.42753  0.30653  Biso   1.000  H
  Ga4      1.0000 0.97210  0.57359  0.54774  Biso   1.000  Ga
  Fe3      1.0000 0.69456  0.75975  0.78560  Biso   1.000  Fe
  Ga5      1.0000 0.68323  0.91030  0.58335  Biso   1.000  Ga
  P5       1.0000 0.75269  0.90362  0.78731  Biso   1.000  P
  P6       1.0000 0.66034  0.65328  0.94265  Biso   1.000  P
  O17      1.0000 0.70223  0.87847  0.70467  Biso   1.000  O
  O18      1.0000 0.75673  0.84347  0.82347  Biso   1.000  O
  O19      1.0000 0.72493  0.92647  0.87377  Biso   1.000  O
  O20      1.0000 0.81803  0.95747  0.75807  Biso   1.000  O
  O21      1.0000 0.70953  0.71167  0.87937  Biso   1.000  O
  O22      1.0000 0.69943  0.62377  0.98947  Biso   1.000  O
  O23      1.0000 0.60493  0.60277  0.88227  Biso   1.000  O
  O24      1.0000 0.63363  0.67637  0.02597  Biso   1.000  O
  N7       1.0000 0.77773  0.94437  0.53607  Biso   1.000  N
  N8       1.0000 0.66683  0.82347  0.51937  Biso   1.000  N
  N9       1.0000 0.58473  0.85547  0.60927  Biso   1.000  N
  C9       1.0000 0.78163  0.88717  0.49467  Biso   1.000  C
  C10      1.0000 0.71853  0.84107  0.44617  Biso   1.000  C
  C11      1.0000 0.59943  0.79027  0.48527  Biso   1.000  C
  C12      1.0000 0.55803  0.78747  0.57157  Biso   1.000  C
  H23      1.0000 0.80953  0.95797  0.58707  Biso   1.000  H
  H24      1.0000 0.79093  0.97907  0.49167  Biso   1.000  H
  H25      1.0000 0.55803  0.87267  0.57607  Biso   1.000  H
  H26      1.0000 0.58203  0.84967  0.68087  Biso   1.000  H
  H27      1.0000 0.78453  0.86377  0.56017  Biso   1.000  H
  H28      1.0000 0.72223  0.79787  0.43007  Biso   1.000  H
  H29      1.0000 0.71323  0.87567  0.39097  Biso   1.000  H
  H30      1.0000 0.59753  0.81527  0.41797  Biso   1.000  H
  H31      1.0000 0.57573  0.74227  0.45627  Biso   1.000  H
  H32      1.0000 0.50793  0.76447  0.54547  Biso   1.000  H
  H33      1.0000 0.55623  0.76087  0.63987  Biso   1.000  H
  Ga6      1.0000 0.63877  0.90692  0.88107  Biso   1.000  Ga
  Fe4      1.0000 0.90692  0.26815  0.11893  Biso   1.000  Fe
  Ga7      1.0000 0.75637  0.10627  0.91668  Biso   1.000  Ga
  P7       1.0000 0.76305  0.18241  0.12064  Biso   1.000  P
  P8       1.0000 0.01339  0.34040  0.27598  Biso   1.000  P
  O25      1.0000 0.78820  0.15710  0.03800  Biso   1.000  O
  O26      1.0000 0.82320  0.24660  0.15680  Biso   1.000  O
  O27      1.0000 0.74020  0.13180  0.20710  Biso   1.000  O
  O28      1.0000 0.70920  0.19390  0.09140  Biso   1.000  O
  O29      1.0000 0.95500  0.33120  0.21270  Biso   1.000  O
  O30      1.0000 0.04290  0.40900  0.32280  Biso   1.000  O
  O31      1.0000 0.06390  0.33550  0.21560  Biso   1.000  O
  O32      1.0000 0.99030  0.29060  0.35930  Biso   1.000  O
  N10      1.0000 0.72230  0.16670  0.86940  Biso   1.000  N
  N11      1.0000 0.84320  0.17670  0.85270  Biso   1.000  N
  N12      1.0000 0.81120  0.06260  0.94260  Biso   1.000  N
  C13      1.0000 0.77950  0.22780  0.82800  Biso   1.000  C
  C14      1.0000 0.82560  0.21080  0.77950  Biso   1.000  C
  C15      1.0000 0.87640  0.14250  0.81860  Biso   1.000  C
  C16      1.0000 0.87920  0.10390  0.90490  Biso   1.000  C
  H34      1.0000 0.70870  0.18490  0.92040  Biso   1.000  H
  H35      1.0000 0.68760  0.14520  0.82500  Biso   1.000  H
  H36      1.0000 0.79400  0.01870  0.90940  Biso   1.000  H
  H37      1.0000 0.81700  0.06570  0.01420  Biso   1.000  H
  H38      1.0000 0.80290  0.25410  0.89350  Biso   1.000  H
  H39      1.0000 0.86880  0.25770  0.76340  Biso   1.000  H
  H40      1.0000 0.79100  0.17090  0.72430  Biso   1.000  H
  H41      1.0000 0.85140  0.11560  0.75130  Biso   1.000  H
  H42      1.0000 0.92440  0.16680  0.78960  Biso   1.000  H
  H43      1.0000 0.90220  0.07680  0.87880  Biso   1.000  H
  H44      1.0000 0.90580  0.12870  0.97320  Biso   1.000  H
  Ga8      1.0000 0.75975  0.06518  0.21440  Biso   1.000  Ga
  Fe5      1.0000 0.57359  0.60148  0.45226  Biso   1.000  Fe
  Ga9      1.0000 0.42304  0.43960  0.25001  Biso   1.000  Ga
  P9       1.0000 0.42972  0.51574  0.45397  Biso   1.000  P
  P10      1.0000 0.68006  0.67373  0.60931  Biso   1.000  P
  O33      1.0000 0.45487  0.49043  0.37133  Biso   1.000  O
  O34      1.0000 0.48987  0.57993  0.49013  Biso   1.000  O
  O35      1.0000 0.40687  0.46513  0.54043  Biso   1.000  O
  O36      1.0000 0.37587  0.52723  0.42473  Biso   1.000  O
  O37      1.0000 0.62167  0.66453  0.54603  Biso   1.000  O
  O38      1.0000 0.70957  0.74233  0.65613  Biso   1.000  O
  O39      1.0000 0.73057  0.66883  0.54893  Biso   1.000  O
  O40      1.0000 0.65697  0.62393  0.69263  Biso   1.000  O
  N13      1.0000 0.38897  0.50003  0.20273  Biso   1.000  N
  N14      1.0000 0.50987  0.51003  0.18603  Biso   1.000  N
  N15      1.0000 0.47787  0.39593  0.27593  Biso   1.000  N
  C17      1.0000 0.44617  0.56113  0.16133  Biso   1.000  C
  C18      1.0000 0.49227  0.54413  0.11283  Biso   1.000  C
  C19      1.0000 0.54307  0.47583  0.15193  Biso   1.000  C
  C20      1.0000 0.54587  0.43723  0.23823  Biso   1.000  C
  H45      1.0000 0.37537  0.51823  0.25373  Biso   1.000  H
  H46      1.0000 0.35427  0.47853  0.15833  Biso   1.000  H
  H47      1.0000 0.46067  0.35203  0.24273  Biso   1.000  H
  H48      1.0000 0.48367  0.39903  0.34753  Biso   1.000  H
  H49      1.0000 0.46957  0.58743  0.22683  Biso   1.000  H
  H50      1.0000 0.53547  0.59103  0.09673  Biso   1.000  H
  H51      1.0000 0.45767  0.50423  0.05763  Biso   1.000  H
  H52      1.0000 0.51807  0.44893  0.08463  Biso   1.000  H
  H53      1.0000 0.59107  0.50013  0.12293  Biso   1.000  H
  H54      1.0000 0.56887  0.41013  0.21213  Biso   1.000  H
  H55      1.0000 0.57247  0.46203  0.30653  Biso   1.000  H
  Ga10     1.0000 0.42641  0.39852  0.54774  Biso   1.000  Ga
  Fe6      1.0000 0.24025  0.93482  0.78560  Biso   1.000  Fe
  Ga11     1.0000 0.08970  0.77294  0.58335  Biso   1.000  Ga
  P11      1.0000 0.09638  0.84908  0.78731  Biso   1.000  P
  P12      1.0000 0.34672  0.00707  0.94265  Biso   1.000  P
  O41      1.0000 0.12153  0.82377  0.70467  Biso   1.000  O
  O42      1.0000 0.15653  0.91327  0.82347  Biso   1.000  O
  O43      1.0000 0.07353  0.79847  0.87377  Biso   1.000  O
  O44      1.0000 0.04253  0.86057  0.75807  Biso   1.000  O
  O45      1.0000 0.28833  0.99787  0.87937  Biso   1.000  O
  O46      1.0000 0.37623  0.07567  0.98947  Biso   1.000  O
  O47      1.0000 0.39723  0.00217  0.88227  Biso   1.000  O
  O48      1.0000 0.32363  0.95727  0.02597  Biso   1.000  O
  N16      1.0000 0.05563  0.83337  0.53607  Biso   1.000  N
  N17      1.0000 0.17653  0.84337  0.51937  Biso   1.000  N
  N18      1.0000 0.14453  0.72927  0.60927  Biso   1.000  N
  C21      1.0000 0.11283  0.89447  0.49467  Biso   1.000  C
  C22      1.0000 0.15893  0.87747  0.44617  Biso   1.000  C
  C23      1.0000 0.20973  0.80917  0.48527  Biso   1.000  C
  C24      1.0000 0.21253  0.77057  0.57157  Biso   1.000  C
  H56      1.0000 0.04203  0.85157  0.58707  Biso   1.000  H
  H57      1.0000 0.02093  0.81187  0.49167  Biso   1.000  H
  H58      1.0000 0.12733  0.68537  0.57607  Biso   1.000  H
  H59      1.0000 0.15033  0.73237  0.68087  Biso   1.000  H
  H60      1.0000 0.13623  0.92077  0.56017  Biso   1.000  H
  H61      1.0000 0.20213  0.92437  0.43007  Biso   1.000  H
  H62      1.0000 0.12433  0.83757  0.39097  Biso   1.000  H
  H63      1.0000 0.18473  0.78227  0.41797  Biso   1.000  H
  H64      1.0000 0.25773  0.83347  0.45627  Biso   1.000  H
  H65      1.0000 0.23553  0.74347  0.54547  Biso   1.000  H
  H66      1.0000 0.23913  0.79537  0.63987  Biso   1.000  H
  Ga12     1.0000 0.09308  0.73185  0.88107  Biso   1.000  Ga
  Fe7      1.0000 0.73185  0.63877  0.11893  Biso   1.000  Fe
  Ga13     1.0000 0.89373  0.65010  0.91668  Biso   1.000  Ga
  P13      1.0000 0.81759  0.58064  0.12064  Biso   1.000  P
  P14      1.0000 0.65960  0.67299  0.27598  Biso   1.000  P
  O49      1.0000 0.84290  0.63110  0.03800  Biso   1.000  O
  O50      1.0000 0.75340  0.57660  0.15680  Biso   1.000  O
  O51      1.0000 0.86820  0.60840  0.20710  Biso   1.000  O
  O52      1.0000 0.80610  0.51530  0.09140  Biso   1.000  O
  O53      1.0000 0.66880  0.62380  0.21270  Biso   1.000  O
  O54      1.0000 0.59100  0.63390  0.32280  Biso   1.000  O
  O55      1.0000 0.66450  0.72840  0.21560  Biso   1.000  O
  O56      1.0000 0.70940  0.69970  0.35930  Biso   1.000  O
  N19      1.0000 0.83330  0.55560  0.86940  Biso   1.000  N
  N20      1.0000 0.82330  0.66650  0.85270  Biso   1.000  N
  N21      1.0000 0.93740  0.74860  0.94260  Biso   1.000  N
  C25      1.0000 0.77220  0.55170  0.82800  Biso   1.000  C
  C26      1.0000 0.78920  0.61480  0.77950  Biso   1.000  C
  C27      1.0000 0.85750  0.73390  0.81860  Biso   1.000  C
  C28      1.0000 0.89610  0.77530  0.90490  Biso   1.000  C
  H67      1.0000 0.81510  0.52380  0.92040  Biso   1.000  H
  H68      1.0000 0.85480  0.54240  0.82500  Biso   1.000  H
  H69      1.0000 0.98130  0.77530  0.90940  Biso   1.000  H
  H70      1.0000 0.93430  0.75130  0.01420  Biso   1.000  H
  H71      1.0000 0.74590  0.54880  0.89350  Biso   1.000  H
  H72      1.0000 0.74230  0.61110  0.76340  Biso   1.000  H
  H73      1.0000 0.82910  0.62010  0.72430  Biso   1.000  H
  H74      1.0000 0.88440  0.73580  0.75130  Biso   1.000  H
  H75      1.0000 0.83320  0.75760  0.78960  Biso   1.000  H
  H76      1.0000 0.92320  0.82540  0.87880  Biso   1.000  H
  H77      1.0000 0.87130  0.77710  0.97320  Biso   1.000  H
  Ga14     1.0000 0.93482  0.69456  0.21440  Biso   1.000  Ga
  Fe8      1.0000 0.39852  0.97210  0.45226  Biso   1.000  Fe
  Ga15     1.0000 0.56040  0.98343  0.25001  Biso   1.000  Ga
  P15      1.0000 0.48426  0.91397  0.45397  Biso   1.000  P
  P16      1.0000 0.32627  0.00632  0.60931  Biso   1.000  P
  O57      1.0000 0.50957  0.96443  0.37133  Biso   1.000  O
  O58      1.0000 0.42007  0.90993  0.49013  Biso   1.000  O
  O59      1.0000 0.53487  0.94173  0.54043  Biso   1.000  O
  O60      1.0000 0.47277  0.84863  0.42473  Biso   1.000  O
  O61      1.0000 0.33547  0.95713  0.54603  Biso   1.000  O
  O62      1.0000 0.25767  0.96723  0.65613  Biso   1.000  O
  O63      1.0000 0.33117  0.06173  0.54893  Biso   1.000  O
  O64      1.0000 0.37607  0.03303  0.69263  Biso   1.000  O
  N22      1.0000 0.49997  0.88893  0.20273  Biso   1.000  N
  N23      1.0000 0.48997  0.99983  0.18603  Biso   1.000  N
  N24      1.0000 0.60407  0.08193  0.27593  Biso   1.000  N
  C29      1.0000 0.43887  0.88503  0.16133  Biso   1.000  C
  C30      1.0000 0.45587  0.94813  0.11283  Biso   1.000  C
  C31      1.0000 0.52417  0.06723  0.15193  Biso   1.000  C
  C32      1.0000 0.56277  0.10863  0.23823  Biso   1.000  C
  H78      1.0000 0.48177  0.85713  0.25373  Biso   1.000  H
  H79      1.0000 0.52147  0.87573  0.15833  Biso   1.000  H
  H80      1.0000 0.64797  0.10863  0.24273  Biso   1.000  H
  H81      1.0000 0.60097  0.08463  0.34753  Biso   1.000  H
  H82      1.0000 0.41257  0.88213  0.22683  Biso   1.000  H
  H83      1.0000 0.40897  0.94443  0.09673  Biso   1.000  H
  H84      1.0000 0.49577  0.95343  0.05763  Biso   1.000  H
  H85      1.0000 0.55107  0.06913  0.08463  Biso   1.000  H
  H86      1.0000 0.49987  0.09093  0.12293  Biso   1.000  H
  H87      1.0000 0.58987  0.15873  0.21213  Biso   1.000  H
  H88      1.0000 0.53797  0.11043  0.30653  Biso   1.000  H
  Ga16     1.0000 0.60148  0.02790  0.54774  Biso   1.000  Ga
  Fe9      1.0000 0.06518  0.30544  0.78560  Biso   1.000  Fe
  Ga17     1.0000 0.22706  0.31677  0.58335  Biso   1.000  Ga
  P17      1.0000 0.15092  0.24731  0.78731  Biso   1.000  P
  P18      1.0000 0.99293  0.33966  0.94265  Biso   1.000  P
  O65      1.0000 0.17623  0.29777  0.70467  Biso   1.000  O
  O66      1.0000 0.08673  0.24327  0.82347  Biso   1.000  O
  O67      1.0000 0.20153  0.27507  0.87377  Biso   1.000  O
  O68      1.0000 0.13943  0.18197  0.75807  Biso   1.000  O
  O69      1.0000 0.00213  0.29047  0.87937  Biso   1.000  O
  O70      1.0000 0.92433  0.30057  0.98947  Biso   1.000  O
  O71      1.0000 0.99783  0.39507  0.88227  Biso   1.000  O
  O72      1.0000 0.04273  0.36637  0.02597  Biso   1.000  O
  N25      1.0000 0.16663  0.22227  0.53607  Biso   1.000  N
  N26      1.0000 0.15663  0.33317  0.51937  Biso   1.000  N
  N27      1.0000 0.27073  0.41527  0.60927  Biso   1.000  N
  C33      1.0000 0.10553  0.21837  0.49467  Biso   1.000  C
  C34      1.0000 0.12253  0.28147  0.44617  Biso   1.000  C
  C35      1.0000 0.19083  0.40057  0.48527  Biso   1.000  C
  C36      1.0000 0.22943  0.44197  0.57157  Biso   1.000  C
  H89      1.0000 0.14843  0.19047  0.58707  Biso   1.000  H
  H90      1.0000 0.18813  0.20907  0.49167  Biso   1.000  H
  H91      1.0000 0.31463  0.44197  0.57607  Biso   1.000  H
  H92      1.0000 0.26763  0.41797  0.68087  Biso   1.000  H
  H93      1.0000 0.07923  0.21547  0.56017  Biso   1.000  H
  H94      1.0000 0.07563  0.27777  0.43007  Biso   1.000  H
  H95      1.0000 0.16243  0.28677  0.39097  Biso   1.000  H
  H96      1.0000 0.21773  0.40247  0.41797  Biso   1.000  H
  H97      1.0000 0.16653  0.42427  0.45627  Biso   1.000  H
  H98      1.0000 0.25653  0.49207  0.54547  Biso   1.000  H
  H99      1.0000 0.20463  0.44377  0.63987  Biso   1.000  H
  Ga18     1.0000 0.26815  0.36123  0.88107  Biso   1.000  Ga
  Ga19     1.0000 0.65010  0.75637  0.08332  Biso   1.000  Ga
  P19      1.0000 0.58064  0.76305  0.87936  Biso   1.000  P
  P20      1.0000 0.67299  0.01339  0.72402  Biso   1.000  P
  O73      1.0000 0.63110  0.78820  0.96200  Biso   1.000  O
  O74      1.0000 0.57660  0.82320  0.84320  Biso   1.000  O
  O75      1.0000 0.60840  0.74020  0.79290  Biso   1.000  O
  O76      1.0000 0.51530  0.70920  0.90860  Biso   1.000  O
  O77      1.0000 0.62380  0.95500  0.78730  Biso   1.000  O
  O78      1.0000 0.63390  0.04290  0.67720  Biso   1.000  O
  O79      1.0000 0.72840  0.06390  0.78440  Biso   1.000  O
  O80      1.0000 0.69970  0.99030  0.64070  Biso   1.000  O
  N28      1.0000 0.55560  0.72230  0.13060  Biso   1.000  N
  N29      1.0000 0.66650  0.84320  0.14730  Biso   1.000  N
  N30      1.0000 0.74860  0.81120  0.05740  Biso   1.000  N
  C37      1.0000 0.55170  0.77950  0.17200  Biso   1.000  C
  C38      1.0000 0.61480  0.82560  0.22050  Biso   1.000  C
  C39      1.0000 0.73390  0.87640  0.18140  Biso   1.000  C
  C40      1.0000 0.77530  0.87920  0.09510  Biso   1.000  C
  H100     1.0000 0.52380  0.70870  0.07960  Biso   1.000  H
  H101     1.0000 0.54240  0.68760  0.17500  Biso   1.000  H
  H102     1.0000 0.77530  0.79400  0.09060  Biso   1.000  H
  H103     1.0000 0.75130  0.81700  0.98580  Biso   1.000  H
  H104     1.0000 0.54880  0.80290  0.10650  Biso   1.000  H
  H105     1.0000 0.61110  0.86880  0.23660  Biso   1.000  H
  H106     1.0000 0.62010  0.79100  0.27570  Biso   1.000  H
  H107     1.0000 0.73580  0.85140  0.24870  Biso   1.000  H
  H108     1.0000 0.75760  0.92440  0.21040  Biso   1.000  H
  H109     1.0000 0.82540  0.90220  0.12120  Biso   1.000  H
  H110     1.0000 0.77710  0.90580  0.02680  Biso   1.000  H
  Ga20     1.0000 0.31677  0.08970  0.41665  Biso   1.000  Ga
  P21      1.0000 0.24731  0.09638  0.21269  Biso   1.000  P
  P22      1.0000 0.33966  0.34672  0.05735  Biso   1.000  P
  O81      1.0000 0.29777  0.12153  0.29533  Biso   1.000  O
  O82      1.0000 0.24327  0.15653  0.17653  Biso   1.000  O
  O83      1.0000 0.27507  0.07353  0.12623  Biso   1.000  O
  O84      1.0000 0.18197  0.04253  0.24193  Biso   1.000  O
  O85      1.0000 0.29047  0.28833  0.12063  Biso   1.000  O
  O86      1.0000 0.30057  0.37623  0.01053  Biso   1.000  O
  O87      1.0000 0.39507  0.39723  0.11773  Biso   1.000  O
  O88      1.0000 0.36637  0.32363  0.97403  Biso   1.000  O
  N31      1.0000 0.22227  0.05563  0.46393  Biso   1.000  N
  N32      1.0000 0.33317  0.17653  0.48063  Biso   1.000  N
  N33      1.0000 0.41527  0.14453  0.39073  Biso   1.000  N
  C41      1.0000 0.21837  0.11283  0.50533  Biso   1.000  C
  C42      1.0000 0.28147  0.15893  0.55383  Biso   1.000  C
  C43      1.0000 0.40057  0.20973  0.51473  Biso   1.000  C
  C44      1.0000 0.44197  0.21253  0.42843  Biso   1.000  C
  H111     1.0000 0.19047  0.04203  0.41293  Biso   1.000  H
  H112     1.0000 0.20907  0.02093  0.50833  Biso   1.000  H
  H113     1.0000 0.44197  0.12733  0.42393  Biso   1.000  H
  H114     1.0000 0.41797  0.15033  0.31913  Biso   1.000  H
  H115     1.0000 0.21547  0.13623  0.43983  Biso   1.000  H
  H116     1.0000 0.27777  0.20213  0.56993  Biso   1.000  H
  H117     1.0000 0.28677  0.12433  0.60903  Biso   1.000  H
  H118     1.0000 0.40247  0.18473  0.58203  Biso   1.000  H
  H119     1.0000 0.42427  0.25773  0.54373  Biso   1.000  H
  H120     1.0000 0.49207  0.23553  0.45453  Biso   1.000  H
  H121     1.0000 0.44377  0.23913  0.36013  Biso   1.000  H
  Ga21     1.0000 0.98343  0.42304  0.74999  Biso   1.000  Ga
  P23      1.0000 0.91397  0.42972  0.54603  Biso   1.000  P
  P24      1.0000 0.00632  0.68006  0.39069  Biso   1.000  P
  O89      1.0000 0.96443  0.45487  0.62867  Biso   1.000  O
  O90      1.0000 0.90993  0.48987  0.50987  Biso   1.000  O
  O91      1.0000 0.94173  0.40687  0.45957  Biso   1.000  O
  O92      1.0000 0.84863  0.37587  0.57527  Biso   1.000  O
  O93      1.0000 0.95713  0.62167  0.45397  Biso   1.000  O
  O94      1.0000 0.96723  0.70957  0.34387  Biso   1.000  O
  O95      1.0000 0.06173  0.73057  0.45107  Biso   1.000  O
  O96      1.0000 0.03303  0.65697  0.30737  Biso   1.000  O
  N34      1.0000 0.88893  0.38897  0.79727  Biso   1.000  N
  N35      1.0000 0.99983  0.50987  0.81397  Biso   1.000  N
  N36      1.0000 0.08193  0.47787  0.72407  Biso   1.000  N
  C45      1.0000 0.88503  0.44617  0.83867  Biso   1.000  C
  C46      1.0000 0.94813  0.49227  0.88717  Biso   1.000  C
  C47      1.0000 0.06723  0.54307  0.84807  Biso   1.000  C
  C48      1.0000 0.10863  0.54587  0.76177  Biso   1.000  C
  H122     1.0000 0.85713  0.37537  0.74627  Biso   1.000  H
  H123     1.0000 0.87573  0.35427  0.84167  Biso   1.000  H
  H124     1.0000 0.10863  0.46067  0.75727  Biso   1.000  H
  H125     1.0000 0.08463  0.48367  0.65247  Biso   1.000  H
  H126     1.0000 0.88213  0.46957  0.77317  Biso   1.000  H
  H127     1.0000 0.94443  0.53547  0.90327  Biso   1.000  H
  H128     1.0000 0.95343  0.45767  0.94237  Biso   1.000  H
  H129     1.0000 0.06913  0.51807  0.91537  Biso   1.000  H
  H130     1.0000 0.09093  0.59107  0.87707  Biso   1.000  H
  H131     1.0000 0.15873  0.56887  0.78787  Biso   1.000  H
  H132     1.0000 0.11043  0.57247  0.69347  Biso   1.000  H
  Ga22     1.0000 0.24363  0.89373  0.08332  Biso   1.000  Ga
  P25      1.0000 0.23695  0.81759  0.87936  Biso   1.000  P
  P26      1.0000 0.98661  0.65960  0.72402  Biso   1.000  P
  O97      1.0000 0.21180  0.84290  0.96200  Biso   1.000  O
  O98      1.0000 0.17680  0.75340  0.84320  Biso   1.000  O
  O99      1.0000 0.25980  0.86820  0.79290  Biso   1.000  O
  O100     1.0000 0.29080  0.80610  0.90860  Biso   1.000  O
  O101     1.0000 0.04500  0.66880  0.78730  Biso   1.000  O
  O102     1.0000 0.95710  0.59100  0.67720  Biso   1.000  O
  O103     1.0000 0.93610  0.66450  0.78440  Biso   1.000  O
  O104     1.0000 0.00970  0.70940  0.64070  Biso   1.000  O
  N37      1.0000 0.27770  0.83330  0.13060  Biso   1.000  N
  N38      1.0000 0.15680  0.82330  0.14730  Biso   1.000  N
  N39      1.0000 0.18880  0.93740  0.05740  Biso   1.000  N
  C49      1.0000 0.22050  0.77220  0.17200  Biso   1.000  C
  C50      1.0000 0.17440  0.78920  0.22050  Biso   1.000  C
  C51      1.0000 0.12360  0.85750  0.18140  Biso   1.000  C
  C52      1.0000 0.12080  0.89610  0.09510  Biso   1.000  C
  H133     1.0000 0.29130  0.81510  0.07960  Biso   1.000  H
  H134     1.0000 0.31240  0.85480  0.17500  Biso   1.000  H
  H135     1.0000 0.20600  0.98130  0.09060  Biso   1.000  H
  H136     1.0000 0.18300  0.93430  0.98580  Biso   1.000  H
  H137     1.0000 0.19710  0.74590  0.10650  Biso   1.000  H
  H138     1.0000 0.13120  0.74230  0.23660  Biso   1.000  H
  H139     1.0000 0.20900  0.82910  0.27570  Biso   1.000  H
  H140     1.0000 0.14860  0.88440  0.24870  Biso   1.000  H
  H141     1.0000 0.07560  0.83320  0.21040  Biso   1.000  H
  H142     1.0000 0.09780  0.92320  0.12120  Biso   1.000  H
  H143     1.0000 0.09420  0.87130  0.02680  Biso   1.000  H
  Ga23     1.0000 0.91030  0.22706  0.41665  Biso   1.000  Ga
  P27      1.0000 0.90362  0.15092  0.21269  Biso   1.000  P
  P28      1.0000 0.65328  0.99293  0.05735  Biso   1.000  P
  O105     1.0000 0.87847  0.17623  0.29533  Biso   1.000  O
  O106     1.0000 0.84347  0.08673  0.17653  Biso   1.000  O
  O107     1.0000 0.92647  0.20153  0.12623  Biso   1.000  O
  O108     1.0000 0.95747  0.13943  0.24193  Biso   1.000  O
  O109     1.0000 0.71167  0.00213  0.12063  Biso   1.000  O
  O110     1.0000 0.62377  0.92433  0.01053  Biso   1.000  O
  O111     1.0000 0.60277  0.99783  0.11773  Biso   1.000  O
  O112     1.0000 0.67637  0.04273  0.97403  Biso   1.000  O
  N40      1.0000 0.94437  0.16663  0.46393  Biso   1.000  N
  N41      1.0000 0.82347  0.15663  0.48063  Biso   1.000  N
  N42      1.0000 0.85547  0.27073  0.39073  Biso   1.000  N
  C53      1.0000 0.88717  0.10553  0.50533  Biso   1.000  C
  C54      1.0000 0.84107  0.12253  0.55383  Biso   1.000  C
  C55      1.0000 0.79027  0.19083  0.51473  Biso   1.000  C
  C56      1.0000 0.78747  0.22943  0.42843  Biso   1.000  C
  H144     1.0000 0.95797  0.14843  0.41293  Biso   1.000  H
  H145     1.0000 0.97907  0.18813  0.50833  Biso   1.000  H
  H146     1.0000 0.87267  0.31463  0.42393  Biso   1.000  H
  H147     1.0000 0.84967  0.26763  0.31913  Biso   1.000  H
  H148     1.0000 0.86377  0.07923  0.43983  Biso   1.000  H
  H149     1.0000 0.79787  0.07563  0.56993  Biso   1.000  H
  H150     1.0000 0.87567  0.16243  0.60903  Biso   1.000  H
  H151     1.0000 0.81527  0.21773  0.58203  Biso   1.000  H
  H152     1.0000 0.74227  0.16653  0.54373  Biso   1.000  H
  H153     1.0000 0.76447  0.25653  0.45453  Biso   1.000  H
  H154     1.0000 0.76087  0.20463  0.36013  Biso   1.000  H
  Ga24     1.0000 0.57696  0.56040  0.74999  Biso   1.000  Ga
  P29      1.0000 0.57028  0.48426  0.54603  Biso   1.000  P
  P30      1.0000 0.31994  0.32627  0.39069  Biso   1.000  P
  O113     1.0000 0.54513  0.50957  0.62867  Biso   1.000  O
  O114     1.0000 0.51013  0.42007  0.50987  Biso   1.000  O
  O115     1.0000 0.59313  0.53487  0.45957  Biso   1.000  O
  O116     1.0000 0.62413  0.47277  0.57527  Biso   1.000  O
  O117     1.0000 0.37833  0.33547  0.45397  Biso   1.000  O
  O118     1.0000 0.29043  0.25767  0.34387  Biso   1.000  O
  O119     1.0000 0.26943  0.33117  0.45107  Biso   1.000  O
  O120     1.0000 0.34303  0.37607  0.30737  Biso   1.000  O
  N43      1.0000 0.61103  0.49997  0.79727  Biso   1.000  N
  N44      1.0000 0.49013  0.48997  0.81397  Biso   1.000  N
  N45      1.0000 0.52213  0.60407  0.72407  Biso   1.000  N
  C57      1.0000 0.55383  0.43887  0.83867  Biso   1.000  C
  C58      1.0000 0.50773  0.45587  0.88717  Biso   1.000  C
  C59      1.0000 0.45693  0.52417  0.84807  Biso   1.000  C
  C60      1.0000 0.45413  0.56277  0.76177  Biso   1.000  C
  H155     1.0000 0.62463  0.48177  0.74627  Biso   1.000  H
  H156     1.0000 0.64573  0.52147  0.84167  Biso   1.000  H
  H157     1.0000 0.53933  0.64797  0.75727  Biso   1.000  H
  H158     1.0000 0.51633  0.60097  0.65247  Biso   1.000  H
  H159     1.0000 0.53043  0.41257  0.77317  Biso   1.000  H
  H160     1.0000 0.46453  0.40897  0.90327  Biso   1.000  H
  H161     1.0000 0.54233  0.49577  0.94237  Biso   1.000  H
  H162     1.0000 0.48193  0.55107  0.91537  Biso   1.000  H
  H163     1.0000 0.40893  0.49987  0.87707  Biso   1.000  H
  H164     1.0000 0.43113  0.58987  0.78787  Biso   1.000  H
  H165     1.0000 0.42753  0.53797  0.69347  Biso   1.000  H
  Ga25     1.0000 0.10627  0.34990  0.08332  Biso   1.000  Ga
  P31      1.0000 0.18241  0.41936  0.87936  Biso   1.000  P
  P32      1.0000 0.34040  0.32701  0.72402  Biso   1.000  P
  O121     1.0000 0.15710  0.36890  0.96200  Biso   1.000  O
  O122     1.0000 0.24660  0.42340  0.84320  Biso   1.000  O
  O123     1.0000 0.13180  0.39160  0.79290  Biso   1.000  O
  O124     1.0000 0.19390  0.48470  0.90860  Biso   1.000  O
  O125     1.0000 0.33120  0.37620  0.78730  Biso   1.000  O
  O126     1.0000 0.40900  0.36610  0.67720  Biso   1.000  O
  O127     1.0000 0.33550  0.27160  0.78440  Biso   1.000  O
  O128     1.0000 0.29060  0.30030  0.64070  Biso   1.000  O
  N46      1.0000 0.16670  0.44440  0.13060  Biso   1.000  N
  N47      1.0000 0.17670  0.33350  0.14730  Biso   1.000  N
  N48      1.0000 0.06260  0.25140  0.05740  Biso   1.000  N
  C61      1.0000 0.22780  0.44830  0.17200  Biso   1.000  C
  C62      1.0000 0.21080  0.38520  0.22050  Biso   1.000  C
  C63      1.0000 0.14250  0.26610  0.18140  Biso   1.000  C
  C64      1.0000 0.10390  0.22470  0.09510  Biso   1.000  C
  H166     1.0000 0.18490  0.47620  0.07960  Biso   1.000  H
  H167     1.0000 0.14520  0.45760  0.17500  Biso   1.000  H
  H168     1.0000 0.01870  0.22470  0.09060  Biso   1.000  H
  H169     1.0000 0.06570  0.24870  0.98580  Biso   1.000  H
  H170     1.0000 0.25410  0.45120  0.10650  Biso   1.000  H
  H171     1.0000 0.25770  0.38890  0.23660  Biso   1.000  H
  H172     1.0000 0.17090  0.37990  0.27570  Biso   1.000  H
  H173     1.0000 0.11560  0.26420  0.24870  Biso   1.000  H
  H174     1.0000 0.16680  0.24240  0.21040  Biso   1.000  H
  H175     1.0000 0.07680  0.17460  0.12120  Biso   1.000  H
  H176     1.0000 0.12870  0.22290  0.02680  Biso   1.000  H
  Ga26     1.0000 0.77294  0.68323  0.41665  Biso   1.000  Ga
  P33      1.0000 0.84908  0.75269  0.21269  Biso   1.000  P
  P34      1.0000 0.00707  0.66034  0.05735  Biso   1.000  P
  O129     1.0000 0.82377  0.70223  0.29533  Biso   1.000  O
  O130     1.0000 0.91327  0.75673  0.17653  Biso   1.000  O
  O131     1.0000 0.79847  0.72493  0.12623  Biso   1.000  O
  O132     1.0000 0.86057  0.81803  0.24193  Biso   1.000  O
  O133     1.0000 0.99787  0.70953  0.12063  Biso   1.000  O
  O134     1.0000 0.07567  0.69943  0.01053  Biso   1.000  O
  O135     1.0000 0.00217  0.60493  0.11773  Biso   1.000  O
  O136     1.0000 0.95727  0.63363  0.97403  Biso   1.000  O
  N49      1.0000 0.83337  0.77773  0.46393  Biso   1.000  N
  N50      1.0000 0.84337  0.66683  0.48063  Biso   1.000  N
  N51      1.0000 0.72927  0.58473  0.39073  Biso   1.000  N
  C65      1.0000 0.89447  0.78163  0.50533  Biso   1.000  C
  C66      1.0000 0.87747  0.71853  0.55383  Biso   1.000  C
  C67      1.0000 0.80917  0.59943  0.51473  Biso   1.000  C
  C68      1.0000 0.77057  0.55803  0.42843  Biso   1.000  C
  H177     1.0000 0.85157  0.80953  0.41293  Biso   1.000  H
  H178     1.0000 0.81187  0.79093  0.50833  Biso   1.000  H
  H179     1.0000 0.68537  0.55803  0.42393  Biso   1.000  H
  H180     1.0000 0.73237  0.58203  0.31913  Biso   1.000  H
  H181     1.0000 0.92077  0.78453  0.43983  Biso   1.000  H
  H182     1.0000 0.92437  0.72223  0.56993  Biso   1.000  H
  H183     1.0000 0.83757  0.71323  0.60903  Biso   1.000  H
  H184     1.0000 0.78227  0.59753  0.58203  Biso   1.000  H
  H185     1.0000 0.83347  0.57573  0.54373  Biso   1.000  H
  H186     1.0000 0.74347  0.50793  0.45453  Biso   1.000  H
  H187     1.0000 0.79537  0.55623  0.36013  Biso   1.000  H
  Ga27     1.0000 0.43960  0.01657  0.74999  Biso   1.000  Ga
  P35      1.0000 0.51574  0.08603  0.54603  Biso   1.000  P
  P36      1.0000 0.67373  0.99368  0.39069  Biso   1.000  P
  O137     1.0000 0.49043  0.03557  0.62867  Biso   1.000  O
  O138     1.0000 0.57993  0.09007  0.50987  Biso   1.000  O
  O139     1.0000 0.46513  0.05827  0.45957  Biso   1.000  O
  O140     1.0000 0.52723  0.15137  0.57527  Biso   1.000  O
  O141     1.0000 0.66453  0.04287  0.45397  Biso   1.000  O
  O142     1.0000 0.74233  0.03277  0.34387  Biso   1.000  O
  O143     1.0000 0.66883  0.93827  0.45107  Biso   1.000  O
  O144     1.0000 0.62393  0.96697  0.30737  Biso   1.000  O
  N52      1.0000 0.50003  0.11107  0.79727  Biso   1.000  N
  N53      1.0000 0.51003  0.00017  0.81397  Biso   1.000  N
  N54      1.0000 0.39593  0.91807  0.72407  Biso   1.000  N
  C69      1.0000 0.56113  0.11497  0.83867  Biso   1.000  C
  C70      1.0000 0.54413  0.05187  0.88717  Biso   1.000  C
  C71      1.0000 0.47583  0.93277  0.84807  Biso   1.000  C
  C72      1.0000 0.43723  0.89137  0.76177  Biso   1.000  C
  H188     1.0000 0.51823  0.14287  0.74627  Biso   1.000  H
  H189     1.0000 0.47853  0.12427  0.84167  Biso   1.000  H
  H190     1.0000 0.35203  0.89137  0.75727  Biso   1.000  H
  H191     1.0000 0.39903  0.91537  0.65247  Biso   1.000  H
  H192     1.0000 0.58743  0.11787  0.77317  Biso   1.000  H
  H193     1.0000 0.59103  0.05557  0.90327  Biso   1.000  H
  H194     1.0000 0.50423  0.04657  0.94237  Biso   1.000  H
  H195     1.0000 0.44893  0.93087  0.91537  Biso   1.000  H
  H196     1.0000 0.50013  0.90907  0.87707  Biso   1.000  H
  H197     1.0000 0.41013  0.84127  0.78787  Biso   1.000  H
  H198     1.0000 0.46203  0.88957  0.69347  Biso   1.000  H
