data_image0
_cell_length_a       23.6899
_cell_length_b       23.6899
_cell_length_c       13.5483
_cell_angle_alpha    90
_cell_angle_beta     90
_cell_angle_gamma    120

_symmetry_space_group_name_H-M    "P 1"
_symmetry_int_tables_number       1

loop_
  _symmetry_equiv_pos_as_xyz
  'x, y, z'

loop_
  _atom_site_label
  _atom_site_occupancy
  _atom_site_fract_x
  _atom_site_fract_y
  _atom_site_fract_z
  _atom_site_thermal_displace_type
  _atom_site_B_iso_or_equiv
  _atom_site_type_symbol
  Zn1      1.0000 0.36175  0.09274  0.11931  Biso   1.000  Zn
  Ga1      1.0000 0.35015  0.24382  0.91702  Biso   1.000  Ga
  P1       1.0000 0.41939  0.23676  0.12217  Biso   1.000  P
  P2       1.0000 0.32662  0.98613  0.27617  Biso   1.000  P
  O1       1.0000 0.37022  0.21217  0.03760  Biso   1.000  O
  O2       1.0000 0.42363  0.17677  0.15810  Biso   1.000  O
  O3       1.0000 0.39135  0.25975  0.20750  Biso   1.000  O
  O4       1.0000 0.48577  0.29114  0.09430  Biso   1.000  O
  O5       1.0000 0.37621  0.04409  0.21320  Biso   1.000  O
  O6       1.0000 0.36457  0.95540  0.32340  Biso   1.000  O
  O7       1.0000 0.27095  0.93589  0.21550  Biso   1.000  O
  O8       1.0000 0.29983  0.00955  0.35940  Biso   1.000  O
  N1       1.0000 0.44470  0.27740  0.86790  Biso   1.000  N
  N2       1.0000 0.33340  0.15750  0.85270  Biso   1.000  N
  N3       1.0000 0.25160  0.18880  0.94410  Biso   1.000  N
  C1       1.0000 0.44820  0.22130  0.82860  Biso   1.000  C
  C2       1.0000 0.38560  0.17450  0.77930  Biso   1.000  C
  C3       1.0000 0.26560  0.12300  0.81850  Biso   1.000  C
  C4       1.0000 0.22510  0.12140  0.90610  Biso   1.000  C
  H1       1.0000 0.46690  0.29130  0.92200  Biso   1.000  H
  H2       1.0000 0.44970  0.30280  0.82250  Biso   1.000  H
  H3       1.0000 0.33820  0.13070  0.90010  Biso   1.000  H
  H4       1.0000 0.23670  0.20830  0.91340  Biso   1.000  H
  H5       1.0000 0.24500  0.19190  0.01110  Biso   1.000  H
  H6       1.0000 0.45590  0.19520  0.88390  Biso   1.000  H
  H7       1.0000 0.47440  0.22660  0.78830  Biso   1.000  H
  H8       1.0000 0.38490  0.13210  0.74440  Biso   1.000  H
  H9       1.0000 0.37400  0.19460  0.72580  Biso   1.000  H
  H10      1.0000 0.23430  0.07160  0.80110  Biso   1.000  H
  H11      1.0000 0.26950  0.15320  0.75730  Biso   1.000  H
  H12      1.0000 0.18030  0.10190  0.86630  Biso   1.000  H
  H13      1.0000 0.22730  0.09400  0.96820  Biso   1.000  H
  Ga2      1.0000 0.30492  0.24059  0.21402  Biso   1.000  Ga
  Zn2      1.0000 0.02842  0.42607  0.45264  Biso   1.000  Zn
  Ga3      1.0000 0.01682  0.57715  0.25035  Biso   1.000  Ga
  P3       1.0000 0.08606  0.57009  0.45550  Biso   1.000  P
  P4       1.0000 0.99329  0.31946  0.60950  Biso   1.000  P
  O9       1.0000 0.03689  0.54550  0.37093  Biso   1.000  O
  O10      1.0000 0.09030  0.51010  0.49143  Biso   1.000  O
  O11      1.0000 0.05802  0.59308  0.54083  Biso   1.000  O
  O12      1.0000 0.15244  0.62447  0.42763  Biso   1.000  O
  O13      1.0000 0.04288  0.37742  0.54653  Biso   1.000  O
  O14      1.0000 0.03124  0.28873  0.65673  Biso   1.000  O
  O15      1.0000 0.93762  0.26922  0.54883  Biso   1.000  O
  O16      1.0000 0.96650  0.34288  0.69273  Biso   1.000  O
  N4       1.0000 0.11137  0.61073  0.20123  Biso   1.000  N
  N5       1.0000 0.00007  0.49083  0.18603  Biso   1.000  N
  N6       1.0000 0.91827  0.52213  0.27743  Biso   1.000  N
  C5       1.0000 0.11487  0.55463  0.16193  Biso   1.000  C
  C6       1.0000 0.05227  0.50783  0.11263  Biso   1.000  C
  C7       1.0000 0.93227  0.45633  0.15183  Biso   1.000  C
  C8       1.0000 0.89177  0.45473  0.23943  Biso   1.000  C
  H14      1.0000 0.13357  0.62463  0.25533  Biso   1.000  H
  H15      1.0000 0.11637  0.63613  0.15583  Biso   1.000  H
  H16      1.0000 0.00487  0.46403  0.23343  Biso   1.000  H
  H17      1.0000 0.90337  0.54163  0.24673  Biso   1.000  H
  H18      1.0000 0.91167  0.52523  0.34443  Biso   1.000  H
  H19      1.0000 0.12257  0.52853  0.21723  Biso   1.000  H
  H20      1.0000 0.14107  0.55993  0.12163  Biso   1.000  H
  H21      1.0000 0.05157  0.46543  0.07773  Biso   1.000  H
  H22      1.0000 0.04067  0.52793  0.05913  Biso   1.000  H
  H23      1.0000 0.90097  0.40493  0.13443  Biso   1.000  H
  H24      1.0000 0.93617  0.48653  0.09063  Biso   1.000  H
  H25      1.0000 0.84697  0.43523  0.19963  Biso   1.000  H
  H26      1.0000 0.89397  0.42733  0.30153  Biso   1.000  H
  Ga4      1.0000 0.97158  0.57393  0.54736  Biso   1.000  Ga
  Zn3      1.0000 0.69508  0.75941  0.78598  Biso   1.000  Zn
  Ga5      1.0000 0.68348  0.91049  0.58369  Biso   1.000  Ga
  P5       1.0000 0.75272  0.90343  0.78884  Biso   1.000  P
  P6       1.0000 0.65995  0.65280  0.94284  Biso   1.000  P
  O17      1.0000 0.70355  0.87884  0.70427  Biso   1.000  O
  O18      1.0000 0.75696  0.84344  0.82477  Biso   1.000  O
  O19      1.0000 0.72468  0.92642  0.87417  Biso   1.000  O
  O20      1.0000 0.81910  0.95781  0.76097  Biso   1.000  O
  O21      1.0000 0.70954  0.71076  0.87987  Biso   1.000  O
  O22      1.0000 0.69790  0.62207  0.99007  Biso   1.000  O
  O23      1.0000 0.60428  0.60256  0.88217  Biso   1.000  O
  O24      1.0000 0.63316  0.67622  0.02607  Biso   1.000  O
  N7       1.0000 0.77803  0.94407  0.53457  Biso   1.000  N
  N8       1.0000 0.66673  0.82417  0.51937  Biso   1.000  N
  N9       1.0000 0.58493  0.85547  0.61077  Biso   1.000  N
  C9       1.0000 0.78153  0.88797  0.49527  Biso   1.000  C
  C10      1.0000 0.71893  0.84117  0.44597  Biso   1.000  C
  C11      1.0000 0.59893  0.78967  0.48517  Biso   1.000  C
  C12      1.0000 0.55843  0.78807  0.57277  Biso   1.000  C
  H27      1.0000 0.80023  0.95797  0.58867  Biso   1.000  H
  H28      1.0000 0.78303  0.96947  0.48917  Biso   1.000  H
  H29      1.0000 0.67153  0.79737  0.56677  Biso   1.000  H
  H30      1.0000 0.57003  0.87497  0.58007  Biso   1.000  H
  H31      1.0000 0.57833  0.85857  0.67777  Biso   1.000  H
  H32      1.0000 0.78923  0.86187  0.55057  Biso   1.000  H
  H33      1.0000 0.80773  0.89327  0.45497  Biso   1.000  H
  H34      1.0000 0.71823  0.79877  0.41107  Biso   1.000  H
  H35      1.0000 0.70733  0.86127  0.39247  Biso   1.000  H
  H36      1.0000 0.56763  0.73827  0.46777  Biso   1.000  H
  H37      1.0000 0.60283  0.81987  0.42397  Biso   1.000  H
  H38      1.0000 0.51363  0.76857  0.53297  Biso   1.000  H
  H39      1.0000 0.56063  0.76067  0.63487  Biso   1.000  H
  Ga6      1.0000 0.63825  0.90726  0.88069  Biso   1.000  Ga
  Zn4      1.0000 0.90726  0.26901  0.11931  Biso   1.000  Zn
  Ga7      1.0000 0.75618  0.10633  0.91702  Biso   1.000  Ga
  P7       1.0000 0.76324  0.18263  0.12217  Biso   1.000  P
  P8       1.0000 0.01387  0.34049  0.27617  Biso   1.000  P
  O25      1.0000 0.78783  0.15805  0.03760  Biso   1.000  O
  O26      1.0000 0.82323  0.24686  0.15810  Biso   1.000  O
  O27      1.0000 0.74025  0.13160  0.20750  Biso   1.000  O
  O28      1.0000 0.70886  0.19463  0.09430  Biso   1.000  O
  O29      1.0000 0.95591  0.33212  0.21320  Biso   1.000  O
  O30      1.0000 0.04460  0.40917  0.32340  Biso   1.000  O
  O31      1.0000 0.06411  0.33506  0.21550  Biso   1.000  O
  O32      1.0000 0.99045  0.29028  0.35940  Biso   1.000  O
  N10      1.0000 0.72260  0.16730  0.86790  Biso   1.000  N
  N11      1.0000 0.84250  0.17590  0.85270  Biso   1.000  N
  N12      1.0000 0.81120  0.06280  0.94410  Biso   1.000  N
  C13      1.0000 0.77870  0.22690  0.82860  Biso   1.000  C
  C14      1.0000 0.82550  0.21110  0.77930  Biso   1.000  C
  C15      1.0000 0.87700  0.14260  0.81850  Biso   1.000  C
  C16      1.0000 0.87860  0.10370  0.90610  Biso   1.000  C
  H40      1.0000 0.70870  0.17560  0.92200  Biso   1.000  H
  H41      1.0000 0.69720  0.14690  0.82250  Biso   1.000  H
  H42      1.0000 0.86930  0.20750  0.90010  Biso   1.000  H
  H43      1.0000 0.79170  0.02840  0.91340  Biso   1.000  H
  H44      1.0000 0.80810  0.05310  0.01110  Biso   1.000  H
  H45      1.0000 0.80480  0.26070  0.88390  Biso   1.000  H
  H46      1.0000 0.77340  0.24780  0.78830  Biso   1.000  H
  H47      1.0000 0.86790  0.25280  0.74440  Biso   1.000  H
  H48      1.0000 0.80540  0.17940  0.72580  Biso   1.000  H
  H49      1.0000 0.92840  0.16270  0.80110  Biso   1.000  H
  H50      1.0000 0.84680  0.11630  0.75730  Biso   1.000  H
  H51      1.0000 0.89810  0.07840  0.86630  Biso   1.000  H
  H52      1.0000 0.90600  0.13330  0.96820  Biso   1.000  H
  Ga8      1.0000 0.75941  0.06432  0.21402  Biso   1.000  Ga
  Zn5      1.0000 0.57393  0.60234  0.45264  Biso   1.000  Zn
  Ga9      1.0000 0.42285  0.43966  0.25035  Biso   1.000  Ga
  P9       1.0000 0.42991  0.51596  0.45550  Biso   1.000  P
  P10      1.0000 0.68054  0.67382  0.60950  Biso   1.000  P
  O33      1.0000 0.45450  0.49138  0.37093  Biso   1.000  O
  O34      1.0000 0.48990  0.58019  0.49143  Biso   1.000  O
  O35      1.0000 0.40692  0.46493  0.54083  Biso   1.000  O
  O36      1.0000 0.37553  0.52796  0.42763  Biso   1.000  O
  O37      1.0000 0.62258  0.66545  0.54653  Biso   1.000  O
  O38      1.0000 0.71127  0.74250  0.65673  Biso   1.000  O
  O39      1.0000 0.73078  0.66839  0.54883  Biso   1.000  O
  O40      1.0000 0.65712  0.62361  0.69273  Biso   1.000  O
  N13      1.0000 0.38927  0.50063  0.20123  Biso   1.000  N
  N14      1.0000 0.50917  0.50923  0.18603  Biso   1.000  N
  N15      1.0000 0.47787  0.39613  0.27743  Biso   1.000  N
  C17      1.0000 0.44537  0.56023  0.16193  Biso   1.000  C
  C18      1.0000 0.49217  0.54443  0.11263  Biso   1.000  C
  C19      1.0000 0.54367  0.47593  0.15183  Biso   1.000  C
  C20      1.0000 0.54527  0.43703  0.23943  Biso   1.000  C
  H53      1.0000 0.37537  0.50893  0.25533  Biso   1.000  H
  H54      1.0000 0.36387  0.48023  0.15583  Biso   1.000  H
  H55      1.0000 0.53597  0.54083  0.23343  Biso   1.000  H
  H56      1.0000 0.45837  0.36173  0.24673  Biso   1.000  H
  H57      1.0000 0.47477  0.38643  0.34443  Biso   1.000  H
  H58      1.0000 0.47147  0.59403  0.21723  Biso   1.000  H
  H59      1.0000 0.44007  0.58113  0.12163  Biso   1.000  H
  H60      1.0000 0.53457  0.58613  0.07773  Biso   1.000  H
  H61      1.0000 0.47207  0.51273  0.05913  Biso   1.000  H
  H62      1.0000 0.59507  0.49603  0.13443  Biso   1.000  H
  H63      1.0000 0.51347  0.44963  0.09063  Biso   1.000  H
  H64      1.0000 0.56477  0.41173  0.19963  Biso   1.000  H
  H65      1.0000 0.57267  0.46663  0.30153  Biso   1.000  H
  Ga10     1.0000 0.42607  0.39766  0.54736  Biso   1.000  Ga
  Zn6      1.0000 0.24059  0.93568  0.78598  Biso   1.000  Zn
  Ga11     1.0000 0.08951  0.77300  0.58369  Biso   1.000  Ga
  P11      1.0000 0.09657  0.84930  0.78884  Biso   1.000  P
  P12      1.0000 0.34720  0.00716  0.94284  Biso   1.000  P
  O41      1.0000 0.12116  0.82472  0.70427  Biso   1.000  O
  O42      1.0000 0.15656  0.91353  0.82477  Biso   1.000  O
  O43      1.0000 0.07358  0.79827  0.87417  Biso   1.000  O
  O44      1.0000 0.04219  0.86130  0.76097  Biso   1.000  O
  O45      1.0000 0.28924  0.99879  0.87987  Biso   1.000  O
  O46      1.0000 0.37793  0.07584  0.99007  Biso   1.000  O
  O47      1.0000 0.39744  0.00173  0.88217  Biso   1.000  O
  O48      1.0000 0.32378  0.95695  0.02607  Biso   1.000  O
  N16      1.0000 0.05593  0.83397  0.53457  Biso   1.000  N
  N17      1.0000 0.17583  0.84257  0.51937  Biso   1.000  N
  N18      1.0000 0.14453  0.72947  0.61077  Biso   1.000  N
  C21      1.0000 0.11203  0.89357  0.49527  Biso   1.000  C
  C22      1.0000 0.15883  0.87777  0.44597  Biso   1.000  C
  C23      1.0000 0.21033  0.80927  0.48517  Biso   1.000  C
  C24      1.0000 0.21193  0.77037  0.57277  Biso   1.000  C
  H66      1.0000 0.04203  0.84227  0.58867  Biso   1.000  H
  H67      1.0000 0.03053  0.81357  0.48917  Biso   1.000  H
  H68      1.0000 0.20263  0.87417  0.56677  Biso   1.000  H
  H69      1.0000 0.12503  0.69507  0.58007  Biso   1.000  H
  H70      1.0000 0.14143  0.71977  0.67777  Biso   1.000  H
  H71      1.0000 0.13813  0.92737  0.55057  Biso   1.000  H
  H72      1.0000 0.10673  0.91447  0.45497  Biso   1.000  H
  H73      1.0000 0.20123  0.91947  0.41107  Biso   1.000  H
  H74      1.0000 0.13873  0.84607  0.39247  Biso   1.000  H
  H75      1.0000 0.26173  0.82937  0.46777  Biso   1.000  H
  H76      1.0000 0.18013  0.78297  0.42397  Biso   1.000  H
  H77      1.0000 0.23143  0.74507  0.53297  Biso   1.000  H
  H78      1.0000 0.23933  0.79997  0.63487  Biso   1.000  H
  Ga12     1.0000 0.09274  0.73099  0.88069  Biso   1.000  Ga
  Zn7      1.0000 0.73099  0.63825  0.11931  Biso   1.000  Zn
  Ga13     1.0000 0.89367  0.64985  0.91702  Biso   1.000  Ga
  P13      1.0000 0.81737  0.58061  0.12217  Biso   1.000  P
  P14      1.0000 0.65951  0.67338  0.27617  Biso   1.000  P
  O49      1.0000 0.84195  0.62978  0.03760  Biso   1.000  O
  O50      1.0000 0.75314  0.57637  0.15810  Biso   1.000  O
  O51      1.0000 0.86840  0.60865  0.20750  Biso   1.000  O
  O52      1.0000 0.80537  0.51423  0.09430  Biso   1.000  O
  O53      1.0000 0.66788  0.62379  0.21320  Biso   1.000  O
  O54      1.0000 0.59083  0.63543  0.32340  Biso   1.000  O
  O55      1.0000 0.66494  0.72905  0.21550  Biso   1.000  O
  O56      1.0000 0.70972  0.70017  0.35940  Biso   1.000  O
  N19      1.0000 0.83270  0.55530  0.86790  Biso   1.000  N
  N20      1.0000 0.82410  0.66660  0.85270  Biso   1.000  N
  N21      1.0000 0.93720  0.74840  0.94410  Biso   1.000  N
  C25      1.0000 0.77310  0.55180  0.82860  Biso   1.000  C
  C26      1.0000 0.78890  0.61440  0.77930  Biso   1.000  C
  C27      1.0000 0.85740  0.73440  0.81850  Biso   1.000  C
  C28      1.0000 0.89630  0.77490  0.90610  Biso   1.000  C
  H79      1.0000 0.82440  0.53310  0.92200  Biso   1.000  H
  H80      1.0000 0.85310  0.55030  0.82250  Biso   1.000  H
  H81      1.0000 0.79250  0.66180  0.90010  Biso   1.000  H
  H82      1.0000 0.97160  0.76330  0.91340  Biso   1.000  H
  H83      1.0000 0.94690  0.75500  0.01110  Biso   1.000  H
  H84      1.0000 0.73930  0.54410  0.88390  Biso   1.000  H
  H85      1.0000 0.75220  0.52560  0.78830  Biso   1.000  H
  H86      1.0000 0.74720  0.61510  0.74440  Biso   1.000  H
  H87      1.0000 0.82060  0.62600  0.72580  Biso   1.000  H
  H88      1.0000 0.83730  0.76570  0.80110  Biso   1.000  H
  H89      1.0000 0.88370  0.73050  0.75730  Biso   1.000  H
  H90      1.0000 0.92160  0.81970  0.86630  Biso   1.000  H
  H91      1.0000 0.86670  0.77270  0.96820  Biso   1.000  H
  Ga14     1.0000 0.93568  0.69508  0.21402  Biso   1.000  Ga
  Zn8      1.0000 0.39766  0.97158  0.45264  Biso   1.000  Zn
  Ga15     1.0000 0.56034  0.98318  0.25035  Biso   1.000  Ga
  P15      1.0000 0.48404  0.91394  0.45550  Biso   1.000  P
  P16      1.0000 0.32618  0.00671  0.60950  Biso   1.000  P
  O57      1.0000 0.50862  0.96311  0.37093  Biso   1.000  O
  O58      1.0000 0.41981  0.90970  0.49143  Biso   1.000  O
  O59      1.0000 0.53507  0.94198  0.54083  Biso   1.000  O
  O60      1.0000 0.47204  0.84756  0.42763  Biso   1.000  O
  O61      1.0000 0.33455  0.95712  0.54653  Biso   1.000  O
  O62      1.0000 0.25750  0.96876  0.65673  Biso   1.000  O
  O63      1.0000 0.33161  0.06238  0.54883  Biso   1.000  O
  O64      1.0000 0.37639  0.03350  0.69273  Biso   1.000  O
  N22      1.0000 0.49937  0.88863  0.20123  Biso   1.000  N
  N23      1.0000 0.49077  0.99993  0.18603  Biso   1.000  N
  N24      1.0000 0.60387  0.08173  0.27743  Biso   1.000  N
  C29      1.0000 0.43977  0.88513  0.16193  Biso   1.000  C
  C30      1.0000 0.45557  0.94773  0.11263  Biso   1.000  C
  C31      1.0000 0.52407  0.06773  0.15183  Biso   1.000  C
  C32      1.0000 0.56297  0.10823  0.23943  Biso   1.000  C
  H92      1.0000 0.49107  0.86643  0.25533  Biso   1.000  H
  H93      1.0000 0.51977  0.88363  0.15583  Biso   1.000  H
  H94      1.0000 0.45917  0.99513  0.23343  Biso   1.000  H
  H95      1.0000 0.63827  0.09663  0.24673  Biso   1.000  H
  H96      1.0000 0.61357  0.08833  0.34443  Biso   1.000  H
  H97      1.0000 0.40597  0.87743  0.21723  Biso   1.000  H
  H98      1.0000 0.41887  0.85893  0.12163  Biso   1.000  H
  H99      1.0000 0.41387  0.94843  0.07773  Biso   1.000  H
  H100     1.0000 0.48727  0.95933  0.05913  Biso   1.000  H
  H101     1.0000 0.50397  0.09903  0.13443  Biso   1.000  H
  H102     1.0000 0.55037  0.06383  0.09063  Biso   1.000  H
  H103     1.0000 0.58827  0.15303  0.19963  Biso   1.000  H
  H104     1.0000 0.53337  0.10603  0.30153  Biso   1.000  H
  Ga16     1.0000 0.60234  0.02842  0.54736  Biso   1.000  Ga
  Zn9      1.0000 0.06432  0.30492  0.78598  Biso   1.000  Zn
  Ga17     1.0000 0.22700  0.31652  0.58369  Biso   1.000  Ga
  P17      1.0000 0.15070  0.24728  0.78884  Biso   1.000  P
  P18      1.0000 0.99284  0.34005  0.94284  Biso   1.000  P
  O65      1.0000 0.17528  0.29645  0.70427  Biso   1.000  O
  O66      1.0000 0.08647  0.24304  0.82477  Biso   1.000  O
  O67      1.0000 0.20173  0.27532  0.87417  Biso   1.000  O
  O68      1.0000 0.13870  0.18090  0.76097  Biso   1.000  O
  O69      1.0000 0.00121  0.29046  0.87987  Biso   1.000  O
  O70      1.0000 0.92416  0.30210  0.99007  Biso   1.000  O
  O71      1.0000 0.99827  0.39572  0.88217  Biso   1.000  O
  O72      1.0000 0.04305  0.36684  0.02607  Biso   1.000  O
  N25      1.0000 0.16603  0.22197  0.53457  Biso   1.000  N
  N26      1.0000 0.15743  0.33327  0.51937  Biso   1.000  N
  N27      1.0000 0.27053  0.41507  0.61077  Biso   1.000  N
  C33      1.0000 0.10643  0.21847  0.49527  Biso   1.000  C
  C34      1.0000 0.12223  0.28107  0.44597  Biso   1.000  C
  C35      1.0000 0.19073  0.40107  0.48517  Biso   1.000  C
  C36      1.0000 0.22963  0.44157  0.57277  Biso   1.000  C
  H105     1.0000 0.15773  0.19977  0.58867  Biso   1.000  H
  H106     1.0000 0.18643  0.21697  0.48917  Biso   1.000  H
  H107     1.0000 0.12583  0.32847  0.56677  Biso   1.000  H
  H108     1.0000 0.30493  0.42997  0.58007  Biso   1.000  H
  H109     1.0000 0.28023  0.42167  0.67777  Biso   1.000  H
  H110     1.0000 0.07263  0.21077  0.55057  Biso   1.000  H
  H111     1.0000 0.08553  0.19227  0.45497  Biso   1.000  H
  H112     1.0000 0.08053  0.28177  0.41107  Biso   1.000  H
  H113     1.0000 0.15393  0.29267  0.39247  Biso   1.000  H
  H114     1.0000 0.17063  0.43237  0.46777  Biso   1.000  H
  H115     1.0000 0.21703  0.39717  0.42397  Biso   1.000  H
  H116     1.0000 0.25493  0.48637  0.53297  Biso   1.000  H
  H117     1.0000 0.20003  0.43937  0.63487  Biso   1.000  H
  Ga18     1.0000 0.26901  0.36175  0.88069  Biso   1.000  Ga
  Ga19     1.0000 0.64985  0.75618  0.08298  Biso   1.000  Ga
  P19      1.0000 0.58061  0.76324  0.87783  Biso   1.000  P
  P20      1.0000 0.67338  0.01387  0.72383  Biso   1.000  P
  O73      1.0000 0.62978  0.78783  0.96240  Biso   1.000  O
  O74      1.0000 0.57637  0.82323  0.84190  Biso   1.000  O
  O75      1.0000 0.60865  0.74025  0.79250  Biso   1.000  O
  O76      1.0000 0.51423  0.70886  0.90570  Biso   1.000  O
  O77      1.0000 0.62379  0.95591  0.78680  Biso   1.000  O
  O78      1.0000 0.63543  0.04460  0.67660  Biso   1.000  O
  O79      1.0000 0.72905  0.06411  0.78450  Biso   1.000  O
  O80      1.0000 0.70017  0.99045  0.64060  Biso   1.000  O
  N28      1.0000 0.55530  0.72260  0.13210  Biso   1.000  N
  N29      1.0000 0.66660  0.84250  0.14730  Biso   1.000  N
  N30      1.0000 0.74840  0.81120  0.05590  Biso   1.000  N
  C37      1.0000 0.55180  0.77870  0.17140  Biso   1.000  C
  C38      1.0000 0.61440  0.82550  0.22070  Biso   1.000  C
  C39      1.0000 0.73440  0.87700  0.18150  Biso   1.000  C
  C40      1.0000 0.77490  0.87860  0.09390  Biso   1.000  C
  H118     1.0000 0.53310  0.70870  0.07800  Biso   1.000  H
  H119     1.0000 0.55030  0.69720  0.17750  Biso   1.000  H
  H120     1.0000 0.66180  0.86930  0.09990  Biso   1.000  H
  H121     1.0000 0.76330  0.79170  0.08660  Biso   1.000  H
  H122     1.0000 0.75500  0.80810  0.98890  Biso   1.000  H
  H123     1.0000 0.54410  0.80480  0.11610  Biso   1.000  H
  H124     1.0000 0.52560  0.77340  0.21170  Biso   1.000  H
  H125     1.0000 0.61510  0.86790  0.25560  Biso   1.000  H
  H126     1.0000 0.62600  0.80540  0.27420  Biso   1.000  H
  H127     1.0000 0.76570  0.92840  0.19890  Biso   1.000  H
  H128     1.0000 0.73050  0.84680  0.24270  Biso   1.000  H
  H129     1.0000 0.81970  0.89810  0.13370  Biso   1.000  H
  H130     1.0000 0.77270  0.90600  0.03180  Biso   1.000  H
  Ga20     1.0000 0.31652  0.08951  0.41631  Biso   1.000  Ga
  P21      1.0000 0.24728  0.09657  0.21116  Biso   1.000  P
  P22      1.0000 0.34005  0.34720  0.05716  Biso   1.000  P
  O81      1.0000 0.29645  0.12116  0.29573  Biso   1.000  O
  O82      1.0000 0.24304  0.15656  0.17523  Biso   1.000  O
  O83      1.0000 0.27532  0.07358  0.12583  Biso   1.000  O
  O84      1.0000 0.18090  0.04219  0.23903  Biso   1.000  O
  O85      1.0000 0.29046  0.28924  0.12013  Biso   1.000  O
  O86      1.0000 0.30210  0.37793  0.00993  Biso   1.000  O
  O87      1.0000 0.39572  0.39744  0.11783  Biso   1.000  O
  O88      1.0000 0.36684  0.32378  0.97393  Biso   1.000  O
  N31      1.0000 0.22197  0.05593  0.46543  Biso   1.000  N
  N32      1.0000 0.33327  0.17583  0.48063  Biso   1.000  N
  N33      1.0000 0.41507  0.14453  0.38923  Biso   1.000  N
  C41      1.0000 0.21847  0.11203  0.50473  Biso   1.000  C
  C42      1.0000 0.28107  0.15883  0.55403  Biso   1.000  C
  C43      1.0000 0.40107  0.21033  0.51483  Biso   1.000  C
  C44      1.0000 0.44157  0.21193  0.42723  Biso   1.000  C
  H131     1.0000 0.19977  0.04203  0.41133  Biso   1.000  H
  H132     1.0000 0.21697  0.03053  0.51083  Biso   1.000  H
  H133     1.0000 0.32847  0.20263  0.43323  Biso   1.000  H
  H134     1.0000 0.42997  0.12503  0.41993  Biso   1.000  H
  H135     1.0000 0.42167  0.14143  0.32223  Biso   1.000  H
  H136     1.0000 0.21077  0.13813  0.44943  Biso   1.000  H
  H137     1.0000 0.19227  0.10673  0.54503  Biso   1.000  H
  H138     1.0000 0.28177  0.20123  0.58893  Biso   1.000  H
  H139     1.0000 0.29267  0.13873  0.60753  Biso   1.000  H
  H140     1.0000 0.43237  0.26173  0.53223  Biso   1.000  H
  H141     1.0000 0.39717  0.18013  0.57603  Biso   1.000  H
  H142     1.0000 0.48637  0.23143  0.46703  Biso   1.000  H
  H143     1.0000 0.43937  0.23933  0.36513  Biso   1.000  H
  Ga21     1.0000 0.98318  0.42285  0.74965  Biso   1.000  Ga
  P23      1.0000 0.91394  0.42991  0.54450  Biso   1.000  P
  P24      1.0000 0.00671  0.68054  0.39050  Biso   1.000  P
  O89      1.0000 0.96311  0.45450  0.62907  Biso   1.000  O
  O90      1.0000 0.90970  0.48990  0.50857  Biso   1.000  O
  O91      1.0000 0.94198  0.40692  0.45917  Biso   1.000  O
  O92      1.0000 0.84756  0.37553  0.57237  Biso   1.000  O
  O93      1.0000 0.95712  0.62258  0.45347  Biso   1.000  O
  O94      1.0000 0.96876  0.71127  0.34327  Biso   1.000  O
  O95      1.0000 0.06238  0.73078  0.45117  Biso   1.000  O
  O96      1.0000 0.03350  0.65712  0.30727  Biso   1.000  O
  N34      1.0000 0.88863  0.38927  0.79877  Biso   1.000  N
  N35      1.0000 0.99993  0.50917  0.81397  Biso   1.000  N
  N36      1.0000 0.08173  0.47787  0.72257  Biso   1.000  N
  C45      1.0000 0.88513  0.44537  0.83807  Biso   1.000  C
  C46      1.0000 0.94773  0.49217  0.88737  Biso   1.000  C
  C47      1.0000 0.06773  0.54367  0.84817  Biso   1.000  C
  C48      1.0000 0.10823  0.54527  0.76057  Biso   1.000  C
  H144     1.0000 0.86643  0.37537  0.74467  Biso   1.000  H
  H145     1.0000 0.88363  0.36387  0.84417  Biso   1.000  H
  H146     1.0000 0.99513  0.53597  0.76657  Biso   1.000  H
  H147     1.0000 0.09663  0.45837  0.75327  Biso   1.000  H
  H148     1.0000 0.08833  0.47477  0.65557  Biso   1.000  H
  H149     1.0000 0.87743  0.47147  0.78277  Biso   1.000  H
  H150     1.0000 0.85893  0.44007  0.87837  Biso   1.000  H
  H151     1.0000 0.94843  0.53457  0.92227  Biso   1.000  H
  H152     1.0000 0.95933  0.47207  0.94087  Biso   1.000  H
  H153     1.0000 0.09903  0.59507  0.86557  Biso   1.000  H
  H154     1.0000 0.06383  0.51347  0.90937  Biso   1.000  H
  H155     1.0000 0.15303  0.56477  0.80037  Biso   1.000  H
  H156     1.0000 0.10603  0.57267  0.69847  Biso   1.000  H
  Ga22     1.0000 0.24382  0.89367  0.08298  Biso   1.000  Ga
  P25      1.0000 0.23676  0.81737  0.87783  Biso   1.000  P
  P26      1.0000 0.98613  0.65951  0.72383  Biso   1.000  P
  O97      1.0000 0.21217  0.84195  0.96240  Biso   1.000  O
  O98      1.0000 0.17677  0.75314  0.84190  Biso   1.000  O
  O99      1.0000 0.25975  0.86840  0.79250  Biso   1.000  O
  O100     1.0000 0.29114  0.80537  0.90570  Biso   1.000  O
  O101     1.0000 0.04409  0.66788  0.78680  Biso   1.000  O
  O102     1.0000 0.95540  0.59083  0.67660  Biso   1.000  O
  O103     1.0000 0.93589  0.66494  0.78450  Biso   1.000  O
  O104     1.0000 0.00955  0.70972  0.64060  Biso   1.000  O
  N37      1.0000 0.27740  0.83270  0.13210  Biso   1.000  N
  N38      1.0000 0.15750  0.82410  0.14730  Biso   1.000  N
  N39      1.0000 0.18880  0.93720  0.05590  Biso   1.000  N
  C49      1.0000 0.22130  0.77310  0.17140  Biso   1.000  C
  C50      1.0000 0.17450  0.78890  0.22070  Biso   1.000  C
  C51      1.0000 0.12300  0.85740  0.18150  Biso   1.000  C
  C52      1.0000 0.12140  0.89630  0.09390  Biso   1.000  C
  H157     1.0000 0.29130  0.82440  0.07800  Biso   1.000  H
  H158     1.0000 0.30280  0.85310  0.17750  Biso   1.000  H
  H159     1.0000 0.13070  0.79250  0.09990  Biso   1.000  H
  H160     1.0000 0.20830  0.97160  0.08660  Biso   1.000  H
  H161     1.0000 0.19190  0.94690  0.98890  Biso   1.000  H
  H162     1.0000 0.19520  0.73930  0.11610  Biso   1.000  H
  H163     1.0000 0.22660  0.75220  0.21170  Biso   1.000  H
  H164     1.0000 0.13210  0.74720  0.25560  Biso   1.000  H
  H165     1.0000 0.19460  0.82060  0.27420  Biso   1.000  H
  H166     1.0000 0.07160  0.83730  0.19890  Biso   1.000  H
  H167     1.0000 0.15320  0.88370  0.24270  Biso   1.000  H
  H168     1.0000 0.10190  0.92160  0.13370  Biso   1.000  H
  H169     1.0000 0.09400  0.86670  0.03180  Biso   1.000  H
  Ga23     1.0000 0.91049  0.22700  0.41631  Biso   1.000  Ga
  P27      1.0000 0.90343  0.15070  0.21116  Biso   1.000  P
  P28      1.0000 0.65280  0.99284  0.05716  Biso   1.000  P
  O105     1.0000 0.87884  0.17528  0.29573  Biso   1.000  O
  O106     1.0000 0.84344  0.08647  0.17523  Biso   1.000  O
  O107     1.0000 0.92642  0.20173  0.12583  Biso   1.000  O
  O108     1.0000 0.95781  0.13870  0.23903  Biso   1.000  O
  O109     1.0000 0.71076  0.00121  0.12013  Biso   1.000  O
  O110     1.0000 0.62207  0.92416  0.00993  Biso   1.000  O
  O111     1.0000 0.60256  0.99827  0.11783  Biso   1.000  O
  O112     1.0000 0.67622  0.04305  0.97393  Biso   1.000  O
  N40      1.0000 0.94407  0.16603  0.46543  Biso   1.000  N
  N41      1.0000 0.82417  0.15743  0.48063  Biso   1.000  N
  N42      1.0000 0.85547  0.27053  0.38923  Biso   1.000  N
  C53      1.0000 0.88797  0.10643  0.50473  Biso   1.000  C
  C54      1.0000 0.84117  0.12223  0.55403  Biso   1.000  C
  C55      1.0000 0.78967  0.19073  0.51483  Biso   1.000  C
  C56      1.0000 0.78807  0.22963  0.42723  Biso   1.000  C
  H170     1.0000 0.95797  0.15773  0.41133  Biso   1.000  H
  H171     1.0000 0.96947  0.18643  0.51083  Biso   1.000  H
  H172     1.0000 0.79737  0.12583  0.43323  Biso   1.000  H
  H173     1.0000 0.87497  0.30493  0.41993  Biso   1.000  H
  H174     1.0000 0.85857  0.28023  0.32223  Biso   1.000  H
  H175     1.0000 0.86187  0.07263  0.44943  Biso   1.000  H
  H176     1.0000 0.89327  0.08553  0.54503  Biso   1.000  H
  H177     1.0000 0.79877  0.08053  0.58893  Biso   1.000  H
  H178     1.0000 0.86127  0.15393  0.60753  Biso   1.000  H
  H179     1.0000 0.73827  0.17063  0.53223  Biso   1.000  H
  H180     1.0000 0.81987  0.21703  0.57603  Biso   1.000  H
  H181     1.0000 0.76857  0.25493  0.46703  Biso   1.000  H
  H182     1.0000 0.76067  0.20003  0.36513  Biso   1.000  H
  Ga24     1.0000 0.57715  0.56034  0.74965  Biso   1.000  Ga
  P29      1.0000 0.57009  0.48404  0.54450  Biso   1.000  P
  P30      1.0000 0.31946  0.32618  0.39050  Biso   1.000  P
  O113     1.0000 0.54550  0.50862  0.62907  Biso   1.000  O
  O114     1.0000 0.51010  0.41981  0.50857  Biso   1.000  O
  O115     1.0000 0.59308  0.53507  0.45917  Biso   1.000  O
  O116     1.0000 0.62447  0.47204  0.57237  Biso   1.000  O
  O117     1.0000 0.37742  0.33455  0.45347  Biso   1.000  O
  O118     1.0000 0.28873  0.25750  0.34327  Biso   1.000  O
  O119     1.0000 0.26922  0.33161  0.45117  Biso   1.000  O
  O120     1.0000 0.34288  0.37639  0.30727  Biso   1.000  O
  N43      1.0000 0.61073  0.49937  0.79877  Biso   1.000  N
  N44      1.0000 0.49083  0.49077  0.81397  Biso   1.000  N
  N45      1.0000 0.52213  0.60387  0.72257  Biso   1.000  N
  C57      1.0000 0.55463  0.43977  0.83807  Biso   1.000  C
  C58      1.0000 0.50783  0.45557  0.88737  Biso   1.000  C
  C59      1.0000 0.45633  0.52407  0.84817  Biso   1.000  C
  C60      1.0000 0.45473  0.56297  0.76057  Biso   1.000  C
  H183     1.0000 0.62463  0.49107  0.74467  Biso   1.000  H
  H184     1.0000 0.63613  0.51977  0.84417  Biso   1.000  H
  H185     1.0000 0.46403  0.45917  0.76657  Biso   1.000  H
  H186     1.0000 0.54163  0.63827  0.75327  Biso   1.000  H
  H187     1.0000 0.52523  0.61357  0.65557  Biso   1.000  H
  H188     1.0000 0.52853  0.40597  0.78277  Biso   1.000  H
  H189     1.0000 0.55993  0.41887  0.87837  Biso   1.000  H
  H190     1.0000 0.46543  0.41387  0.92227  Biso   1.000  H
  H191     1.0000 0.52793  0.48727  0.94087  Biso   1.000  H
  H192     1.0000 0.40493  0.50397  0.86557  Biso   1.000  H
  H193     1.0000 0.48653  0.55037  0.90937  Biso   1.000  H
  H194     1.0000 0.43523  0.58827  0.80037  Biso   1.000  H
  H195     1.0000 0.42733  0.53337  0.69847  Biso   1.000  H
  Ga25     1.0000 0.10633  0.35015  0.08298  Biso   1.000  Ga
  P31      1.0000 0.18263  0.41939  0.87783  Biso   1.000  P
  P32      1.0000 0.34049  0.32662  0.72383  Biso   1.000  P
  O121     1.0000 0.15805  0.37022  0.96240  Biso   1.000  O
  O122     1.0000 0.24686  0.42363  0.84190  Biso   1.000  O
  O123     1.0000 0.13160  0.39135  0.79250  Biso   1.000  O
  O124     1.0000 0.19463  0.48577  0.90570  Biso   1.000  O
  O125     1.0000 0.33212  0.37621  0.78680  Biso   1.000  O
  O126     1.0000 0.40917  0.36457  0.67660  Biso   1.000  O
  O127     1.0000 0.33506  0.27095  0.78450  Biso   1.000  O
  O128     1.0000 0.29028  0.29983  0.64060  Biso   1.000  O
  N46      1.0000 0.16730  0.44470  0.13210  Biso   1.000  N
  N47      1.0000 0.17590  0.33340  0.14730  Biso   1.000  N
  N48      1.0000 0.06280  0.25160  0.05590  Biso   1.000  N
  C61      1.0000 0.22690  0.44820  0.17140  Biso   1.000  C
  C62      1.0000 0.21110  0.38560  0.22070  Biso   1.000  C
  C63      1.0000 0.14260  0.26560  0.18150  Biso   1.000  C
  C64      1.0000 0.10370  0.22510  0.09390  Biso   1.000  C
  H196     1.0000 0.17560  0.46690  0.07800  Biso   1.000  H
  H197     1.0000 0.14690  0.44970  0.17750  Biso   1.000  H
  H198     1.0000 0.20750  0.33820  0.09990  Biso   1.000  H
  H199     1.0000 0.02840  0.23670  0.08660  Biso   1.000  H
  H200     1.0000 0.05310  0.24500  0.98890  Biso   1.000  H
  H201     1.0000 0.26070  0.45590  0.11610  Biso   1.000  H
  H202     1.0000 0.24780  0.47440  0.21170  Biso   1.000  H
  H203     1.0000 0.25280  0.38490  0.25560  Biso   1.000  H
  H204     1.0000 0.17940  0.37400  0.27420  Biso   1.000  H
  H205     1.0000 0.16270  0.23430  0.19890  Biso   1.000  H
  H206     1.0000 0.11630  0.26950  0.24270  Biso   1.000  H
  H207     1.0000 0.07840  0.18030  0.13370  Biso   1.000  H
  H208     1.0000 0.13330  0.22730  0.03180  Biso   1.000  H
  Ga26     1.0000 0.77300  0.68348  0.41631  Biso   1.000  Ga
  P33      1.0000 0.84930  0.75272  0.21116  Biso   1.000  P
  P34      1.0000 0.00716  0.65995  0.05716  Biso   1.000  P
  O129     1.0000 0.82472  0.70355  0.29573  Biso   1.000  O
  O130     1.0000 0.91353  0.75696  0.17523  Biso   1.000  O
  O131     1.0000 0.79827  0.72468  0.12583  Biso   1.000  O
  O132     1.0000 0.86130  0.81910  0.23903  Biso   1.000  O
  O133     1.0000 0.99879  0.70954  0.12013  Biso   1.000  O
  O134     1.0000 0.07584  0.69790  0.00993  Biso   1.000  O
  O135     1.0000 0.00173  0.60428  0.11783  Biso   1.000  O
  O136     1.0000 0.95695  0.63316  0.97393  Biso   1.000  O
  N49      1.0000 0.83397  0.77803  0.46543  Biso   1.000  N
  N50      1.0000 0.84257  0.66673  0.48063  Biso   1.000  N
  N51      1.0000 0.72947  0.58493  0.38923  Biso   1.000  N
  C65      1.0000 0.89357  0.78153  0.50473  Biso   1.000  C
  C66      1.0000 0.87777  0.71893  0.55403  Biso   1.000  C
  C67      1.0000 0.80927  0.59893  0.51483  Biso   1.000  C
  C68      1.0000 0.77037  0.55843  0.42723  Biso   1.000  C
  H209     1.0000 0.84227  0.80023  0.41133  Biso   1.000  H
  H210     1.0000 0.81357  0.78303  0.51083  Biso   1.000  H
  H211     1.0000 0.87417  0.67153  0.43323  Biso   1.000  H
  H212     1.0000 0.69507  0.57003  0.41993  Biso   1.000  H
  H213     1.0000 0.71977  0.57833  0.32223  Biso   1.000  H
  H214     1.0000 0.92737  0.78923  0.44943  Biso   1.000  H
  H215     1.0000 0.91447  0.80773  0.54503  Biso   1.000  H
  H216     1.0000 0.91947  0.71823  0.58893  Biso   1.000  H
  H217     1.0000 0.84607  0.70733  0.60753  Biso   1.000  H
  H218     1.0000 0.82937  0.56763  0.53223  Biso   1.000  H
  H219     1.0000 0.78297  0.60283  0.57603  Biso   1.000  H
  H220     1.0000 0.74507  0.51363  0.46703  Biso   1.000  H
  H221     1.0000 0.79997  0.56063  0.36513  Biso   1.000  H
  Ga27     1.0000 0.43966  0.01682  0.74965  Biso   1.000  Ga
  P35      1.0000 0.51596  0.08606  0.54450  Biso   1.000  P
  P36      1.0000 0.67382  0.99329  0.39050  Biso   1.000  P
  O137     1.0000 0.49138  0.03689  0.62907  Biso   1.000  O
  O138     1.0000 0.58019  0.09030  0.50857  Biso   1.000  O
  O139     1.0000 0.46493  0.05802  0.45917  Biso   1.000  O
  O140     1.0000 0.52796  0.15244  0.57237  Biso   1.000  O
  O141     1.0000 0.66545  0.04288  0.45347  Biso   1.000  O
  O142     1.0000 0.74250  0.03124  0.34327  Biso   1.000  O
  O143     1.0000 0.66839  0.93762  0.45117  Biso   1.000  O
  O144     1.0000 0.62361  0.96650  0.30727  Biso   1.000  O
  N52      1.0000 0.50063  0.11137  0.79877  Biso   1.000  N
  N53      1.0000 0.50923  0.00007  0.81397  Biso   1.000  N
  N54      1.0000 0.39613  0.91827  0.72257  Biso   1.000  N
  C69      1.0000 0.56023  0.11487  0.83807  Biso   1.000  C
  C70      1.0000 0.54443  0.05227  0.88737  Biso   1.000  C
  C71      1.0000 0.47593  0.93227  0.84817  Biso   1.000  C
  C72      1.0000 0.43703  0.89177  0.76057  Biso   1.000  C
  H222     1.0000 0.50893  0.13357  0.74467  Biso   1.000  H
  H223     1.0000 0.48023  0.11637  0.84417  Biso   1.000  H
  H224     1.0000 0.54083  0.00487  0.76657  Biso   1.000  H
  H225     1.0000 0.36173  0.90337  0.75327  Biso   1.000  H
  H226     1.0000 0.38643  0.91167  0.65557  Biso   1.000  H
  H227     1.0000 0.59403  0.12257  0.78277  Biso   1.000  H
  H228     1.0000 0.58113  0.14107  0.87837  Biso   1.000  H
  H229     1.0000 0.58613  0.05157  0.92227  Biso   1.000  H
  H230     1.0000 0.51273  0.04067  0.94087  Biso   1.000  H
  H231     1.0000 0.49603  0.90097  0.86557  Biso   1.000  H
  H232     1.0000 0.44963  0.93617  0.90937  Biso   1.000  H
  H233     1.0000 0.41173  0.84697  0.80037  Biso   1.000  H
  H234     1.0000 0.46663  0.89397  0.69847  Biso   1.000  H
