data_image0
_cell_length_a       23.74
_cell_length_b       23.74
_cell_length_c       13.4851
_cell_angle_alpha    90
_cell_angle_beta     90
_cell_angle_gamma    120

_symmetry_space_group_name_H-M    "P 1"
_symmetry_int_tables_number       1

loop_
  _symmetry_equiv_pos_as_xyz
  'x, y, z'

loop_
  _atom_site_label
  _atom_site_occupancy
  _atom_site_fract_x
  _atom_site_fract_y
  _atom_site_fract_z
  _atom_site_thermal_displace_type
  _atom_site_B_iso_or_equiv
  _atom_site_type_symbol
  Co1      1.0000 0.36039  0.09308  0.11998  Biso   1.000  Co
  Ga1      1.0000 0.34972  0.24283  0.91544  Biso   1.000  Ga
  P1       1.0000 0.41876  0.23621  0.11950  Biso   1.000  P
  P2       1.0000 0.32680  0.98697  0.27725  Biso   1.000  P
  O1       1.0000 0.36713  0.21028  0.03778  Biso   1.000  O
  O2       1.0000 0.42224  0.17569  0.15628  Biso   1.000  O
  O3       1.0000 0.39144  0.25911  0.20680  Biso   1.000  O
  O4       1.0000 0.48401  0.28968  0.08920  Biso   1.000  O
  O5       1.0000 0.37523  0.04469  0.21210  Biso   1.000  O
  O6       1.0000 0.36709  0.95882  0.32526  Biso   1.000  O
  O7       1.0000 0.27161  0.93529  0.21766  Biso   1.000  O
  O8       1.0000 0.30032  0.01065  0.36039  Biso   1.000  O
  N1       1.0000 0.44436  0.27577  0.86930  Biso   1.000  N
  N2       1.0000 0.33240  0.15663  0.85130  Biso   1.000  N
  N3       1.0000 0.25099  0.18888  0.94120  Biso   1.000  N
  C1       1.0000 0.44730  0.21860  0.83110  Biso   1.000  C
  C2       1.0000 0.38490  0.17300  0.77970  Biso   1.000  C
  C3       1.0000 0.26500  0.12300  0.81680  Biso   1.000  C
  C4       1.0000 0.22370  0.12140  0.90290  Biso   1.000  C
  H1       1.0000 0.45110  0.29860  0.81330  Biso   1.000  H
  H2       1.0000 0.47340  0.29080  0.92170  Biso   1.000  H
  H3       1.0000 0.33280  0.12730  0.89550  Biso   1.000  H
  H4       1.0000 0.24610  0.19100  0.00770  Biso   1.000  H
  H5       1.0000 0.22990  0.20340  0.90830  Biso   1.000  H
  H6       1.0000 0.45370  0.19330  0.89050  Biso   1.000  H
  H7       1.0000 0.47320  0.23490  0.78580  Biso   1.000  H
  H8       1.0000 0.38280  0.19860  0.72430  Biso   1.000  H
  H9       1.0000 0.37750  0.12860  0.75630  Biso   1.000  H
  H10      1.0000 0.26080  0.14780  0.75720  Biso   1.000  H
  H11      1.0000 0.24730  0.07720  0.80450  Biso   1.000  H
  H12      1.0000 0.23070  0.10010  0.95700  Biso   1.000  H
  H13      1.0000 0.17580  0.10010  0.86790  Biso   1.000  H
  Ga2      1.0000 0.30628  0.24025  0.21335  Biso   1.000  Ga
  Co2      1.0000 0.02706  0.42641  0.45331  Biso   1.000  Co
  Ga3      1.0000 0.01639  0.57616  0.24877  Biso   1.000  Ga
  P3       1.0000 0.08543  0.56954  0.45283  Biso   1.000  P
  P4       1.0000 0.99347  0.32030  0.61058  Biso   1.000  P
  O9       1.0000 0.03380  0.54361  0.37111  Biso   1.000  O
  O10      1.0000 0.08891  0.50902  0.48961  Biso   1.000  O
  O11      1.0000 0.05811  0.59244  0.54013  Biso   1.000  O
  O12      1.0000 0.15068  0.62301  0.42253  Biso   1.000  O
  O13      1.0000 0.04190  0.37802  0.54543  Biso   1.000  O
  O14      1.0000 0.03376  0.29215  0.65859  Biso   1.000  O
  O15      1.0000 0.93828  0.26862  0.55099  Biso   1.000  O
  O16      1.0000 0.96699  0.34398  0.69372  Biso   1.000  O
  N4       1.0000 0.11103  0.60910  0.20263  Biso   1.000  N
  N5       1.0000 0.99907  0.48996  0.18463  Biso   1.000  N
  N6       1.0000 0.91766  0.52221  0.27453  Biso   1.000  N
  C5       1.0000 0.11397  0.55193  0.16443  Biso   1.000  C
  C6       1.0000 0.05157  0.50633  0.11303  Biso   1.000  C
  C7       1.0000 0.93167  0.45633  0.15013  Biso   1.000  C
  C8       1.0000 0.89037  0.45473  0.23623  Biso   1.000  C
  H14      1.0000 0.11777  0.63193  0.14663  Biso   1.000  H
  H15      1.0000 0.14007  0.62413  0.25503  Biso   1.000  H
  H16      1.0000 0.99947  0.46063  0.22883  Biso   1.000  H
  H17      1.0000 0.91277  0.52433  0.34103  Biso   1.000  H
  H18      1.0000 0.89657  0.53673  0.24163  Biso   1.000  H
  H19      1.0000 0.12037  0.52663  0.22383  Biso   1.000  H
  H20      1.0000 0.13987  0.56823  0.11913  Biso   1.000  H
  H21      1.0000 0.04947  0.53193  0.05763  Biso   1.000  H
  H22      1.0000 0.04417  0.46193  0.08963  Biso   1.000  H
  H23      1.0000 0.92747  0.48113  0.09053  Biso   1.000  H
  H24      1.0000 0.91397  0.41053  0.13783  Biso   1.000  H
  H25      1.0000 0.89737  0.43343  0.29033  Biso   1.000  H
  H26      1.0000 0.84247  0.43343  0.20123  Biso   1.000  H
  Ga4      1.0000 0.97294  0.57359  0.54669  Biso   1.000  Ga
  Co3      1.0000 0.69372  0.75975  0.78665  Biso   1.000  Co
  Ga5      1.0000 0.68305  0.90950  0.58211  Biso   1.000  Ga
  P5       1.0000 0.75209  0.90288  0.78617  Biso   1.000  P
  P6       1.0000 0.66013  0.65364  0.94392  Biso   1.000  P
  O17      1.0000 0.70046  0.87695  0.70445  Biso   1.000  O
  O18      1.0000 0.75557  0.84236  0.82295  Biso   1.000  O
  O19      1.0000 0.72477  0.92578  0.87347  Biso   1.000  O
  O20      1.0000 0.81734  0.95635  0.75587  Biso   1.000  O
  O21      1.0000 0.70856  0.71136  0.87877  Biso   1.000  O
  O22      1.0000 0.70042  0.62549  0.99193  Biso   1.000  O
  O23      1.0000 0.60494  0.60196  0.88433  Biso   1.000  O
  O24      1.0000 0.63365  0.67732  0.02706  Biso   1.000  O
  N7       1.0000 0.77769  0.94244  0.53597  Biso   1.000  N
  N8       1.0000 0.66573  0.82330  0.51797  Biso   1.000  N
  N9       1.0000 0.58432  0.85555  0.60787  Biso   1.000  N
  C9       1.0000 0.78063  0.88527  0.49777  Biso   1.000  C
  C10      1.0000 0.71823  0.83967  0.44637  Biso   1.000  C
  C11      1.0000 0.59833  0.78967  0.48347  Biso   1.000  C
  C12      1.0000 0.55703  0.78807  0.56957  Biso   1.000  C
  H27      1.0000 0.78443  0.96527  0.47997  Biso   1.000  H
  H28      1.0000 0.80673  0.95747  0.58837  Biso   1.000  H
  H29      1.0000 0.66613  0.79397  0.56217  Biso   1.000  H
  H30      1.0000 0.57943  0.85767  0.67437  Biso   1.000  H
  H31      1.0000 0.56323  0.87007  0.57497  Biso   1.000  H
  H32      1.0000 0.78703  0.85997  0.55717  Biso   1.000  H
  H33      1.0000 0.80653  0.90157  0.45247  Biso   1.000  H
  H34      1.0000 0.71613  0.86527  0.39097  Biso   1.000  H
  H35      1.0000 0.71083  0.79527  0.42297  Biso   1.000  H
  H36      1.0000 0.59413  0.81447  0.42387  Biso   1.000  H
  H37      1.0000 0.58063  0.74387  0.47117  Biso   1.000  H
  H38      1.0000 0.56403  0.76677  0.62367  Biso   1.000  H
  H39      1.0000 0.50913  0.76677  0.53457  Biso   1.000  H
  Ga6      1.0000 0.63961  0.90692  0.88002  Biso   1.000  Ga
  Co4      1.0000 0.90692  0.26731  0.11998  Biso   1.000  Co
  Ga7      1.0000 0.75717  0.10689  0.91544  Biso   1.000  Ga
  P7       1.0000 0.76379  0.18255  0.11950  Biso   1.000  P
  P8       1.0000 0.01303  0.33983  0.27725  Biso   1.000  P
  O25      1.0000 0.78972  0.15685  0.03778  Biso   1.000  O
  O26      1.0000 0.82431  0.24655  0.15628  Biso   1.000  O
  O27      1.0000 0.74089  0.13233  0.20680  Biso   1.000  O
  O28      1.0000 0.71032  0.19433  0.08920  Biso   1.000  O
  O29      1.0000 0.95531  0.33054  0.21210  Biso   1.000  O
  O30      1.0000 0.04118  0.40827  0.32526  Biso   1.000  O
  O31      1.0000 0.06471  0.33632  0.21766  Biso   1.000  O
  O32      1.0000 0.98935  0.28967  0.36039  Biso   1.000  O
  N10      1.0000 0.72423  0.16859  0.86930  Biso   1.000  N
  N11      1.0000 0.84337  0.17577  0.85130  Biso   1.000  N
  N12      1.0000 0.81112  0.06211  0.94120  Biso   1.000  N
  C13      1.0000 0.78140  0.22870  0.83110  Biso   1.000  C
  C14      1.0000 0.82700  0.21190  0.77970  Biso   1.000  C
  C15      1.0000 0.87700  0.14200  0.81680  Biso   1.000  C
  C16      1.0000 0.87860  0.10230  0.90290  Biso   1.000  C
  H40      1.0000 0.70140  0.15250  0.81330  Biso   1.000  H
  H41      1.0000 0.70920  0.18260  0.92170  Biso   1.000  H
  H42      1.0000 0.87270  0.20550  0.89550  Biso   1.000  H
  H43      1.0000 0.80900  0.05510  0.00770  Biso   1.000  H
  H44      1.0000 0.79660  0.02650  0.90830  Biso   1.000  H
  H45      1.0000 0.80670  0.26040  0.89050  Biso   1.000  H
  H46      1.0000 0.76510  0.23830  0.78580  Biso   1.000  H
  H47      1.0000 0.80140  0.18420  0.72430  Biso   1.000  H
  H48      1.0000 0.87140  0.24890  0.75630  Biso   1.000  H
  H49      1.0000 0.85220  0.11300  0.75720  Biso   1.000  H
  H50      1.0000 0.92280  0.17010  0.80450  Biso   1.000  H
  H51      1.0000 0.89990  0.13060  0.95700  Biso   1.000  H
  H52      1.0000 0.89990  0.07570  0.86790  Biso   1.000  H
  Ga8      1.0000 0.75975  0.06602  0.21335  Biso   1.000  Ga
  Co5      1.0000 0.57359  0.60064  0.45331  Biso   1.000  Co
  Ga9      1.0000 0.42384  0.44022  0.24877  Biso   1.000  Ga
  P9       1.0000 0.43046  0.51588  0.45283  Biso   1.000  P
  P10      1.0000 0.67970  0.67316  0.61058  Biso   1.000  P
  O33      1.0000 0.45639  0.49018  0.37111  Biso   1.000  O
  O34      1.0000 0.49098  0.57988  0.48961  Biso   1.000  O
  O35      1.0000 0.40756  0.46566  0.54013  Biso   1.000  O
  O36      1.0000 0.37699  0.52766  0.42253  Biso   1.000  O
  O37      1.0000 0.62198  0.66387  0.54543  Biso   1.000  O
  O38      1.0000 0.70785  0.74160  0.65859  Biso   1.000  O
  O39      1.0000 0.73138  0.66965  0.55099  Biso   1.000  O
  O40      1.0000 0.65602  0.62300  0.69372  Biso   1.000  O
  N13      1.0000 0.39090  0.50192  0.20263  Biso   1.000  N
  N14      1.0000 0.51004  0.50910  0.18463  Biso   1.000  N
  N15      1.0000 0.47779  0.39544  0.27453  Biso   1.000  N
  C17      1.0000 0.44807  0.56203  0.16443  Biso   1.000  C
  C18      1.0000 0.49367  0.54523  0.11303  Biso   1.000  C
  C19      1.0000 0.54367  0.47533  0.15013  Biso   1.000  C
  C20      1.0000 0.54527  0.43563  0.23623  Biso   1.000  C
  H53      1.0000 0.36807  0.48583  0.14663  Biso   1.000  H
  H54      1.0000 0.37587  0.51593  0.25503  Biso   1.000  H
  H55      1.0000 0.53937  0.53883  0.22883  Biso   1.000  H
  H56      1.0000 0.47567  0.38843  0.34103  Biso   1.000  H
  H57      1.0000 0.46327  0.35983  0.24163  Biso   1.000  H
  H58      1.0000 0.47337  0.59373  0.22383  Biso   1.000  H
  H59      1.0000 0.43177  0.57163  0.11913  Biso   1.000  H
  H60      1.0000 0.46807  0.51753  0.05763  Biso   1.000  H
  H61      1.0000 0.53807  0.58223  0.08963  Biso   1.000  H
  H62      1.0000 0.51887  0.44633  0.09053  Biso   1.000  H
  H63      1.0000 0.58947  0.50343  0.13783  Biso   1.000  H
  H64      1.0000 0.56657  0.46393  0.29033  Biso   1.000  H
  H65      1.0000 0.56657  0.40903  0.20123  Biso   1.000  H
  Ga10     1.0000 0.42641  0.39936  0.54669  Biso   1.000  Ga
  Co6      1.0000 0.24025  0.93398  0.78665  Biso   1.000  Co
  Ga11     1.0000 0.09050  0.77356  0.58211  Biso   1.000  Ga
  P11      1.0000 0.09712  0.84922  0.78617  Biso   1.000  P
  P12      1.0000 0.34636  0.00650  0.94392  Biso   1.000  P
  O41      1.0000 0.12305  0.82352  0.70445  Biso   1.000  O
  O42      1.0000 0.15764  0.91322  0.82295  Biso   1.000  O
  O43      1.0000 0.07422  0.79900  0.87347  Biso   1.000  O
  O44      1.0000 0.04365  0.86100  0.75587  Biso   1.000  O
  O45      1.0000 0.28864  0.99721  0.87877  Biso   1.000  O
  O46      1.0000 0.37451  0.07494  0.99193  Biso   1.000  O
  O47      1.0000 0.39804  0.00299  0.88433  Biso   1.000  O
  O48      1.0000 0.32268  0.95634  0.02706  Biso   1.000  O
  N16      1.0000 0.05756  0.83526  0.53597  Biso   1.000  N
  N17      1.0000 0.17670  0.84244  0.51797  Biso   1.000  N
  N18      1.0000 0.14445  0.72878  0.60787  Biso   1.000  N
  C21      1.0000 0.11473  0.89537  0.49777  Biso   1.000  C
  C22      1.0000 0.16033  0.87857  0.44637  Biso   1.000  C
  C23      1.0000 0.21033  0.80867  0.48347  Biso   1.000  C
  C24      1.0000 0.21193  0.76897  0.56957  Biso   1.000  C
  H66      1.0000 0.03473  0.81917  0.47997  Biso   1.000  H
  H67      1.0000 0.04253  0.84927  0.58837  Biso   1.000  H
  H68      1.0000 0.20603  0.87217  0.56217  Biso   1.000  H
  H69      1.0000 0.14233  0.72177  0.67437  Biso   1.000  H
  H70      1.0000 0.12993  0.69317  0.57497  Biso   1.000  H
  H71      1.0000 0.14003  0.92707  0.55717  Biso   1.000  H
  H72      1.0000 0.09843  0.90497  0.45247  Biso   1.000  H
  H73      1.0000 0.13473  0.85087  0.39097  Biso   1.000  H
  H74      1.0000 0.20473  0.91557  0.42297  Biso   1.000  H
  H75      1.0000 0.18553  0.77967  0.42387  Biso   1.000  H
  H76      1.0000 0.25613  0.83677  0.47117  Biso   1.000  H
  H77      1.0000 0.23323  0.79727  0.62367  Biso   1.000  H
  H78      1.0000 0.23323  0.74237  0.53457  Biso   1.000  H
  Ga12     1.0000 0.09308  0.73269  0.88002  Biso   1.000  Ga
  Co7      1.0000 0.73269  0.63961  0.11998  Biso   1.000  Co
  Ga13     1.0000 0.89311  0.65028  0.91544  Biso   1.000  Ga
  P13      1.0000 0.81745  0.58124  0.11950  Biso   1.000  P
  P14      1.0000 0.66017  0.67320  0.27725  Biso   1.000  P
  O49      1.0000 0.84315  0.63287  0.03778  Biso   1.000  O
  O50      1.0000 0.75345  0.57776  0.15628  Biso   1.000  O
  O51      1.0000 0.86767  0.60856  0.20680  Biso   1.000  O
  O52      1.0000 0.80567  0.51599  0.08920  Biso   1.000  O
  O53      1.0000 0.66946  0.62477  0.21210  Biso   1.000  O
  O54      1.0000 0.59173  0.63291  0.32526  Biso   1.000  O
  O55      1.0000 0.66368  0.72839  0.21766  Biso   1.000  O
  O56      1.0000 0.71033  0.69968  0.36039  Biso   1.000  O
  N19      1.0000 0.83141  0.55564  0.86930  Biso   1.000  N
  N20      1.0000 0.82423  0.66760  0.85130  Biso   1.000  N
  N21      1.0000 0.93789  0.74901  0.94120  Biso   1.000  N
  C25      1.0000 0.77130  0.55270  0.83110  Biso   1.000  C
  C26      1.0000 0.78810  0.61510  0.77970  Biso   1.000  C
  C27      1.0000 0.85800  0.73500  0.81680  Biso   1.000  C
  C28      1.0000 0.89770  0.77630  0.90290  Biso   1.000  C
  H79      1.0000 0.84750  0.54890  0.81330  Biso   1.000  H
  H80      1.0000 0.81740  0.52660  0.92170  Biso   1.000  H
  H81      1.0000 0.79450  0.66720  0.89550  Biso   1.000  H
  H82      1.0000 0.94490  0.75390  0.00770  Biso   1.000  H
  H83      1.0000 0.97350  0.77010  0.90830  Biso   1.000  H
  H84      1.0000 0.73960  0.54630  0.89050  Biso   1.000  H
  H85      1.0000 0.76170  0.52680  0.78580  Biso   1.000  H
  H86      1.0000 0.81580  0.61720  0.72430  Biso   1.000  H
  H87      1.0000 0.75110  0.62250  0.75630  Biso   1.000  H
  H88      1.0000 0.88700  0.73920  0.75720  Biso   1.000  H
  H89      1.0000 0.82990  0.75270  0.80450  Biso   1.000  H
  H90      1.0000 0.86940  0.76930  0.95700  Biso   1.000  H
  H91      1.0000 0.92430  0.82420  0.86790  Biso   1.000  H
  Ga14     1.0000 0.93398  0.69372  0.21335  Biso   1.000  Ga
  Co8      1.0000 0.39936  0.97294  0.45331  Biso   1.000  Co
  Ga15     1.0000 0.55978  0.98361  0.24877  Biso   1.000  Ga
  P15      1.0000 0.48412  0.91457  0.45283  Biso   1.000  P
  P16      1.0000 0.32684  0.00653  0.61058  Biso   1.000  P
  O57      1.0000 0.50982  0.96620  0.37111  Biso   1.000  O
  O58      1.0000 0.42012  0.91109  0.48961  Biso   1.000  O
  O59      1.0000 0.53434  0.94189  0.54013  Biso   1.000  O
  O60      1.0000 0.47234  0.84932  0.42253  Biso   1.000  O
  O61      1.0000 0.33613  0.95810  0.54543  Biso   1.000  O
  O62      1.0000 0.25840  0.96624  0.65859  Biso   1.000  O
  O63      1.0000 0.33035  0.06172  0.55099  Biso   1.000  O
  O64      1.0000 0.37700  0.03301  0.69372  Biso   1.000  O
  N22      1.0000 0.49808  0.88897  0.20263  Biso   1.000  N
  N23      1.0000 0.49090  0.00093  0.18463  Biso   1.000  N
  N24      1.0000 0.60456  0.08234  0.27453  Biso   1.000  N
  C29      1.0000 0.43797  0.88603  0.16443  Biso   1.000  C
  C30      1.0000 0.45477  0.94843  0.11303  Biso   1.000  C
  C31      1.0000 0.52467  0.06833  0.15013  Biso   1.000  C
  C32      1.0000 0.56437  0.10963  0.23623  Biso   1.000  C
  H92      1.0000 0.51417  0.88223  0.14663  Biso   1.000  H
  H93      1.0000 0.48407  0.85993  0.25503  Biso   1.000  H
  H94      1.0000 0.46117  0.00053  0.22883  Biso   1.000  H
  H95      1.0000 0.61157  0.08723  0.34103  Biso   1.000  H
  H96      1.0000 0.64017  0.10343  0.24163  Biso   1.000  H
  H97      1.0000 0.40627  0.87963  0.22383  Biso   1.000  H
  H98      1.0000 0.42837  0.86013  0.11913  Biso   1.000  H
  H99      1.0000 0.48247  0.95053  0.05763  Biso   1.000  H
  H100     1.0000 0.41777  0.95583  0.08963  Biso   1.000  H
  H101     1.0000 0.55367  0.07253  0.09053  Biso   1.000  H
  H102     1.0000 0.49657  0.08603  0.13783  Biso   1.000  H
  H103     1.0000 0.53607  0.10263  0.29033  Biso   1.000  H
  H104     1.0000 0.59097  0.15753  0.20123  Biso   1.000  H
  Ga16     1.0000 0.60064  0.02706  0.54669  Biso   1.000  Ga
  Co9      1.0000 0.06602  0.30628  0.78665  Biso   1.000  Co
  Ga17     1.0000 0.22644  0.31695  0.58211  Biso   1.000  Ga
  P17      1.0000 0.15078  0.24791  0.78617  Biso   1.000  P
  P18      1.0000 0.99350  0.33987  0.94392  Biso   1.000  P
  O65      1.0000 0.17648  0.29954  0.70445  Biso   1.000  O
  O66      1.0000 0.08678  0.24443  0.82295  Biso   1.000  O
  O67      1.0000 0.20100  0.27523  0.87347  Biso   1.000  O
  O68      1.0000 0.13900  0.18266  0.75587  Biso   1.000  O
  O69      1.0000 0.00279  0.29144  0.87877  Biso   1.000  O
  O70      1.0000 0.92506  0.29958  0.99193  Biso   1.000  O
  O71      1.0000 0.99701  0.39506  0.88433  Biso   1.000  O
  O72      1.0000 0.04366  0.36635  0.02706  Biso   1.000  O
  N25      1.0000 0.16474  0.22231  0.53597  Biso   1.000  N
  N26      1.0000 0.15756  0.33427  0.51797  Biso   1.000  N
  N27      1.0000 0.27122  0.41568  0.60787  Biso   1.000  N
  C33      1.0000 0.10463  0.21937  0.49777  Biso   1.000  C
  C34      1.0000 0.12143  0.28177  0.44637  Biso   1.000  C
  C35      1.0000 0.19133  0.40167  0.48347  Biso   1.000  C
  C36      1.0000 0.23103  0.44297  0.56957  Biso   1.000  C
  H105     1.0000 0.18083  0.21557  0.47997  Biso   1.000  H
  H106     1.0000 0.15073  0.19327  0.58837  Biso   1.000  H
  H107     1.0000 0.12783  0.33387  0.56217  Biso   1.000  H
  H108     1.0000 0.27823  0.42057  0.67437  Biso   1.000  H
  H109     1.0000 0.30683  0.43677  0.57497  Biso   1.000  H
  H110     1.0000 0.07293  0.21297  0.55717  Biso   1.000  H
  H111     1.0000 0.09503  0.19347  0.45247  Biso   1.000  H
  H112     1.0000 0.14913  0.28387  0.39097  Biso   1.000  H
  H113     1.0000 0.08443  0.28917  0.42297  Biso   1.000  H
  H114     1.0000 0.22033  0.40587  0.42387  Biso   1.000  H
  H115     1.0000 0.16323  0.41937  0.47117  Biso   1.000  H
  H116     1.0000 0.20273  0.43597  0.62367  Biso   1.000  H
  H117     1.0000 0.25763  0.49087  0.53457  Biso   1.000  H
  Ga18     1.0000 0.26731  0.36039  0.88002  Biso   1.000  Ga
  Ga19     1.0000 0.65028  0.75717  0.08456  Biso   1.000  Ga
  P19      1.0000 0.58124  0.76379  0.88050  Biso   1.000  P
  P20      1.0000 0.67320  0.01303  0.72275  Biso   1.000  P
  O73      1.0000 0.63287  0.78972  0.96222  Biso   1.000  O
  O74      1.0000 0.57776  0.82431  0.84372  Biso   1.000  O
  O75      1.0000 0.60856  0.74089  0.79320  Biso   1.000  O
  O76      1.0000 0.51599  0.71032  0.91080  Biso   1.000  O
  O77      1.0000 0.62477  0.95531  0.78790  Biso   1.000  O
  O78      1.0000 0.63291  0.04118  0.67474  Biso   1.000  O
  O79      1.0000 0.72839  0.06471  0.78234  Biso   1.000  O
  O80      1.0000 0.69968  0.98935  0.63961  Biso   1.000  O
  N28      1.0000 0.55564  0.72423  0.13070  Biso   1.000  N
  N29      1.0000 0.66760  0.84337  0.14870  Biso   1.000  N
  N30      1.0000 0.74901  0.81112  0.05880  Biso   1.000  N
  C37      1.0000 0.55270  0.78140  0.16890  Biso   1.000  C
  C38      1.0000 0.61510  0.82700  0.22030  Biso   1.000  C
  C39      1.0000 0.73500  0.87700  0.18320  Biso   1.000  C
  C40      1.0000 0.77630  0.87860  0.09710  Biso   1.000  C
  H118     1.0000 0.54890  0.70140  0.18670  Biso   1.000  H
  H119     1.0000 0.52660  0.70920  0.07830  Biso   1.000  H
  H120     1.0000 0.66720  0.87270  0.10450  Biso   1.000  H
  H121     1.0000 0.75390  0.80900  0.99230  Biso   1.000  H
  H122     1.0000 0.77010  0.79660  0.09170  Biso   1.000  H
  H123     1.0000 0.54630  0.80670  0.10950  Biso   1.000  H
  H124     1.0000 0.52680  0.76510  0.21420  Biso   1.000  H
  H125     1.0000 0.61720  0.80140  0.27570  Biso   1.000  H
  H126     1.0000 0.62250  0.87140  0.24370  Biso   1.000  H
  H127     1.0000 0.73920  0.85220  0.24280  Biso   1.000  H
  H128     1.0000 0.75270  0.92280  0.19550  Biso   1.000  H
  H129     1.0000 0.76930  0.89990  0.04300  Biso   1.000  H
  H130     1.0000 0.82420  0.89990  0.13210  Biso   1.000  H
  Ga20     1.0000 0.31695  0.09050  0.41789  Biso   1.000  Ga
  P21      1.0000 0.24791  0.09712  0.21383  Biso   1.000  P
  P22      1.0000 0.33987  0.34636  0.05608  Biso   1.000  P
  O81      1.0000 0.29954  0.12305  0.29555  Biso   1.000  O
  O82      1.0000 0.24443  0.15764  0.17705  Biso   1.000  O
  O83      1.0000 0.27523  0.07422  0.12653  Biso   1.000  O
  O84      1.0000 0.18266  0.04365  0.24413  Biso   1.000  O
  O85      1.0000 0.29144  0.28864  0.12123  Biso   1.000  O
  O86      1.0000 0.29958  0.37451  0.00807  Biso   1.000  O
  O87      1.0000 0.39506  0.39804  0.11567  Biso   1.000  O
  O88      1.0000 0.36635  0.32268  0.97294  Biso   1.000  O
  N31      1.0000 0.22231  0.05756  0.46403  Biso   1.000  N
  N32      1.0000 0.33427  0.17670  0.48203  Biso   1.000  N
  N33      1.0000 0.41568  0.14445  0.39213  Biso   1.000  N
  C41      1.0000 0.21937  0.11473  0.50223  Biso   1.000  C
  C42      1.0000 0.28177  0.16033  0.55363  Biso   1.000  C
  C43      1.0000 0.40167  0.21033  0.51653  Biso   1.000  C
  C44      1.0000 0.44297  0.21193  0.43043  Biso   1.000  C
  H131     1.0000 0.21557  0.03473  0.52003  Biso   1.000  H
  H132     1.0000 0.19327  0.04253  0.41163  Biso   1.000  H
  H133     1.0000 0.33387  0.20603  0.43783  Biso   1.000  H
  H134     1.0000 0.42057  0.14233  0.32563  Biso   1.000  H
  H135     1.0000 0.43677  0.12993  0.42503  Biso   1.000  H
  H136     1.0000 0.21297  0.14003  0.44283  Biso   1.000  H
  H137     1.0000 0.19347  0.09843  0.54753  Biso   1.000  H
  H138     1.0000 0.28387  0.13473  0.60903  Biso   1.000  H
  H139     1.0000 0.28917  0.20473  0.57703  Biso   1.000  H
  H140     1.0000 0.40587  0.18553  0.57613  Biso   1.000  H
  H141     1.0000 0.41937  0.25613  0.52883  Biso   1.000  H
  H142     1.0000 0.43597  0.23323  0.37633  Biso   1.000  H
  H143     1.0000 0.49087  0.23323  0.46543  Biso   1.000  H
  Ga21     1.0000 0.98361  0.42384  0.75123  Biso   1.000  Ga
  P23      1.0000 0.91457  0.43046  0.54717  Biso   1.000  P
  P24      1.0000 0.00653  0.67970  0.38942  Biso   1.000  P
  O89      1.0000 0.96620  0.45639  0.62889  Biso   1.000  O
  O90      1.0000 0.91109  0.49098  0.51039  Biso   1.000  O
  O91      1.0000 0.94189  0.40756  0.45987  Biso   1.000  O
  O92      1.0000 0.84932  0.37699  0.57747  Biso   1.000  O
  O93      1.0000 0.95810  0.62198  0.45457  Biso   1.000  O
  O94      1.0000 0.96624  0.70785  0.34141  Biso   1.000  O
  O95      1.0000 0.06172  0.73138  0.44901  Biso   1.000  O
  O96      1.0000 0.03301  0.65602  0.30628  Biso   1.000  O
  N34      1.0000 0.88897  0.39090  0.79737  Biso   1.000  N
  N35      1.0000 0.00093  0.51004  0.81537  Biso   1.000  N
  N36      1.0000 0.08234  0.47779  0.72547  Biso   1.000  N
  C45      1.0000 0.88603  0.44807  0.83557  Biso   1.000  C
  C46      1.0000 0.94843  0.49367  0.88697  Biso   1.000  C
  C47      1.0000 0.06833  0.54367  0.84987  Biso   1.000  C
  C48      1.0000 0.10963  0.54527  0.76377  Biso   1.000  C
  H144     1.0000 0.88223  0.36807  0.85337  Biso   1.000  H
  H145     1.0000 0.85993  0.37587  0.74497  Biso   1.000  H
  H146     1.0000 0.00053  0.53937  0.77117  Biso   1.000  H
  H147     1.0000 0.08723  0.47567  0.65897  Biso   1.000  H
  H148     1.0000 0.10343  0.46327  0.75837  Biso   1.000  H
  H149     1.0000 0.87963  0.47337  0.77617  Biso   1.000  H
  H150     1.0000 0.86013  0.43177  0.88087  Biso   1.000  H
  H151     1.0000 0.95053  0.46807  0.94237  Biso   1.000  H
  H152     1.0000 0.95583  0.53807  0.91037  Biso   1.000  H
  H153     1.0000 0.07253  0.51887  0.90947  Biso   1.000  H
  H154     1.0000 0.08603  0.58947  0.86217  Biso   1.000  H
  H155     1.0000 0.10263  0.56657  0.70967  Biso   1.000  H
  H156     1.0000 0.15753  0.56657  0.79877  Biso   1.000  H
  Ga22     1.0000 0.24283  0.89311  0.08456  Biso   1.000  Ga
  P25      1.0000 0.23621  0.81745  0.88050  Biso   1.000  P
  P26      1.0000 0.98697  0.66017  0.72275  Biso   1.000  P
  O97      1.0000 0.21028  0.84315  0.96222  Biso   1.000  O
  O98      1.0000 0.17569  0.75345  0.84372  Biso   1.000  O
  O99      1.0000 0.25911  0.86767  0.79320  Biso   1.000  O
  O100     1.0000 0.28968  0.80567  0.91080  Biso   1.000  O
  O101     1.0000 0.04469  0.66946  0.78790  Biso   1.000  O
  O102     1.0000 0.95882  0.59173  0.67474  Biso   1.000  O
  O103     1.0000 0.93529  0.66368  0.78234  Biso   1.000  O
  O104     1.0000 0.01065  0.71033  0.63961  Biso   1.000  O
  N37      1.0000 0.27577  0.83141  0.13070  Biso   1.000  N
  N38      1.0000 0.15663  0.82423  0.14870  Biso   1.000  N
  N39      1.0000 0.18888  0.93789  0.05880  Biso   1.000  N
  C49      1.0000 0.21860  0.77130  0.16890  Biso   1.000  C
  C50      1.0000 0.17300  0.78810  0.22030  Biso   1.000  C
  C51      1.0000 0.12300  0.85800  0.18320  Biso   1.000  C
  C52      1.0000 0.12140  0.89770  0.09710  Biso   1.000  C
  H157     1.0000 0.29860  0.84750  0.18670  Biso   1.000  H
  H158     1.0000 0.29080  0.81740  0.07830  Biso   1.000  H
  H159     1.0000 0.12730  0.79450  0.10450  Biso   1.000  H
  H160     1.0000 0.19100  0.94490  0.99230  Biso   1.000  H
  H161     1.0000 0.20340  0.97350  0.09170  Biso   1.000  H
  H162     1.0000 0.19330  0.73960  0.10950  Biso   1.000  H
  H163     1.0000 0.23490  0.76170  0.21420  Biso   1.000  H
  H164     1.0000 0.19860  0.81580  0.27570  Biso   1.000  H
  H165     1.0000 0.12860  0.75110  0.24370  Biso   1.000  H
  H166     1.0000 0.14780  0.88700  0.24280  Biso   1.000  H
  H167     1.0000 0.07720  0.82990  0.19550  Biso   1.000  H
  H168     1.0000 0.10010  0.86940  0.04300  Biso   1.000  H
  H169     1.0000 0.10010  0.92430  0.13210  Biso   1.000  H
  Ga23     1.0000 0.90950  0.22644  0.41789  Biso   1.000  Ga
  P27      1.0000 0.90288  0.15078  0.21383  Biso   1.000  P
  P28      1.0000 0.65364  0.99350  0.05608  Biso   1.000  P
  O105     1.0000 0.87695  0.17648  0.29555  Biso   1.000  O
  O106     1.0000 0.84236  0.08678  0.17705  Biso   1.000  O
  O107     1.0000 0.92578  0.20100  0.12653  Biso   1.000  O
  O108     1.0000 0.95635  0.13900  0.24413  Biso   1.000  O
  O109     1.0000 0.71136  0.00279  0.12123  Biso   1.000  O
  O110     1.0000 0.62549  0.92506  0.00807  Biso   1.000  O
  O111     1.0000 0.60196  0.99701  0.11567  Biso   1.000  O
  O112     1.0000 0.67732  0.04366  0.97294  Biso   1.000  O
  N40      1.0000 0.94244  0.16474  0.46403  Biso   1.000  N
  N41      1.0000 0.82330  0.15756  0.48203  Biso   1.000  N
  N42      1.0000 0.85555  0.27122  0.39213  Biso   1.000  N
  C53      1.0000 0.88527  0.10463  0.50223  Biso   1.000  C
  C54      1.0000 0.83967  0.12143  0.55363  Biso   1.000  C
  C55      1.0000 0.78967  0.19133  0.51653  Biso   1.000  C
  C56      1.0000 0.78807  0.23103  0.43043  Biso   1.000  C
  H170     1.0000 0.96527  0.18083  0.52003  Biso   1.000  H
  H171     1.0000 0.95747  0.15073  0.41163  Biso   1.000  H
  H172     1.0000 0.79397  0.12783  0.43783  Biso   1.000  H
  H173     1.0000 0.85767  0.27823  0.32563  Biso   1.000  H
  H174     1.0000 0.87007  0.30683  0.42503  Biso   1.000  H
  H175     1.0000 0.85997  0.07293  0.44283  Biso   1.000  H
  H176     1.0000 0.90157  0.09503  0.54753  Biso   1.000  H
  H177     1.0000 0.86527  0.14913  0.60903  Biso   1.000  H
  H178     1.0000 0.79527  0.08443  0.57703  Biso   1.000  H
  H179     1.0000 0.81447  0.22033  0.57613  Biso   1.000  H
  H180     1.0000 0.74387  0.16323  0.52883  Biso   1.000  H
  H181     1.0000 0.76677  0.20273  0.37633  Biso   1.000  H
  H182     1.0000 0.76677  0.25763  0.46543  Biso   1.000  H
  Ga24     1.0000 0.57616  0.55978  0.75123  Biso   1.000  Ga
  P29      1.0000 0.56954  0.48412  0.54717  Biso   1.000  P
  P30      1.0000 0.32030  0.32684  0.38942  Biso   1.000  P
  O113     1.0000 0.54361  0.50982  0.62889  Biso   1.000  O
  O114     1.0000 0.50902  0.42012  0.51039  Biso   1.000  O
  O115     1.0000 0.59244  0.53434  0.45987  Biso   1.000  O
  O116     1.0000 0.62301  0.47234  0.57747  Biso   1.000  O
  O117     1.0000 0.37802  0.33613  0.45457  Biso   1.000  O
  O118     1.0000 0.29215  0.25840  0.34141  Biso   1.000  O
  O119     1.0000 0.26862  0.33035  0.44901  Biso   1.000  O
  O120     1.0000 0.34398  0.37700  0.30628  Biso   1.000  O
  N43      1.0000 0.60910  0.49808  0.79737  Biso   1.000  N
  N44      1.0000 0.48996  0.49090  0.81537  Biso   1.000  N
  N45      1.0000 0.52221  0.60456  0.72547  Biso   1.000  N
  C57      1.0000 0.55193  0.43797  0.83557  Biso   1.000  C
  C58      1.0000 0.50633  0.45477  0.88697  Biso   1.000  C
  C59      1.0000 0.45633  0.52467  0.84987  Biso   1.000  C
  C60      1.0000 0.45473  0.56437  0.76377  Biso   1.000  C
  H183     1.0000 0.63193  0.51417  0.85337  Biso   1.000  H
  H184     1.0000 0.62413  0.48407  0.74497  Biso   1.000  H
  H185     1.0000 0.46063  0.46117  0.77117  Biso   1.000  H
  H186     1.0000 0.52433  0.61157  0.65897  Biso   1.000  H
  H187     1.0000 0.53673  0.64017  0.75837  Biso   1.000  H
  H188     1.0000 0.52663  0.40627  0.77617  Biso   1.000  H
  H189     1.0000 0.56823  0.42837  0.88087  Biso   1.000  H
  H190     1.0000 0.53193  0.48247  0.94237  Biso   1.000  H
  H191     1.0000 0.46193  0.41777  0.91037  Biso   1.000  H
  H192     1.0000 0.48113  0.55367  0.90947  Biso   1.000  H
  H193     1.0000 0.41053  0.49657  0.86217  Biso   1.000  H
  H194     1.0000 0.43343  0.53607  0.70967  Biso   1.000  H
  H195     1.0000 0.43343  0.59097  0.79877  Biso   1.000  H
  Ga25     1.0000 0.10689  0.34972  0.08456  Biso   1.000  Ga
  P31      1.0000 0.18255  0.41876  0.88050  Biso   1.000  P
  P32      1.0000 0.33983  0.32680  0.72275  Biso   1.000  P
  O121     1.0000 0.15685  0.36713  0.96222  Biso   1.000  O
  O122     1.0000 0.24655  0.42224  0.84372  Biso   1.000  O
  O123     1.0000 0.13233  0.39144  0.79320  Biso   1.000  O
  O124     1.0000 0.19433  0.48401  0.91080  Biso   1.000  O
  O125     1.0000 0.33054  0.37523  0.78790  Biso   1.000  O
  O126     1.0000 0.40827  0.36709  0.67474  Biso   1.000  O
  O127     1.0000 0.33632  0.27161  0.78234  Biso   1.000  O
  O128     1.0000 0.28967  0.30032  0.63961  Biso   1.000  O
  N46      1.0000 0.16859  0.44436  0.13070  Biso   1.000  N
  N47      1.0000 0.17577  0.33240  0.14870  Biso   1.000  N
  N48      1.0000 0.06211  0.25099  0.05880  Biso   1.000  N
  C61      1.0000 0.22870  0.44730  0.16890  Biso   1.000  C
  C62      1.0000 0.21190  0.38490  0.22030  Biso   1.000  C
  C63      1.0000 0.14200  0.26500  0.18320  Biso   1.000  C
  C64      1.0000 0.10230  0.22370  0.09710  Biso   1.000  C
  H196     1.0000 0.15250  0.45110  0.18670  Biso   1.000  H
  H197     1.0000 0.18260  0.47340  0.07830  Biso   1.000  H
  H198     1.0000 0.20550  0.33280  0.10450  Biso   1.000  H
  H199     1.0000 0.05510  0.24610  0.99230  Biso   1.000  H
  H200     1.0000 0.02650  0.22990  0.09170  Biso   1.000  H
  H201     1.0000 0.26040  0.45370  0.10950  Biso   1.000  H
  H202     1.0000 0.23830  0.47320  0.21420  Biso   1.000  H
  H203     1.0000 0.18420  0.38280  0.27570  Biso   1.000  H
  H204     1.0000 0.24890  0.37750  0.24370  Biso   1.000  H
  H205     1.0000 0.11300  0.26080  0.24280  Biso   1.000  H
  H206     1.0000 0.17010  0.24730  0.19550  Biso   1.000  H
  H207     1.0000 0.13060  0.23070  0.04300  Biso   1.000  H
  H208     1.0000 0.07570  0.17580  0.13210  Biso   1.000  H
  Ga26     1.0000 0.77356  0.68305  0.41789  Biso   1.000  Ga
  P33      1.0000 0.84922  0.75209  0.21383  Biso   1.000  P
  P34      1.0000 0.00650  0.66013  0.05608  Biso   1.000  P
  O129     1.0000 0.82352  0.70046  0.29555  Biso   1.000  O
  O130     1.0000 0.91322  0.75557  0.17705  Biso   1.000  O
  O131     1.0000 0.79900  0.72477  0.12653  Biso   1.000  O
  O132     1.0000 0.86100  0.81734  0.24413  Biso   1.000  O
  O133     1.0000 0.99721  0.70856  0.12123  Biso   1.000  O
  O134     1.0000 0.07494  0.70042  0.00807  Biso   1.000  O
  O135     1.0000 0.00299  0.60494  0.11567  Biso   1.000  O
  O136     1.0000 0.95634  0.63365  0.97294  Biso   1.000  O
  N49      1.0000 0.83526  0.77769  0.46403  Biso   1.000  N
  N50      1.0000 0.84244  0.66573  0.48203  Biso   1.000  N
  N51      1.0000 0.72878  0.58432  0.39213  Biso   1.000  N
  C65      1.0000 0.89537  0.78063  0.50223  Biso   1.000  C
  C66      1.0000 0.87857  0.71823  0.55363  Biso   1.000  C
  C67      1.0000 0.80867  0.59833  0.51653  Biso   1.000  C
  C68      1.0000 0.76897  0.55703  0.43043  Biso   1.000  C
  H209     1.0000 0.81917  0.78443  0.52003  Biso   1.000  H
  H210     1.0000 0.84927  0.80673  0.41163  Biso   1.000  H
  H211     1.0000 0.87217  0.66613  0.43783  Biso   1.000  H
  H212     1.0000 0.72177  0.57943  0.32563  Biso   1.000  H
  H213     1.0000 0.69317  0.56323  0.42503  Biso   1.000  H
  H214     1.0000 0.92707  0.78703  0.44283  Biso   1.000  H
  H215     1.0000 0.90497  0.80653  0.54753  Biso   1.000  H
  H216     1.0000 0.85087  0.71613  0.60903  Biso   1.000  H
  H217     1.0000 0.91557  0.71083  0.57703  Biso   1.000  H
  H218     1.0000 0.77967  0.59413  0.57613  Biso   1.000  H
  H219     1.0000 0.83677  0.58063  0.52883  Biso   1.000  H
  H220     1.0000 0.79727  0.56403  0.37633  Biso   1.000  H
  H221     1.0000 0.74237  0.50913  0.46543  Biso   1.000  H
  Ga27     1.0000 0.44022  0.01639  0.75123  Biso   1.000  Ga
  P35      1.0000 0.51588  0.08543  0.54717  Biso   1.000  P
  P36      1.0000 0.67316  0.99347  0.38942  Biso   1.000  P
  O137     1.0000 0.49018  0.03380  0.62889  Biso   1.000  O
  O138     1.0000 0.57988  0.08891  0.51039  Biso   1.000  O
  O139     1.0000 0.46566  0.05811  0.45987  Biso   1.000  O
  O140     1.0000 0.52766  0.15068  0.57747  Biso   1.000  O
  O141     1.0000 0.66387  0.04190  0.45457  Biso   1.000  O
  O142     1.0000 0.74160  0.03376  0.34141  Biso   1.000  O
  O143     1.0000 0.66965  0.93828  0.44901  Biso   1.000  O
  O144     1.0000 0.62300  0.96699  0.30628  Biso   1.000  O
  N52      1.0000 0.50192  0.11103  0.79737  Biso   1.000  N
  N53      1.0000 0.50910  0.99907  0.81537  Biso   1.000  N
  N54      1.0000 0.39544  0.91766  0.72547  Biso   1.000  N
  C69      1.0000 0.56203  0.11397  0.83557  Biso   1.000  C
  C70      1.0000 0.54523  0.05157  0.88697  Biso   1.000  C
  C71      1.0000 0.47533  0.93167  0.84987  Biso   1.000  C
  C72      1.0000 0.43563  0.89037  0.76377  Biso   1.000  C
  H222     1.0000 0.48583  0.11777  0.85337  Biso   1.000  H
  H223     1.0000 0.51593  0.14007  0.74497  Biso   1.000  H
  H224     1.0000 0.53883  0.99947  0.77117  Biso   1.000  H
  H225     1.0000 0.38843  0.91277  0.65897  Biso   1.000  H
  H226     1.0000 0.35983  0.89657  0.75837  Biso   1.000  H
  H227     1.0000 0.59373  0.12037  0.77617  Biso   1.000  H
  H228     1.0000 0.57163  0.13987  0.88087  Biso   1.000  H
  H229     1.0000 0.51753  0.04947  0.94237  Biso   1.000  H
  H230     1.0000 0.58223  0.04417  0.91037  Biso   1.000  H
  H231     1.0000 0.44633  0.92747  0.90947  Biso   1.000  H
  H232     1.0000 0.50343  0.91397  0.86217  Biso   1.000  H
  H233     1.0000 0.46393  0.89737  0.70967  Biso   1.000  H
  H234     1.0000 0.40903  0.84247  0.79877  Biso   1.000  H
