data_HEHCOO_clean
_audit_creation_date              2014-07-02
_audit_creation_method            'Materials Studio'
_symmetry_space_group_name_H-M    'P1'
_symmetry_Int_Tables_number       1
_symmetry_cell_setting            triclinic
loop_
_symmetry_equiv_pos_as_xyz
  x,y,z
_cell_length_a                    21.8580
_cell_length_b                    21.8580
_cell_length_c                    23.3330
_cell_angle_alpha                 90.0000
_cell_angle_beta                  90.0000
_cell_angle_gamma                 120.0000
loop_
_atom_site_label
_atom_site_type_symbol
_atom_site_fract_x
_atom_site_fract_y
_atom_site_fract_z
_atom_site_U_iso_or_equiv
_atom_site_adp_type
_atom_site_occupancy
Cd1    Cd    0.59352   0.12951   0.87132   0.01267  Uiso   1.00
Cd2    Cd    0.40648   0.53599   0.79535   0.01267  Uiso   1.00
Co1    Co    0.52615   0.88986   0.85288   0.01267  Uiso   1.00
Co2    Co    0.47385   0.36371   0.81379   0.01267  Uiso   1.00
H1     H     0.45380   0.09730   0.81380   0.01267  Uiso   1.00
H2     H     0.37970   0.04810   0.73630   0.01267  Uiso   1.00
H3     H     0.35900   0.93720   0.70360   0.01267  Uiso   1.00
H4     H     0.44790   0.91220   0.71770   0.01267  Uiso   1.00
H5     H     0.72060   0.97980   0.72150   0.01267  Uiso   1.00
H6     H     0.76440   0.90430   0.76000   0.01267  Uiso   1.00
H7     H     0.70120   0.82570   0.83770   0.01267  Uiso   1.00
H8     H     0.44900   0.68890   0.92370   0.01267  Uiso   1.00
H9     H     0.38320   0.63550   0.00240   0.01267  Uiso   1.00
H10    H     0.38310   0.70720   0.08110   0.01267  Uiso   1.00
H11    H     0.52550   0.87580   0.00170   0.01267  Uiso   1.00
H12    H     0.75090   0.16920   0.86640   0.01267  Uiso   1.00
H13    H     0.83220   0.13140   0.89470   0.01267  Uiso   1.00
H14    H     0.78870   0.02300   0.94190   0.01267  Uiso   1.00
H15    H     0.66540   0.94680   0.94610   0.01267  Uiso   1.00
H16    H     0.38770   0.97360   0.94910   0.01267  Uiso   1.00
H17    H     0.27900   0.88190   0.91300   0.01267  Uiso   1.00
H18    H     0.28090   0.80530   0.84440   0.01267  Uiso   1.00
H19    H     0.53810   0.64990   0.71020   0.01267  Uiso   1.00
H20    H     0.57690   0.76000   0.67090   0.01267  Uiso   1.00
H21    H     0.53690   0.83420   0.70910   0.01267  Uiso   1.00
H22    H     0.42450   0.68280   0.82540   0.01267  Uiso   1.00
H23    H     0.54620   0.64350   0.85287   0.01267  Uiso   1.00
H24    H     0.62030   0.66840   0.93037   0.01267  Uiso   1.00
H25    H     0.64100   0.57820   0.96307   0.01267  Uiso   1.00
H26    H     0.55210   0.46430   0.94897   0.01267  Uiso   1.00
H27    H     0.27940   0.25920   0.94517   0.01267  Uiso   1.00
H28    H     0.23560   0.13990   0.90667   0.01267  Uiso   1.00
H29    H     0.29880   0.12450   0.82897   0.01267  Uiso   1.00
H30    H     0.55100   0.23990   0.74297   0.01267  Uiso   1.00
H31    H     0.61680   0.25230   0.66427   0.01267  Uiso   1.00
H32    H     0.61690   0.32410   0.58557   0.01267  Uiso   1.00
H33    H     0.47450   0.35030   0.66497   0.01267  Uiso   1.00
H34    H     0.24910   0.41830   0.80027   0.01267  Uiso   1.00
H35    H     0.16780   0.29920   0.77197   0.01267  Uiso   1.00
H36    H     0.21130   0.23430   0.72477   0.01267  Uiso   1.00
H37    H     0.33460   0.28140   0.72057   0.01267  Uiso   1.00
H38    H     0.61230   0.58590   0.71757   0.01267  Uiso   1.00
H39    H     0.72100   0.60290   0.75367   0.01267  Uiso   1.00
H40    H     0.71910   0.52440   0.82227   0.01267  Uiso   1.00
H41    H     0.46190   0.11180   0.95647   0.01267  Uiso   1.00
H42    H     0.42310   0.18310   0.99577   0.01267  Uiso   1.00
H43    H     0.46310   0.29730   0.95757   0.01267  Uiso   1.00
H44    H     0.57550   0.25830   0.84127   0.01267  Uiso   1.00
C1     C     0.45480   0.06100   0.79220   0.01267  Uiso   1.00
C2     C     0.40720   0.02860   0.74990   0.01267  Uiso   1.00
C3     C     0.39870   0.96680   0.72670   0.01267  Uiso   1.00
C4     C     0.44850   0.95030   0.73780   0.01267  Uiso   1.00
C5     C     0.50260   0.98800   0.77890   0.01267  Uiso   1.00
C6     C     0.60260   0.98010   0.76220   0.01267  Uiso   1.00
C7     C     0.64100   0.94260   0.78030   0.01267  Uiso   1.00
C8     C     0.69860   0.94870   0.75290   0.01267  Uiso   1.00
C9     C     0.72380   0.90320   0.77580   0.01267  Uiso   1.00
C10    C     0.68650   0.85670   0.82260   0.01267  Uiso   1.00
C11    C     0.63130   0.85790   0.84440   0.01267  Uiso   1.00
C12    C     0.58650   0.81290   0.89550   0.01267  Uiso   1.00
C13    C     0.49020   0.78760   0.95310   0.01267  Uiso   1.00
C14    C     0.44980   0.71660   0.95540   0.01267  Uiso   1.00
C15    C     0.41170   0.68550   0.00100   0.01267  Uiso   1.00
C16    C     0.41350   0.72820   0.04920   0.01267  Uiso   1.00
C17    C     0.49460   0.82600   0.00180   0.01267  Uiso   1.00
C18    C     0.73370   0.12330   0.88200   0.01267  Uiso   1.00
C19    C     0.78290   0.10160   0.90050   0.01267  Uiso   1.00
C20    C     0.75740   0.03710   0.92660   0.01267  Uiso   1.00
C21    C     0.68430   0.99260   0.93000   0.01267  Uiso   1.00
C22    C     0.63930   0.01580   0.90980   0.01267  Uiso   1.00
C23    C     0.52030   0.98880   0.92440   0.01267  Uiso   1.00
C24    C     0.44780   0.93540   0.90940   0.01267  Uiso   1.00
C25    C     0.38570   0.93780   0.92480   0.01267  Uiso   1.00
C26    C     0.32250   0.88510   0.90230   0.01267  Uiso   1.00
C27    C     0.32320   0.83700   0.86390   0.01267  Uiso   1.00
C28    C     0.37900   0.83420   0.85420   0.01267  Uiso   1.00
C29    C     0.39160   0.78780   0.81130   0.01267  Uiso   1.00
C30    C     0.52240   0.67970   0.72620   0.01267  Uiso   1.00
C31    C     0.54570   0.74500   0.70280   0.01267  Uiso   1.00
C32    C     0.52350   0.78970   0.72610   0.01267  Uiso   1.00
C33    C     0.48090   0.76690   0.77530   0.01267  Uiso   1.00
C34    C     0.45710   0.69970   0.79440   0.01267  Uiso   1.00
C35    C     0.54520   0.60620   0.87447   0.01267  Uiso   1.00
C36    C     0.59280   0.62140   0.91677   0.01267  Uiso   1.00
C37    C     0.60130   0.56810   0.93997   0.01267  Uiso   1.00
C38    C     0.55150   0.50180   0.92887   0.01267  Uiso   1.00
C39    C     0.49740   0.48540   0.88777   0.01267  Uiso   1.00
C40    C     0.39740   0.37750   0.90447   0.01267  Uiso   1.00
C41    C     0.35900   0.30160   0.88637   0.01267  Uiso   1.00
C42    C     0.30140   0.25010   0.91377   0.01267  Uiso   1.00
C43    C     0.27620   0.17940   0.89087   0.01267  Uiso   1.00
C44    C     0.31350   0.17020   0.84407   0.01267  Uiso   1.00
C45    C     0.36870   0.22660   0.82227   0.01267  Uiso   1.00
C46    C     0.41350   0.22640   0.77117   0.01267  Uiso   1.00
C47    C     0.50980   0.29740   0.71357   0.01267  Uiso   1.00
C48    C     0.55020   0.26680   0.71127   0.01267  Uiso   1.00
C49    C     0.58830   0.27380   0.66567   0.01267  Uiso   1.00
C50    C     0.58650   0.31470   0.61747   0.01267  Uiso   1.00
C51    C     0.50540   0.33140   0.66487   0.01267  Uiso   1.00
C52    C     0.26630   0.38960   0.78467   0.01267  Uiso   1.00
C53    C     0.21710   0.31870   0.76617   0.01267  Uiso   1.00
C54    C     0.24260   0.27970   0.74007   0.01267  Uiso   1.00
C55    C     0.31570   0.30830   0.73667   0.01267  Uiso   1.00
C56    C     0.36070   0.37650   0.75687   0.01267  Uiso   1.00
C57    C     0.47970   0.46850   0.74227   0.01267  Uiso   1.00
C58    C     0.55220   0.48760   0.75727   0.01267  Uiso   1.00
C59    C     0.61430   0.55210   0.74187   0.01267  Uiso   1.00
C60    C     0.67750   0.56260   0.76437   0.01267  Uiso   1.00
C61    C     0.67680   0.51380   0.80277   0.01267  Uiso   1.00
C62    C     0.62100   0.45520   0.81247   0.01267  Uiso   1.00
C63    C     0.60840   0.39620   0.85537   0.01267  Uiso   1.00
C64    C     0.47760   0.15730   0.94047   0.01267  Uiso   1.00
C65    C     0.45430   0.19930   0.96387   0.01267  Uiso   1.00
C66    C     0.47650   0.26620   0.94057   0.01267  Uiso   1.00
C67    C     0.51910   0.28600   0.89137   0.01267  Uiso   1.00
C68    C     0.54290   0.24260   0.87227   0.01267  Uiso   1.00
N1     N     0.50320   0.04260   0.80420   0.01267  Uiso   1.00
N2     N     0.54530   0.96200   0.79410   0.01267  Uiso   1.00
N3     N     0.60810   0.89800   0.82260   0.01267  Uiso   1.00
N4     N     0.53550   0.82300   0.90470   0.01267  Uiso   1.00
N5     N     0.45750   0.79570   0.04780   0.01267  Uiso   1.00
N6     N     0.66320   0.07880   0.88690   0.01267  Uiso   1.00
N7     N     0.56630   0.96790   0.90800   0.01267  Uiso   1.00
N8     N     0.44220   0.88290   0.87720   0.01267  Uiso   1.00
N9     N     0.45990   0.81090   0.80400   0.01267  Uiso   1.00
N10    N     0.47750   0.65600   0.77160   0.01267  Uiso   1.00
N11    N     0.49680   0.53940   0.86247   0.01267  Uiso   1.00
N12    N     0.45470   0.41670   0.87257   0.01267  Uiso   1.00
N13    N     0.39190   0.28990   0.84407   0.01267  Uiso   1.00
N14    N     0.46450   0.28750   0.76197   0.01267  Uiso   1.00
N15    N     0.54250   0.33820   0.61887   0.01267  Uiso   1.00
N16    N     0.33680   0.41560   0.77977   0.01267  Uiso   1.00
N17    N     0.43370   0.40160   0.75867   0.01267  Uiso   1.00
N18    N     0.55780   0.44070   0.78947   0.01267  Uiso   1.00
N19    N     0.54010   0.35100   0.86267   0.01267  Uiso   1.00
N20    N     0.52250   0.17850   0.89507   0.01267  Uiso   1.00
Cl1    Cl    0.66453   0.21583   0.79571   0.01267  Uiso   1.00
Cl2    Cl    0.33547   0.55130   0.87096   0.01267  Uiso   1.00
O1     O     0.62800   0.02510   0.72260   0.01267  Uiso   1.00
O2     O     0.60350   0.77210   0.92020   0.01267  Uiso   1.00
O3     O     0.53380   0.04610   0.94780   0.01267  Uiso   1.00
O4     O     0.34090   0.73680   0.78820   0.01267  Uiso   1.00
O5     O     0.37200   0.39710   0.94407   0.01267  Uiso   1.00
O6     O     0.39650   0.16860   0.74647   0.01267  Uiso   1.00
O7     O     0.46620   0.51230   0.71887   0.01267  Uiso   1.00
O8     O     0.65910   0.39590   0.87847   0.01267  Uiso   1.00
Cd3    Cd    0.53599   0.40648   0.53799   0.01267  Uiso   1.00
Cd4    Cd    0.12951   0.59352   0.46201   0.01267  Uiso   1.00
Co3    Co    0.36371   0.47385   0.51955   0.01267  Uiso   1.00
Co4    Co    0.88986   0.52615   0.48045   0.01267  Uiso   1.00
H45    H     0.64350   0.54620   0.48047   0.01267  Uiso   1.00
H46    H     0.66840   0.62030   0.40297   0.01267  Uiso   1.00
H47    H     0.57820   0.64100   0.37027   0.01267  Uiso   1.00
H48    H     0.46430   0.55210   0.38437   0.01267  Uiso   1.00
H49    H     0.25920   0.27940   0.38817   0.01267  Uiso   1.00
H50    H     0.13990   0.23560   0.42667   0.01267  Uiso   1.00
H51    H     0.12450   0.29880   0.50437   0.01267  Uiso   1.00
H52    H     0.23990   0.55100   0.59037   0.01267  Uiso   1.00
H53    H     0.25230   0.61680   0.66907   0.01267  Uiso   1.00
H54    H     0.32410   0.61690   0.74777   0.01267  Uiso   1.00
H55    H     0.35030   0.47450   0.66837   0.01267  Uiso   1.00
H56    H     0.41830   0.24910   0.53307   0.01267  Uiso   1.00
H57    H     0.29920   0.16780   0.56137   0.01267  Uiso   1.00
H58    H     0.23430   0.21130   0.60857   0.01267  Uiso   1.00
H59    H     0.28140   0.33460   0.61277   0.01267  Uiso   1.00
H60    H     0.58590   0.61230   0.61577   0.01267  Uiso   1.00
H61    H     0.60290   0.72100   0.57967   0.01267  Uiso   1.00
H62    H     0.52440   0.71910   0.51107   0.01267  Uiso   1.00
H63    H     0.11180   0.46190   0.37687   0.01267  Uiso   1.00
H64    H     0.18310   0.42310   0.33757   0.01267  Uiso   1.00
H65    H     0.29730   0.46310   0.37577   0.01267  Uiso   1.00
H66    H     0.25830   0.57550   0.49207   0.01267  Uiso   1.00
H67    H     0.09730   0.45380   0.51953   0.01267  Uiso   1.00
H68    H     0.04810   0.37970   0.59703   0.01267  Uiso   1.00
H69    H     0.93720   0.35900   0.62973   0.01267  Uiso   1.00
H70    H     0.91220   0.44790   0.61563   0.01267  Uiso   1.00
H71    H     0.97980   0.72060   0.61183   0.01267  Uiso   1.00
H72    H     0.90430   0.76440   0.57333   0.01267  Uiso   1.00
H73    H     0.82570   0.70120   0.49563   0.01267  Uiso   1.00
H74    H     0.68890   0.44900   0.40963   0.01267  Uiso   1.00
H75    H     0.63550   0.38320   0.33093   0.01267  Uiso   1.00
H76    H     0.70720   0.38310   0.25223   0.01267  Uiso   1.00
H77    H     0.87580   0.52550   0.33163   0.01267  Uiso   1.00
H78    H     0.16920   0.75090   0.46693   0.01267  Uiso   1.00
H79    H     0.13140   0.83220   0.43863   0.01267  Uiso   1.00
H80    H     0.02300   0.78870   0.39143   0.01267  Uiso   1.00
H81    H     0.94680   0.66540   0.38723   0.01267  Uiso   1.00
H82    H     0.97360   0.38770   0.38423   0.01267  Uiso   1.00
H83    H     0.88190   0.27900   0.42033   0.01267  Uiso   1.00
H84    H     0.80530   0.28090   0.48893   0.01267  Uiso   1.00
H85    H     0.64990   0.53810   0.62313   0.01267  Uiso   1.00
H86    H     0.76000   0.57690   0.66243   0.01267  Uiso   1.00
H87    H     0.83420   0.53690   0.62423   0.01267  Uiso   1.00
H88    H     0.68280   0.42450   0.50793   0.01267  Uiso   1.00
C69    C     0.60620   0.54520   0.45887   0.01267  Uiso   1.00
C70    C     0.62140   0.59280   0.41657   0.01267  Uiso   1.00
C71    C     0.56810   0.60130   0.39337   0.01267  Uiso   1.00
C72    C     0.50180   0.55150   0.40447   0.01267  Uiso   1.00
C73    C     0.48540   0.49740   0.44557   0.01267  Uiso   1.00
C74    C     0.37750   0.39740   0.42887   0.01267  Uiso   1.00
C75    C     0.30160   0.35900   0.44697   0.01267  Uiso   1.00
C76    C     0.25010   0.30140   0.41957   0.01267  Uiso   1.00
C77    C     0.17940   0.27620   0.44247   0.01267  Uiso   1.00
C78    C     0.17020   0.31350   0.48927   0.01267  Uiso   1.00
C79    C     0.22660   0.36870   0.51107   0.01267  Uiso   1.00
C80    C     0.22640   0.41350   0.56217   0.01267  Uiso   1.00
C81    C     0.29740   0.50980   0.61977   0.01267  Uiso   1.00
C82    C     0.26680   0.55020   0.62207   0.01267  Uiso   1.00
C83    C     0.27380   0.58830   0.66767   0.01267  Uiso   1.00
C84    C     0.31470   0.58650   0.71587   0.01267  Uiso   1.00
C85    C     0.33140   0.50540   0.66847   0.01267  Uiso   1.00
C86    C     0.38960   0.26630   0.54867   0.01267  Uiso   1.00
C87    C     0.31870   0.21710   0.56717   0.01267  Uiso   1.00
C88    C     0.27970   0.24260   0.59327   0.01267  Uiso   1.00
C89    C     0.30830   0.31570   0.59667   0.01267  Uiso   1.00
C90    C     0.37650   0.36070   0.57647   0.01267  Uiso   1.00
C91    C     0.46850   0.47970   0.59107   0.01267  Uiso   1.00
C92    C     0.48760   0.55220   0.57607   0.01267  Uiso   1.00
C93    C     0.55210   0.61430   0.59147   0.01267  Uiso   1.00
C94    C     0.56260   0.67750   0.56897   0.01267  Uiso   1.00
C95    C     0.51380   0.67680   0.53057   0.01267  Uiso   1.00
C96    C     0.45520   0.62100   0.52087   0.01267  Uiso   1.00
C97    C     0.39620   0.60840   0.47797   0.01267  Uiso   1.00
C98    C     0.15730   0.47760   0.39287   0.01267  Uiso   1.00
C99    C     0.19930   0.45430   0.36947   0.01267  Uiso   1.00
C100   C     0.26620   0.47650   0.39277   0.01267  Uiso   1.00
C101   C     0.28600   0.51910   0.44197   0.01267  Uiso   1.00
C102   C     0.24260   0.54290   0.46107   0.01267  Uiso   1.00
C103   C     0.06100   0.45480   0.54113   0.01267  Uiso   1.00
C104   C     0.02860   0.40720   0.58343   0.01267  Uiso   1.00
C105   C     0.96680   0.39870   0.60663   0.01267  Uiso   1.00
C106   C     0.95030   0.44850   0.59553   0.01267  Uiso   1.00
C107   C     0.98800   0.50260   0.55443   0.01267  Uiso   1.00
C108   C     0.98010   0.60260   0.57113   0.01267  Uiso   1.00
C109   C     0.94260   0.64100   0.55303   0.01267  Uiso   1.00
C110   C     0.94870   0.69860   0.58043   0.01267  Uiso   1.00
C111   C     0.90320   0.72380   0.55753   0.01267  Uiso   1.00
C112   C     0.85670   0.68650   0.51073   0.01267  Uiso   1.00
C113   C     0.85790   0.63130   0.48893   0.01267  Uiso   1.00
C114   C     0.81290   0.58650   0.43783   0.01267  Uiso   1.00
C115   C     0.78760   0.49020   0.38023   0.01267  Uiso   1.00
C116   C     0.71660   0.44980   0.37793   0.01267  Uiso   1.00
C117   C     0.68550   0.41170   0.33233   0.01267  Uiso   1.00
C118   C     0.72820   0.41350   0.28413   0.01267  Uiso   1.00
C119   C     0.82600   0.49460   0.33153   0.01267  Uiso   1.00
C120   C     0.12330   0.73370   0.45133   0.01267  Uiso   1.00
C121   C     0.10160   0.78290   0.43283   0.01267  Uiso   1.00
C122   C     0.03710   0.75740   0.40673   0.01267  Uiso   1.00
C123   C     0.99260   0.68430   0.40333   0.01267  Uiso   1.00
C124   C     0.01580   0.63930   0.42353   0.01267  Uiso   1.00
C125   C     0.98880   0.52030   0.40893   0.01267  Uiso   1.00
C126   C     0.93540   0.44780   0.42393   0.01267  Uiso   1.00
C127   C     0.93780   0.38570   0.40853   0.01267  Uiso   1.00
C128   C     0.88510   0.32250   0.43103   0.01267  Uiso   1.00
C129   C     0.83700   0.32320   0.46943   0.01267  Uiso   1.00
C130   C     0.83420   0.37900   0.47913   0.01267  Uiso   1.00
C131   C     0.78780   0.39160   0.52203   0.01267  Uiso   1.00
C132   C     0.67970   0.52240   0.60713   0.01267  Uiso   1.00
C133   C     0.74500   0.54570   0.63053   0.01267  Uiso   1.00
C134   C     0.78970   0.52350   0.60723   0.01267  Uiso   1.00
C135   C     0.76690   0.48090   0.55803   0.01267  Uiso   1.00
C136   C     0.69970   0.45710   0.53893   0.01267  Uiso   1.00
N21    N     0.53940   0.49680   0.47087   0.01267  Uiso   1.00
N22    N     0.41670   0.45470   0.46077   0.01267  Uiso   1.00
N23    N     0.28990   0.39190   0.48927   0.01267  Uiso   1.00
N24    N     0.28750   0.46450   0.57137   0.01267  Uiso   1.00
N25    N     0.33820   0.54250   0.71447   0.01267  Uiso   1.00
N26    N     0.41560   0.33680   0.55357   0.01267  Uiso   1.00
N27    N     0.40160   0.43370   0.57467   0.01267  Uiso   1.00
N28    N     0.44070   0.55780   0.54387   0.01267  Uiso   1.00
N29    N     0.35100   0.54010   0.47067   0.01267  Uiso   1.00
N30    N     0.17850   0.52250   0.43827   0.01267  Uiso   1.00
N31    N     0.04260   0.50320   0.52913   0.01267  Uiso   1.00
N32    N     0.96200   0.54530   0.53923   0.01267  Uiso   1.00
N33    N     0.89800   0.60810   0.51073   0.01267  Uiso   1.00
N34    N     0.82300   0.53550   0.42863   0.01267  Uiso   1.00
N35    N     0.79570   0.45750   0.28553   0.01267  Uiso   1.00
N36    N     0.07880   0.66320   0.44643   0.01267  Uiso   1.00
N37    N     0.96790   0.56630   0.42533   0.01267  Uiso   1.00
N38    N     0.88290   0.44220   0.45613   0.01267  Uiso   1.00
N39    N     0.81090   0.45990   0.52933   0.01267  Uiso   1.00
N40    N     0.65600   0.47750   0.56173   0.01267  Uiso   1.00
Cl3    Cl    0.55130   0.33547   0.46238   0.01267  Uiso   1.00
Cl4    Cl    0.21583   0.66453   0.53762   0.01267  Uiso   1.00
O9     O     0.39710   0.37200   0.38927   0.01267  Uiso   1.00
O10    O     0.16860   0.39650   0.58687   0.01267  Uiso   1.00
O11    O     0.51230   0.46620   0.61447   0.01267  Uiso   1.00
O12    O     0.39590   0.65910   0.45487   0.01267  Uiso   1.00
O13    O     0.02510   0.62800   0.61073   0.01267  Uiso   1.00
O14    O     0.77210   0.60350   0.41313   0.01267  Uiso   1.00
O15    O     0.04610   0.53380   0.38553   0.01267  Uiso   1.00
O16    O     0.73680   0.34090   0.54513   0.01267  Uiso   1.00
Cd5    Cd    0.87049   0.46401   0.20465   0.01267  Uiso   1.00
Cd6    Cd    0.46401   0.87049   0.12868   0.01267  Uiso   1.00
Co5    Co    0.11014   0.63629   0.18621   0.01267  Uiso   1.00
Co6    Co    0.63629   0.11014   0.14712   0.01267  Uiso   1.00
H89    H     0.90270   0.35650   0.14713   0.01267  Uiso   1.00
H90    H     0.95190   0.33160   0.06963   0.01267  Uiso   1.00
H91    H     0.06280   0.42180   0.03693   0.01267  Uiso   1.00
H92    H     0.08780   0.53570   0.05103   0.01267  Uiso   1.00
H93    H     0.02020   0.74080   0.05483   0.01267  Uiso   1.00
H94    H     0.09570   0.86010   0.09333   0.01267  Uiso   1.00
H95    H     0.17430   0.87550   0.17103   0.01267  Uiso   1.00
H96    H     0.31110   0.76010   0.25703   0.01267  Uiso   1.00
H97    H     0.36450   0.74770   0.33573   0.01267  Uiso   1.00
H98    H     0.29280   0.67590   0.41443   0.01267  Uiso   1.00
H99    H     0.12420   0.64970   0.33503   0.01267  Uiso   1.00
H100   H     0.83080   0.58170   0.19973   0.01267  Uiso   1.00
H101   H     0.86860   0.70080   0.22803   0.01267  Uiso   1.00
H102   H     0.97700   0.76570   0.27523   0.01267  Uiso   1.00
H103   H     0.05320   0.71860   0.27943   0.01267  Uiso   1.00
H104   H     0.02640   0.41410   0.28243   0.01267  Uiso   1.00
H105   H     0.11810   0.39710   0.24633   0.01267  Uiso   1.00
H106   H     0.19470   0.47560   0.17773   0.01267  Uiso   1.00
H107   H     0.35010   0.88820   0.04353   0.01267  Uiso   1.00
H108   H     0.24000   0.81690   0.00423   0.01267  Uiso   1.00
H109   H     0.16580   0.70270   0.04243   0.01267  Uiso   1.00
H110   H     0.31720   0.74170   0.15873   0.01267  Uiso   1.00
H111   H     0.35650   0.90270   0.18620   0.01267  Uiso   1.00
H112   H     0.33160   0.95190   0.26370   0.01267  Uiso   1.00
H113   H     0.42180   0.06280   0.29640   0.01267  Uiso   1.00
H114   H     0.53570   0.08780   0.28230   0.01267  Uiso   1.00
H115   H     0.74080   0.02020   0.27850   0.01267  Uiso   1.00
H116   H     0.86010   0.09570   0.24000   0.01267  Uiso   1.00
H117   H     0.87550   0.17430   0.16230   0.01267  Uiso   1.00
H118   H     0.76010   0.31110   0.07630   0.01267  Uiso   1.00
H119   H     0.74770   0.36450   0.99760   0.01267  Uiso   1.00
H120   H     0.67590   0.29280   0.91890   0.01267  Uiso   1.00
H121   H     0.64970   0.12420   0.99830   0.01267  Uiso   1.00
H122   H     0.58170   0.83080   0.13360   0.01267  Uiso   1.00
H123   H     0.70080   0.86860   0.10530   0.01267  Uiso   1.00
H124   H     0.76570   0.97700   0.05810   0.01267  Uiso   1.00
H125   H     0.71860   0.05320   0.05390   0.01267  Uiso   1.00
H126   H     0.41410   0.02640   0.05090   0.01267  Uiso   1.00
H127   H     0.39710   0.11810   0.08700   0.01267  Uiso   1.00
H128   H     0.47560   0.19470   0.15560   0.01267  Uiso   1.00
H129   H     0.88820   0.35010   0.28980   0.01267  Uiso   1.00
H130   H     0.81690   0.24000   0.32910   0.01267  Uiso   1.00
H131   H     0.70270   0.16580   0.29090   0.01267  Uiso   1.00
H132   H     0.74170   0.31720   0.17460   0.01267  Uiso   1.00
C137   C     0.93900   0.39380   0.12553   0.01267  Uiso   1.00
C138   C     0.97140   0.37860   0.08323   0.01267  Uiso   1.00
C139   C     0.03320   0.43190   0.06003   0.01267  Uiso   1.00
C140   C     0.04970   0.49820   0.07113   0.01267  Uiso   1.00
C141   C     0.01200   0.51460   0.11223   0.01267  Uiso   1.00
C142   C     0.01990   0.62250   0.09553   0.01267  Uiso   1.00
C143   C     0.05740   0.69840   0.11363   0.01267  Uiso   1.00
C144   C     0.05130   0.74990   0.08623   0.01267  Uiso   1.00
C145   C     0.09680   0.82060   0.10913   0.01267  Uiso   1.00
C146   C     0.14330   0.82980   0.15593   0.01267  Uiso   1.00
C147   C     0.14210   0.77340   0.17773   0.01267  Uiso   1.00
C148   C     0.18710   0.77360   0.22883   0.01267  Uiso   1.00
C149   C     0.21240   0.70260   0.28643   0.01267  Uiso   1.00
C150   C     0.28340   0.73320   0.28873   0.01267  Uiso   1.00
C151   C     0.31450   0.72620   0.33433   0.01267  Uiso   1.00
C152   C     0.27180   0.68530   0.38253   0.01267  Uiso   1.00
C153   C     0.17400   0.66860   0.33513   0.01267  Uiso   1.00
C154   C     0.87670   0.61040   0.21533   0.01267  Uiso   1.00
C155   C     0.89840   0.68130   0.23383   0.01267  Uiso   1.00
C156   C     0.96290   0.72030   0.25993   0.01267  Uiso   1.00
C157   C     0.00740   0.69170   0.26333   0.01267  Uiso   1.00
C158   C     0.98420   0.62350   0.24313   0.01267  Uiso   1.00
C159   C     0.01120   0.53150   0.25773   0.01267  Uiso   1.00
C160   C     0.06460   0.51240   0.24273   0.01267  Uiso   1.00
C161   C     0.06220   0.44790   0.25813   0.01267  Uiso   1.00
C162   C     0.11490   0.43740   0.23563   0.01267  Uiso   1.00
C163   C     0.16300   0.48620   0.19723   0.01267  Uiso   1.00
C164   C     0.16580   0.54480   0.18753   0.01267  Uiso   1.00
C165   C     0.21220   0.60380   0.14463   0.01267  Uiso   1.00
C166   C     0.32030   0.84270   0.05953   0.01267  Uiso   1.00
C167   C     0.25500   0.80070   0.03613   0.01267  Uiso   1.00
C168   C     0.21030   0.73380   0.05943   0.01267  Uiso   1.00
C169   C     0.23310   0.71400   0.10863   0.01267  Uiso   1.00
C170   C     0.30030   0.75740   0.12773   0.01267  Uiso   1.00
C171   C     0.39380   0.93900   0.20780   0.01267  Uiso   1.00
C172   C     0.37860   0.97140   0.25010   0.01267  Uiso   1.00
C173   C     0.43190   0.03320   0.27330   0.01267  Uiso   1.00
C174   C     0.49820   0.04970   0.26220   0.01267  Uiso   1.00
C175   C     0.51460   0.01200   0.22110   0.01267  Uiso   1.00
C176   C     0.62250   0.01990   0.23780   0.01267  Uiso   1.00
C177   C     0.69840   0.05740   0.21970   0.01267  Uiso   1.00
C178   C     0.74990   0.05130   0.24710   0.01267  Uiso   1.00
C179   C     0.82060   0.09680   0.22420   0.01267  Uiso   1.00
C180   C     0.82980   0.14330   0.17740   0.01267  Uiso   1.00
C181   C     0.77340   0.14210   0.15560   0.01267  Uiso   1.00
C182   C     0.77360   0.18710   0.10450   0.01267  Uiso   1.00
C183   C     0.70260   0.21240   0.04690   0.01267  Uiso   1.00
C184   C     0.73320   0.28340   0.04460   0.01267  Uiso   1.00
C185   C     0.72620   0.31450   0.99900   0.01267  Uiso   1.00
C186   C     0.68530   0.27180   0.95080   0.01267  Uiso   1.00
C187   C     0.66860   0.17400   0.99820   0.01267  Uiso   1.00
C188   C     0.61040   0.87670   0.11800   0.01267  Uiso   1.00
C189   C     0.68130   0.89840   0.09950   0.01267  Uiso   1.00
C190   C     0.72030   0.96290   0.07340   0.01267  Uiso   1.00
C191   C     0.69170   0.00740   0.07000   0.01267  Uiso   1.00
C192   C     0.62350   0.98420   0.09020   0.01267  Uiso   1.00
C193   C     0.53150   0.01120   0.07560   0.01267  Uiso   1.00
C194   C     0.51240   0.06460   0.09060   0.01267  Uiso   1.00
C195   C     0.44790   0.06220   0.07520   0.01267  Uiso   1.00
C196   C     0.43740   0.11490   0.09770   0.01267  Uiso   1.00
C197   C     0.48620   0.16300   0.13610   0.01267  Uiso   1.00
C198   C     0.54480   0.16580   0.14580   0.01267  Uiso   1.00
C199   C     0.60380   0.21220   0.18870   0.01267  Uiso   1.00
C200   C     0.84270   0.32030   0.27380   0.01267  Uiso   1.00
C201   C     0.80070   0.25500   0.29720   0.01267  Uiso   1.00
C202   C     0.73380   0.21030   0.27390   0.01267  Uiso   1.00
C203   C     0.71400   0.23310   0.22470   0.01267  Uiso   1.00
C204   C     0.75740   0.30030   0.20560   0.01267  Uiso   1.00
N41    N     0.95740   0.46060   0.13753   0.01267  Uiso   1.00
N42    N     0.03800   0.58330   0.12743   0.01267  Uiso   1.00
N43    N     0.10200   0.71010   0.15593   0.01267  Uiso   1.00
N44    N     0.17700   0.71250   0.23803   0.01267  Uiso   1.00
N45    N     0.20430   0.66180   0.38113   0.01267  Uiso   1.00
N46    N     0.92120   0.58440   0.22023   0.01267  Uiso   1.00
N47    N     0.03210   0.59840   0.24133   0.01267  Uiso   1.00
N48    N     0.11710   0.55930   0.21053   0.01267  Uiso   1.00
N49    N     0.18910   0.64900   0.13733   0.01267  Uiso   1.00
N50    N     0.34400   0.82150   0.10493   0.01267  Uiso   1.00
N51    N     0.46060   0.95740   0.19580   0.01267  Uiso   1.00
N52    N     0.58330   0.03800   0.20590   0.01267  Uiso   1.00
N53    N     0.71010   0.10200   0.17740   0.01267  Uiso   1.00
N54    N     0.71250   0.17700   0.09530   0.01267  Uiso   1.00
N55    N     0.66180   0.20430   0.95220   0.01267  Uiso   1.00
N56    N     0.58440   0.92120   0.11310   0.01267  Uiso   1.00
N57    N     0.59840   0.03210   0.09200   0.01267  Uiso   1.00
N58    N     0.55930   0.11710   0.12280   0.01267  Uiso   1.00
N59    N     0.64900   0.18910   0.19600   0.01267  Uiso   1.00
N60    N     0.82150   0.34400   0.22840   0.01267  Uiso   1.00
Cl5    Cl    0.78417   0.44870   0.12904   0.01267  Uiso   1.00
Cl6    Cl    0.44870   0.78417   0.20429   0.01267  Uiso   1.00
O17    O     0.97490   0.60290   0.05593   0.01267  Uiso   1.00
O18    O     0.22790   0.83140   0.25353   0.01267  Uiso   1.00
O19    O     0.95390   0.48770   0.28113   0.01267  Uiso   1.00
O20    O     0.26320   0.60410   0.12153   0.01267  Uiso   1.00
O21    O     0.60290   0.97490   0.27740   0.01267  Uiso   1.00
O22    O     0.83140   0.22790   0.07980   0.01267  Uiso   1.00
O23    O     0.48770   0.95390   0.05220   0.01267  Uiso   1.00
O24    O     0.60410   0.26320   0.21180   0.01267  Uiso   1.00
