data_HEKTAU_clean
_audit_creation_date              2014-07-02
_audit_creation_method            'Materials Studio'
_symmetry_space_group_name_H-M    'P1'
_symmetry_Int_Tables_number       1
_symmetry_cell_setting            triclinic
loop_
_symmetry_equiv_pos_as_xyz
  x,y,z
_cell_length_a                    11.3920
_cell_length_b                    15.5684
_cell_length_c                    17.6685
_cell_angle_alpha                 82.4152
_cell_angle_beta                  71.1930
_cell_angle_gamma                 68.5389
loop_
_atom_site_label
_atom_site_type_symbol
_atom_site_fract_x
_atom_site_fract_y
_atom_site_fract_z
_atom_site_U_iso_or_equiv
_atom_site_adp_type
_atom_site_occupancy
Cd1    Cd    0.15041   0.08587   0.54435   0.01267  Uiso   1.00
Cd2    Cd    0.21937   0.58587   0.04435   0.01267  Uiso   1.00
H1     H     0.50970   0.21370   0.37870   0.01267  Uiso   1.00
H2     H     0.59450   0.33440   0.33800   0.01267  Uiso   1.00
H3     H     0.27630   0.50130   0.49870   0.01267  Uiso   1.00
H4     H     0.19150   0.38080   0.53240   0.01267  Uiso   1.00
H5     H     0.68330   0.43470   0.31810   0.01267  Uiso   1.00
H6     H     0.84460   0.44510   0.20290   0.01267  Uiso   1.00
H7     H     0.04330   0.44690   0.11310   0.01267  Uiso   1.00
H8     H     0.02110   0.66560   0.21280   0.01267  Uiso   1.00
H9     H     0.81940   0.67220   0.30480   0.01267  Uiso   1.00
H10    H     0.34070   0.60660   0.45320   0.01267  Uiso   1.00
H11    H     0.55400   0.81110   0.38970   0.01267  Uiso   1.00
H12    H     0.43970   0.95350   0.44870   0.01267  Uiso   1.00
H13    H     0.12070   0.88890   0.54230   0.01267  Uiso   1.00
H14    H     0.22740   0.74290   0.48890   0.01267  Uiso   1.00
H15    H     0.89790   0.71370   0.87870   0.01267  Uiso   1.00
H16    H     0.73310   0.83440   0.83800   0.01267  Uiso   1.00
H17    H     0.72370   0.00130   0.99870   0.01267  Uiso   1.00
H18    H     0.89530   0.88080   0.03240   0.01267  Uiso   1.00
H19    H     0.56390   0.93470   0.81810   0.01267  Uiso   1.00
H20    H     0.50740   0.94510   0.70290   0.01267  Uiso   1.00
H21    H     0.39670   0.94690   0.61310   0.01267  Uiso   1.00
H22    H     0.10050   0.16560   0.71280   0.01267  Uiso   1.00
H23    H     0.20360   0.17220   0.80480   0.01267  Uiso   1.00
H24    H     0.59950   0.10660   0.95320   0.01267  Uiso   1.00
H25    H     0.24520   0.31110   0.88970   0.01267  Uiso   1.00
H26    H     0.15810   0.45350   0.94870   0.01267  Uiso   1.00
H27    H     0.44810   0.38890   0.04230   0.01267  Uiso   1.00
H28    H     0.54080   0.24290   0.98890   0.01267  Uiso   1.00
C1     C     0.28910   0.20780   0.48440   0.01267  Uiso   1.00
C2     C     0.34050   0.28720   0.45920   0.01267  Uiso   1.00
C3     C     0.46100   0.27280   0.40220   0.01267  Uiso   1.00
C4     C     0.51240   0.34490   0.37870   0.01267  Uiso   1.00
C5     C     0.44610   0.43030   0.41350   0.01267  Uiso   1.00
C6     C     0.32440   0.44370   0.47270   0.01267  Uiso   1.00
C7     C     0.27480   0.37090   0.49310   0.01267  Uiso   1.00
C8     C     0.50300   0.50670   0.39050   0.01267  Uiso   1.00
C9     C     0.62820   0.49410   0.33950   0.01267  Uiso   1.00
C10    C     0.67410   0.56810   0.31950   0.01267  Uiso   1.00
C11    C     0.80760   0.55880   0.26360   0.01267  Uiso   1.00
C12    C     0.87750   0.49220   0.20580   0.01267  Uiso   1.00
C13    C     0.99610   0.49400   0.15180   0.01267  Uiso   1.00
C14    C     0.98290   0.62160   0.20980   0.01267  Uiso   1.00
C15    C     0.86330   0.62530   0.26570   0.01267  Uiso   1.00
C16    C     0.42860   0.59460   0.41920   0.01267  Uiso   1.00
C17    C     0.47920   0.66560   0.39940   0.01267  Uiso   1.00
C18    C     0.40550   0.75960   0.43300   0.01267  Uiso   1.00
C19    C     0.46460   0.82490   0.42170   0.01267  Uiso   1.00
C20    C     0.39510   0.91050   0.45670   0.01267  Uiso   1.00
C21    C     0.21070   0.87250   0.51110   0.01267  Uiso   1.00
C22    C     0.27350   0.78510   0.47930   0.01267  Uiso   1.00
C23    C     0.01870   0.70780   0.98440   0.01267  Uiso   1.00
C24    C     0.91310   0.78720   0.95920   0.01267  Uiso   1.00
C25    C     0.86400   0.77280   0.90220   0.01267  Uiso   1.00
C26    C     0.76400   0.84490   0.87870   0.01267  Uiso   1.00
C27    C     0.71010   0.93030   0.91350   0.01267  Uiso   1.00
C28    C     0.75920   0.94370   0.97270   0.01267  Uiso   1.00
C29    C     0.86120   0.87090   0.99310   0.01267  Uiso   1.00
C30    C     0.59980   0.00670   0.89050   0.01267  Uiso   1.00
C31    C     0.53820   0.99410   0.83950   0.01267  Uiso   1.00
C32    C     0.43830   0.06810   0.81950   0.01267  Uiso   1.00
C33    C     0.37000   0.05880   0.76360   0.01267  Uiso   1.00
C34    C     0.42450   0.99220   0.70580   0.01267  Uiso   1.00
C35    C     0.35810   0.99400   0.65180   0.01267  Uiso   1.00
C36    C     0.18570   0.12160   0.70980   0.01267  Uiso   1.00
C37    C     0.24570   0.12530   0.76570   0.01267  Uiso   1.00
C38    C     0.55760   0.09460   0.91920   0.01267  Uiso   1.00
C39    C     0.45580   0.16560   0.89940   0.01267  Uiso   1.00
C40    C     0.40190   0.25960   0.93300   0.01267  Uiso   1.00
C41    C     0.28880   0.32490   0.92170   0.01267  Uiso   1.00
C42    C     0.23770   0.41050   0.95670   0.01267  Uiso   1.00
C43    C     0.40570   0.37250   0.01110   0.01267  Uiso   1.00
C44    C     0.46210   0.28510   0.97930   0.01267  Uiso   1.00
N1     N     0.60020   0.65300   0.34940   0.01267  Uiso   1.00
N2     N     0.04680   0.55870   0.15170   0.01267  Uiso   1.00
N3     N     0.27030   0.93550   0.50030   0.01267  Uiso   1.00
N4     N     0.39740   0.15300   0.84940   0.01267  Uiso   1.00
N5     N     0.24280   0.05870   0.65170   0.01267  Uiso   1.00
N6     N     0.29390   0.43550   0.00030   0.01267  Uiso   1.00
O1     O     0.35790   0.12830   0.46350   0.01267  Uiso   1.00
O2     O     0.16830   0.23000   0.52980   0.01267  Uiso   1.00
O3     O     0.05030   0.62830   0.96350   0.01267  Uiso   1.00
O4     O     0.07190   0.73000   0.02980   0.01267  Uiso   1.00
Cd3    Cd    0.78063   0.41413   0.95565   0.01267  Uiso   1.00
Cd4    Cd    0.84959   0.91413   0.45565   0.01267  Uiso   1.00
H29    H     0.10210   0.28630   0.12130   0.01267  Uiso   1.00
H30    H     0.26690   0.16560   0.16200   0.01267  Uiso   1.00
H31    H     0.27630   0.99870   0.00130   0.01267  Uiso   1.00
H32    H     0.10470   0.11920   0.96760   0.01267  Uiso   1.00
H33    H     0.43610   0.06530   0.18190   0.01267  Uiso   1.00
H34    H     0.49260   0.05490   0.29710   0.01267  Uiso   1.00
H35    H     0.60330   0.05310   0.38690   0.01267  Uiso   1.00
H36    H     0.89950   0.83440   0.28720   0.01267  Uiso   1.00
H37    H     0.79640   0.82780   0.19520   0.01267  Uiso   1.00
H38    H     0.40050   0.89340   0.04680   0.01267  Uiso   1.00
H39    H     0.75480   0.68890   0.11030   0.01267  Uiso   1.00
H40    H     0.84190   0.54650   0.05130   0.01267  Uiso   1.00
H41    H     0.55190   0.61110   0.95770   0.01267  Uiso   1.00
H42    H     0.45920   0.75710   0.01110   0.01267  Uiso   1.00
H43    H     0.49030   0.78630   0.62130   0.01267  Uiso   1.00
H44    H     0.40550   0.66560   0.66200   0.01267  Uiso   1.00
H45    H     0.72370   0.49870   0.50130   0.01267  Uiso   1.00
H46    H     0.80850   0.61920   0.46760   0.01267  Uiso   1.00
H47    H     0.31670   0.56530   0.68190   0.01267  Uiso   1.00
H48    H     0.15540   0.55490   0.79710   0.01267  Uiso   1.00
H49    H     0.95670   0.55310   0.88690   0.01267  Uiso   1.00
H50    H     0.97890   0.33440   0.78720   0.01267  Uiso   1.00
H51    H     0.18060   0.32780   0.69520   0.01267  Uiso   1.00
H52    H     0.65930   0.39340   0.54680   0.01267  Uiso   1.00
H53    H     0.44600   0.18890   0.61030   0.01267  Uiso   1.00
H54    H     0.56030   0.04650   0.55130   0.01267  Uiso   1.00
H55    H     0.87930   0.11110   0.45770   0.01267  Uiso   1.00
H56    H     0.77260   0.25710   0.51110   0.01267  Uiso   1.00
C45    C     0.98130   0.29220   0.01560   0.01267  Uiso   1.00
C46    C     0.08690   0.21280   0.04080   0.01267  Uiso   1.00
C47    C     0.13600   0.22720   0.09780   0.01267  Uiso   1.00
C48    C     0.23600   0.15510   0.12130   0.01267  Uiso   1.00
C49    C     0.28990   0.06970   0.08650   0.01267  Uiso   1.00
C50    C     0.24080   0.05630   0.02730   0.01267  Uiso   1.00
C51    C     0.13880   0.12910   0.00690   0.01267  Uiso   1.00
C52    C     0.40020   0.99330   0.10950   0.01267  Uiso   1.00
C53    C     0.46180   0.00590   0.16050   0.01267  Uiso   1.00
C54    C     0.56170   0.93190   0.18050   0.01267  Uiso   1.00
C55    C     0.63000   0.94120   0.23640   0.01267  Uiso   1.00
C56    C     0.57550   0.00780   0.29420   0.01267  Uiso   1.00
C57    C     0.64190   0.00600   0.34820   0.01267  Uiso   1.00
C58    C     0.81430   0.87840   0.29020   0.01267  Uiso   1.00
C59    C     0.75430   0.87470   0.23430   0.01267  Uiso   1.00
C60    C     0.44240   0.90540   0.08080   0.01267  Uiso   1.00
C61    C     0.54420   0.83440   0.10060   0.01267  Uiso   1.00
C62    C     0.59810   0.74040   0.06700   0.01267  Uiso   1.00
C63    C     0.71120   0.67510   0.07830   0.01267  Uiso   1.00
C64    C     0.76230   0.58950   0.04330   0.01267  Uiso   1.00
C65    C     0.59430   0.62750   0.98890   0.01267  Uiso   1.00
C66    C     0.53790   0.71490   0.02070   0.01267  Uiso   1.00
C67    C     0.71090   0.79220   0.51560   0.01267  Uiso   1.00
C68    C     0.65950   0.71280   0.54080   0.01267  Uiso   1.00
C69    C     0.53900   0.72720   0.59780   0.01267  Uiso   1.00
C70    C     0.48760   0.65510   0.62130   0.01267  Uiso   1.00
C71    C     0.55390   0.56970   0.58650   0.01267  Uiso   1.00
C72    C     0.67560   0.55630   0.52730   0.01267  Uiso   1.00
C73    C     0.72520   0.62910   0.50690   0.01267  Uiso   1.00
C74    C     0.49700   0.49330   0.60950   0.01267  Uiso   1.00
C75    C     0.37180   0.50590   0.66050   0.01267  Uiso   1.00
C76    C     0.32590   0.43190   0.68050   0.01267  Uiso   1.00
C77    C     0.19240   0.44120   0.73640   0.01267  Uiso   1.00
C78    C     0.12250   0.50780   0.79420   0.01267  Uiso   1.00
C79    C     0.00390   0.50600   0.84820   0.01267  Uiso   1.00
C80    C     0.01710   0.37840   0.79020   0.01267  Uiso   1.00
C81    C     0.13670   0.37470   0.73430   0.01267  Uiso   1.00
C82    C     0.57140   0.40540   0.58080   0.01267  Uiso   1.00
C83    C     0.52080   0.33440   0.60060   0.01267  Uiso   1.00
C84    C     0.59450   0.24040   0.56700   0.01267  Uiso   1.00
C85    C     0.53540   0.17510   0.57830   0.01267  Uiso   1.00
C86    C     0.60490   0.08950   0.54330   0.01267  Uiso   1.00
C87    C     0.78930   0.12750   0.48890   0.01267  Uiso   1.00
C88    C     0.72650   0.21490   0.52070   0.01267  Uiso   1.00
N7     N     0.60260   0.84700   0.15060   0.01267  Uiso   1.00
N8     N     0.75720   0.94130   0.34830   0.01267  Uiso   1.00
N9     N     0.70610   0.56450   0.99970   0.01267  Uiso   1.00
N10    N     0.39980   0.34700   0.65060   0.01267  Uiso   1.00
N11    N     0.95320   0.44130   0.84830   0.01267  Uiso   1.00
N12    N     0.72970   0.06450   0.49970   0.01267  Uiso   1.00
O5     O     0.94970   0.37170   0.03650   0.01267  Uiso   1.00
O6     O     0.92810   0.27000   0.97020   0.01267  Uiso   1.00
O7     O     0.64210   0.87170   0.53650   0.01267  Uiso   1.00
O8     O     0.83170   0.77000   0.47020   0.01267  Uiso   1.00
