data_image0
_cell_length_a       20.0407
_cell_length_b       10.0674
_cell_length_c       18.9273
_cell_angle_alpha    90
_cell_angle_beta     101.3
_cell_angle_gamma    90

_symmetry_space_group_name_H-M    "P 1"
_symmetry_int_tables_number       1

loop_
  _symmetry_equiv_pos_as_xyz
  'x, y, z'

loop_
  _atom_site_label
  _atom_site_occupancy
  _atom_site_fract_x
  _atom_site_fract_y
  _atom_site_fract_z
  _atom_site_thermal_displace_type
  _atom_site_B_iso_or_equiv
  _atom_site_type_symbol
  Cd1      1.0000 0.90519  0.94938  0.97380  Biso   1.000  Cd
  O1       1.0000 0.79174  0.89030  0.92129  Biso   1.000  O
  O2       1.0000 0.85008  0.00020  0.85739  Biso   1.000  O
  O3       1.0000 0.00426  0.91850  0.93373  Biso   1.000  O
  O4       1.0000 0.89749  0.15930  0.00833  Biso   1.000  O
  O5       1.0000 0.93494  0.77600  0.04125  Biso   1.000  O
  C1       1.0000 0.79475  0.95160  0.86492  Biso   1.000  C
  O6       1.0000 0.65307  0.86190  0.99228  Biso   1.000  O
  C2       1.0000 0.73356  0.96880  0.80664  Biso   1.000  C
  C3       1.0000 0.73434  0.05720  0.75098  Biso   1.000  C
  C4       1.0000 0.67450  0.89990  0.80790  Biso   1.000  C
  H1       1.0000 0.77390  0.10420  0.74920  Biso   1.000  H
  C5       1.0000 0.67681  0.07710  0.69748  Biso   1.000  C
  C6       1.0000 0.61710  0.91940  0.75520  Biso   1.000  C
  H2       1.0000 0.67320  0.83940  0.84480  Biso   1.000  H
  H3       1.0000 0.67850  0.13600  0.66010  Biso   1.000  H
  C7       1.0000 0.61704  0.00960  0.69962  Biso   1.000  C
  H4       1.0000 0.57780  0.87140  0.75690  Biso   1.000  H
  C8       1.0000 0.55406  0.03270  0.64522  Biso   1.000  C
  C9       1.0000 0.53470  0.16160  0.62281  Biso   1.000  C
  C10      1.0000 0.51208  0.92790  0.61614  Biso   1.000  C
  H5       1.0000 0.56270  0.23260  0.64060  Biso   1.000  H
  C11      1.0000 0.47410  0.18530  0.57420  Biso   1.000  C
  C12      1.0000 0.45126  0.95150  0.56869  Biso   1.000  C
  H6       1.0000 0.52510  0.84110  0.62880  Biso   1.000  H
  C13      1.0000 0.43208  0.08020  0.54811  Biso   1.000  C
  C14      1.0000 0.45459  0.32350  0.54794  Biso   1.000  C
  C15      1.0000 0.40690  0.83680  0.53648  Biso   1.000  C
  H7       1.0000 0.39090  0.09580  0.51680  Biso   1.000  H
  Cd2      1.0000 0.40519  0.44938  0.97380  Biso   1.000  Cd
  O7       1.0000 0.29174  0.39030  0.92129  Biso   1.000  O
  O8       1.0000 0.35008  0.50020  0.85739  Biso   1.000  O
  O9       1.0000 0.50426  0.41850  0.93373  Biso   1.000  O
  O10      1.0000 0.39749  0.65930  0.00833  Biso   1.000  O
  O11      1.0000 0.43494  0.27600  0.04125  Biso   1.000  O
  C16      1.0000 0.29475  0.45160  0.86492  Biso   1.000  C
  O12      1.0000 0.15307  0.36190  0.99228  Biso   1.000  O
  C17      1.0000 0.23356  0.46880  0.80664  Biso   1.000  C
  C18      1.0000 0.23434  0.55720  0.75098  Biso   1.000  C
  C19      1.0000 0.17450  0.39990  0.80790  Biso   1.000  C
  H8       1.0000 0.27390  0.60420  0.74920  Biso   1.000  H
  C20      1.0000 0.17681  0.57710  0.69748  Biso   1.000  C
  C21      1.0000 0.11710  0.41940  0.75520  Biso   1.000  C
  H9       1.0000 0.17320  0.33940  0.84480  Biso   1.000  H
  H10      1.0000 0.17850  0.63600  0.66010  Biso   1.000  H
  C22      1.0000 0.11704  0.50960  0.69962  Biso   1.000  C
  H11      1.0000 0.07780  0.37140  0.75690  Biso   1.000  H
  C23      1.0000 0.05406  0.53270  0.64522  Biso   1.000  C
  C24      1.0000 0.03470  0.66160  0.62281  Biso   1.000  C
  C25      1.0000 0.01208  0.42790  0.61614  Biso   1.000  C
  H12      1.0000 0.06270  0.73260  0.64060  Biso   1.000  H
  C26      1.0000 0.97410  0.68530  0.57420  Biso   1.000  C
  C27      1.0000 0.95126  0.45150  0.56869  Biso   1.000  C
  H13      1.0000 0.02510  0.34110  0.62880  Biso   1.000  H
  C28      1.0000 0.93208  0.58020  0.54811  Biso   1.000  C
  C29      1.0000 0.95459  0.82350  0.54794  Biso   1.000  C
  C30      1.0000 0.90690  0.33680  0.53648  Biso   1.000  C
  H14      1.0000 0.89090  0.59580  0.51680  Biso   1.000  H
  Cd3      1.0000 0.09481  0.94938  0.52620  Biso   1.000  Cd
  O13      1.0000 0.20826  0.89030  0.57871  Biso   1.000  O
  O14      1.0000 0.14992  0.00020  0.64261  Biso   1.000  O
  O15      1.0000 0.99574  0.91850  0.56627  Biso   1.000  O
  O16      1.0000 0.10251  0.15930  0.49167  Biso   1.000  O
  O17      1.0000 0.06506  0.77600  0.45875  Biso   1.000  O
  C31      1.0000 0.20525  0.95160  0.63508  Biso   1.000  C
  O18      1.0000 0.34693  0.86190  0.50772  Biso   1.000  O
  C32      1.0000 0.26644  0.96880  0.69336  Biso   1.000  C
  C33      1.0000 0.26566  0.05720  0.74902  Biso   1.000  C
  C34      1.0000 0.32550  0.89990  0.69210  Biso   1.000  C
  H15      1.0000 0.22610  0.10420  0.75080  Biso   1.000  H
  C35      1.0000 0.32319  0.07710  0.80252  Biso   1.000  C
  C36      1.0000 0.38290  0.91940  0.74480  Biso   1.000  C
  H16      1.0000 0.32680  0.83940  0.65520  Biso   1.000  H
  H17      1.0000 0.32150  0.13600  0.83990  Biso   1.000  H
  C37      1.0000 0.38296  0.00960  0.80038  Biso   1.000  C
  H18      1.0000 0.42220  0.87140  0.74310  Biso   1.000  H
  C38      1.0000 0.44594  0.03270  0.85478  Biso   1.000  C
  C39      1.0000 0.46530  0.16160  0.87719  Biso   1.000  C
  C40      1.0000 0.48792  0.92790  0.88386  Biso   1.000  C
  H19      1.0000 0.43730  0.23260  0.85940  Biso   1.000  H
  C41      1.0000 0.52590  0.18530  0.92580  Biso   1.000  C
  C42      1.0000 0.54874  0.95150  0.93131  Biso   1.000  C
  H20      1.0000 0.47490  0.84110  0.87120  Biso   1.000  H
  C43      1.0000 0.56792  0.08020  0.95189  Biso   1.000  C
  C44      1.0000 0.54541  0.32350  0.95206  Biso   1.000  C
  C45      1.0000 0.59310  0.83680  0.96352  Biso   1.000  C
  H21      1.0000 0.60910  0.09580  0.98320  Biso   1.000  H
  Cd4      1.0000 0.59481  0.44938  0.52620  Biso   1.000  Cd
  O19      1.0000 0.70826  0.39030  0.57871  Biso   1.000  O
  O20      1.0000 0.64992  0.50020  0.64261  Biso   1.000  O
  O21      1.0000 0.49574  0.41850  0.56627  Biso   1.000  O
  O22      1.0000 0.60251  0.65930  0.49167  Biso   1.000  O
  O23      1.0000 0.56506  0.27600  0.45875  Biso   1.000  O
  C46      1.0000 0.70525  0.45160  0.63508  Biso   1.000  C
  O24      1.0000 0.84693  0.36190  0.50772  Biso   1.000  O
  C47      1.0000 0.76644  0.46880  0.69336  Biso   1.000  C
  C48      1.0000 0.76566  0.55720  0.74902  Biso   1.000  C
  C49      1.0000 0.82550  0.39990  0.69210  Biso   1.000  C
  H22      1.0000 0.72610  0.60420  0.75080  Biso   1.000  H
  C50      1.0000 0.82319  0.57710  0.80252  Biso   1.000  C
  C51      1.0000 0.88290  0.41940  0.74480  Biso   1.000  C
  H23      1.0000 0.82680  0.33940  0.65520  Biso   1.000  H
  H24      1.0000 0.82150  0.63600  0.83990  Biso   1.000  H
  C52      1.0000 0.88296  0.50960  0.80038  Biso   1.000  C
  H25      1.0000 0.92220  0.37140  0.74310  Biso   1.000  H
  C53      1.0000 0.94594  0.53270  0.85478  Biso   1.000  C
  C54      1.0000 0.96530  0.66160  0.87719  Biso   1.000  C
  C55      1.0000 0.98792  0.42790  0.88386  Biso   1.000  C
  H26      1.0000 0.93730  0.73260  0.85940  Biso   1.000  H
  C56      1.0000 0.02590  0.68530  0.92580  Biso   1.000  C
  C57      1.0000 0.04874  0.45150  0.93131  Biso   1.000  C
  H27      1.0000 0.97490  0.34110  0.87120  Biso   1.000  H
  C58      1.0000 0.06792  0.58020  0.95189  Biso   1.000  C
  C59      1.0000 0.04541  0.82350  0.95206  Biso   1.000  C
  C60      1.0000 0.09310  0.33680  0.96352  Biso   1.000  C
  H28      1.0000 0.10910  0.59580  0.98320  Biso   1.000  H
  Cd5      1.0000 0.09481  0.05062  0.02620  Biso   1.000  Cd
  O25      1.0000 0.20826  0.10970  0.07871  Biso   1.000  O
  O26      1.0000 0.14992  0.99980  0.14261  Biso   1.000  O
  O27      1.0000 0.99574  0.08150  0.06627  Biso   1.000  O
  O28      1.0000 0.10251  0.84070  0.99167  Biso   1.000  O
  O29      1.0000 0.06506  0.22400  0.95875  Biso   1.000  O
  C61      1.0000 0.20525  0.04840  0.13508  Biso   1.000  C
  O30      1.0000 0.34693  0.13810  0.00772  Biso   1.000  O
  C62      1.0000 0.26644  0.03120  0.19336  Biso   1.000  C
  C63      1.0000 0.26566  0.94280  0.24902  Biso   1.000  C
  C64      1.0000 0.32550  0.10010  0.19210  Biso   1.000  C
  H29      1.0000 0.22610  0.89580  0.25080  Biso   1.000  H
  C65      1.0000 0.32319  0.92290  0.30252  Biso   1.000  C
  C66      1.0000 0.38290  0.08060  0.24480  Biso   1.000  C
  H30      1.0000 0.32680  0.16060  0.15520  Biso   1.000  H
  H31      1.0000 0.32150  0.86400  0.33990  Biso   1.000  H
  C67      1.0000 0.38296  0.99040  0.30038  Biso   1.000  C
  H32      1.0000 0.42220  0.12860  0.24310  Biso   1.000  H
  C68      1.0000 0.44594  0.96730  0.35478  Biso   1.000  C
  C69      1.0000 0.46530  0.83840  0.37719  Biso   1.000  C
  C70      1.0000 0.48792  0.07210  0.38386  Biso   1.000  C
  H33      1.0000 0.43730  0.76740  0.35940  Biso   1.000  H
  C71      1.0000 0.52590  0.81470  0.42580  Biso   1.000  C
  C72      1.0000 0.54874  0.04850  0.43131  Biso   1.000  C
  H34      1.0000 0.47490  0.15890  0.37120  Biso   1.000  H
  C73      1.0000 0.56792  0.91980  0.45189  Biso   1.000  C
  C74      1.0000 0.54541  0.67650  0.45206  Biso   1.000  C
  C75      1.0000 0.59310  0.16320  0.46352  Biso   1.000  C
  H35      1.0000 0.60910  0.90420  0.48320  Biso   1.000  H
  Cd6      1.0000 0.59481  0.55062  0.02620  Biso   1.000  Cd
  O31      1.0000 0.70826  0.60970  0.07871  Biso   1.000  O
  O32      1.0000 0.64992  0.49980  0.14261  Biso   1.000  O
  O33      1.0000 0.49574  0.58150  0.06627  Biso   1.000  O
  O34      1.0000 0.60251  0.34070  0.99167  Biso   1.000  O
  O35      1.0000 0.56506  0.72400  0.95875  Biso   1.000  O
  C76      1.0000 0.70525  0.54840  0.13508  Biso   1.000  C
  O36      1.0000 0.84693  0.63810  0.00772  Biso   1.000  O
  C77      1.0000 0.76644  0.53120  0.19336  Biso   1.000  C
  C78      1.0000 0.76566  0.44280  0.24902  Biso   1.000  C
  C79      1.0000 0.82550  0.60010  0.19210  Biso   1.000  C
  H36      1.0000 0.72610  0.39580  0.25080  Biso   1.000  H
  C80      1.0000 0.82319  0.42290  0.30252  Biso   1.000  C
  C81      1.0000 0.88290  0.58060  0.24480  Biso   1.000  C
  H37      1.0000 0.82680  0.66060  0.15520  Biso   1.000  H
  H38      1.0000 0.82150  0.36400  0.33990  Biso   1.000  H
  C82      1.0000 0.88296  0.49040  0.30038  Biso   1.000  C
  H39      1.0000 0.92220  0.62860  0.24310  Biso   1.000  H
  C83      1.0000 0.94594  0.46730  0.35478  Biso   1.000  C
  C84      1.0000 0.96530  0.33840  0.37719  Biso   1.000  C
  C85      1.0000 0.98792  0.57210  0.38386  Biso   1.000  C
  H40      1.0000 0.93730  0.26740  0.35940  Biso   1.000  H
  C86      1.0000 0.02590  0.31470  0.42580  Biso   1.000  C
  C87      1.0000 0.04874  0.54850  0.43131  Biso   1.000  C
  H41      1.0000 0.97490  0.65890  0.37120  Biso   1.000  H
  C88      1.0000 0.06792  0.41980  0.45189  Biso   1.000  C
  C89      1.0000 0.04541  0.17650  0.45206  Biso   1.000  C
  C90      1.0000 0.09310  0.66320  0.46352  Biso   1.000  C
  H42      1.0000 0.10910  0.40420  0.48320  Biso   1.000  H
  Cd7      1.0000 0.90519  0.05062  0.47380  Biso   1.000  Cd
  O37      1.0000 0.79174  0.10970  0.42129  Biso   1.000  O
  O38      1.0000 0.85008  0.99980  0.35739  Biso   1.000  O
  O39      1.0000 0.00426  0.08150  0.43373  Biso   1.000  O
  O40      1.0000 0.89749  0.84070  0.50833  Biso   1.000  O
  O41      1.0000 0.93494  0.22400  0.54125  Biso   1.000  O
  C91      1.0000 0.79475  0.04840  0.36492  Biso   1.000  C
  O42      1.0000 0.65307  0.13810  0.49228  Biso   1.000  O
  C92      1.0000 0.73356  0.03120  0.30664  Biso   1.000  C
  C93      1.0000 0.73434  0.94280  0.25098  Biso   1.000  C
  C94      1.0000 0.67450  0.10010  0.30790  Biso   1.000  C
  H43      1.0000 0.77390  0.89580  0.24920  Biso   1.000  H
  C95      1.0000 0.67681  0.92290  0.19748  Biso   1.000  C
  C96      1.0000 0.61710  0.08060  0.25520  Biso   1.000  C
  H44      1.0000 0.67320  0.16060  0.34480  Biso   1.000  H
  H45      1.0000 0.67850  0.86400  0.16010  Biso   1.000  H
  C97      1.0000 0.61704  0.99040  0.19962  Biso   1.000  C
  H46      1.0000 0.57780  0.12860  0.25690  Biso   1.000  H
  C98      1.0000 0.55406  0.96730  0.14522  Biso   1.000  C
  C99      1.0000 0.53470  0.83840  0.12281  Biso   1.000  C
  C100     1.0000 0.51208  0.07210  0.11614  Biso   1.000  C
  H47      1.0000 0.56270  0.76740  0.14060  Biso   1.000  H
  C101     1.0000 0.47410  0.81470  0.07420  Biso   1.000  C
  C102     1.0000 0.45126  0.04850  0.06869  Biso   1.000  C
  H48      1.0000 0.52510  0.15890  0.12880  Biso   1.000  H
  C103     1.0000 0.43208  0.91980  0.04811  Biso   1.000  C
  C104     1.0000 0.45459  0.67650  0.04794  Biso   1.000  C
  C105     1.0000 0.40690  0.16320  0.03648  Biso   1.000  C
  H49      1.0000 0.39090  0.90420  0.01680  Biso   1.000  H
  Cd8      1.0000 0.40519  0.55062  0.47380  Biso   1.000  Cd
  O43      1.0000 0.29174  0.60970  0.42129  Biso   1.000  O
  O44      1.0000 0.35008  0.49980  0.35739  Biso   1.000  O
  O45      1.0000 0.50426  0.58150  0.43373  Biso   1.000  O
  O46      1.0000 0.39749  0.34070  0.50833  Biso   1.000  O
  O47      1.0000 0.43494  0.72400  0.54125  Biso   1.000  O
  C106     1.0000 0.29475  0.54840  0.36492  Biso   1.000  C
  O48      1.0000 0.15307  0.63810  0.49228  Biso   1.000  O
  C107     1.0000 0.23356  0.53120  0.30664  Biso   1.000  C
  C108     1.0000 0.23434  0.44280  0.25098  Biso   1.000  C
  C109     1.0000 0.17450  0.60010  0.30790  Biso   1.000  C
  H50      1.0000 0.27390  0.39580  0.24920  Biso   1.000  H
  C110     1.0000 0.17681  0.42290  0.19748  Biso   1.000  C
  C111     1.0000 0.11710  0.58060  0.25520  Biso   1.000  C
  H51      1.0000 0.17320  0.66060  0.34480  Biso   1.000  H
  H52      1.0000 0.17850  0.36400  0.16010  Biso   1.000  H
  C112     1.0000 0.11704  0.49040  0.19962  Biso   1.000  C
  H53      1.0000 0.07780  0.62860  0.25690  Biso   1.000  H
  C113     1.0000 0.05406  0.46730  0.14522  Biso   1.000  C
  C114     1.0000 0.03470  0.33840  0.12281  Biso   1.000  C
  C115     1.0000 0.01208  0.57210  0.11614  Biso   1.000  C
  H54      1.0000 0.06270  0.26740  0.14060  Biso   1.000  H
  C116     1.0000 0.97410  0.31470  0.07420  Biso   1.000  C
  C117     1.0000 0.95126  0.54850  0.06869  Biso   1.000  C
  H55      1.0000 0.02510  0.65890  0.12880  Biso   1.000  H
  C118     1.0000 0.93208  0.41980  0.04811  Biso   1.000  C
  C119     1.0000 0.95459  0.17650  0.04794  Biso   1.000  C
  C120     1.0000 0.90690  0.66320  0.03648  Biso   1.000  C
  H56      1.0000 0.89090  0.40420  0.01680  Biso   1.000  H
  Cd9      1.0000 0.75000  0.75000  0.00000  Biso   1.000  Cd
  Cd10     1.0000 0.25000  0.25000  0.00000  Biso   1.000  Cd
  Cd11     1.0000 0.25000  0.75000  0.50000  Biso   1.000  Cd
  Cd12     1.0000 0.75000  0.25000  0.50000  Biso   1.000  Cd
