data_HEKTUO_clean
_audit_creation_date              2014-07-02
_audit_creation_method            'Materials Studio'
_symmetry_space_group_name_H-M    'P1'
_symmetry_Int_Tables_number       1
_symmetry_cell_setting            triclinic
loop_
_symmetry_equiv_pos_as_xyz
  x,y,z
_cell_length_a                    10.0714
_cell_length_b                    11.1963
_cell_length_c                    18.9420
_cell_angle_alpha                 99.9866
_cell_angle_beta                  90.0000
_cell_angle_gamma                 116.7290
loop_
_atom_site_label
_atom_site_type_symbol
_atom_site_fract_x
_atom_site_fract_y
_atom_site_fract_z
_atom_site_U_iso_or_equiv
_atom_site_adp_type
_atom_site_occupancy
Cd1    Cd    0.45623   0.81026   0.97412   0.01267  Uiso   1.00
Cd2    Cd    0.64597   0.18974   0.52588   0.01267  Uiso   1.00
Cd3    Cd    0.54377   0.18974   0.02588   0.01267  Uiso   1.00
Cd4    Cd    0.35403   0.81026   0.47412   0.01267  Uiso   1.00
Cd5    Cd    0.50000   0.50000   1.00000   0.01267  Uiso   1.00
Cd6    Cd    0.00000   0.50000   0.50000   0.01267  Uiso   1.00
H1     H     0.33570   0.34760   0.84370   0.01267  Uiso   1.00
H2     H     0.20280   0.15400   0.75740   0.01267  Uiso   1.00
H3     H     0.82910   0.12540   0.64110   0.01267  Uiso   1.00
H4     H     0.04380   0.35980   0.65960   0.01267  Uiso   1.00
H5     H     0.18350   0.04860   0.63010   0.01267  Uiso   1.00
H6     H     0.17160   0.54860   0.74890   0.01267  Uiso   1.00
H7     H     0.79690   0.78240   0.51680   0.01267  Uiso   1.00
H8     H     0.98810   0.65240   0.65630   0.01267  Uiso   1.00
H9     H     0.04880   0.84600   0.74260   0.01267  Uiso   1.00
H10    H     0.70370   0.87460   0.85890   0.01267  Uiso   1.00
H11    H     0.68400   0.64020   0.84040   0.01267  Uiso   1.00
H12    H     0.13490   0.95140   0.86990   0.01267  Uiso   1.00
H13    H     0.62300   0.45140   0.75110   0.01267  Uiso   1.00
H14    H     0.01450   0.21760   0.98320   0.01267  Uiso   1.00
H15    H     0.66430   0.65240   0.15630   0.01267  Uiso   1.00
H16    H     0.79720   0.84600   0.24260   0.01267  Uiso   1.00
H17    H     0.17090   0.87460   0.35890   0.01267  Uiso   1.00
H18    H     0.95620   0.64020   0.34040   0.01267  Uiso   1.00
H19    H     0.81650   0.95140   0.36990   0.01267  Uiso   1.00
H20    H     0.82840   0.45140   0.25110   0.01267  Uiso   1.00
H21    H     0.20310   0.21760   0.48320   0.01267  Uiso   1.00
H22    H     0.01190   0.34760   0.34370   0.01267  Uiso   1.00
H23    H     0.95120   0.15400   0.25740   0.01267  Uiso   1.00
H24    H     0.29630   0.12540   0.14110   0.01267  Uiso   1.00
H25    H     0.31600   0.35980   0.15960   0.01267  Uiso   1.00
H26    H     0.86510   0.04860   0.13010   0.01267  Uiso   1.00
H27    H     0.37700   0.54860   0.24890   0.01267  Uiso   1.00
H28    H     0.98550   0.78240   0.01680   0.01267  Uiso   1.00
C1     C     0.27480   0.34980   0.80750   0.01267  Uiso   1.00
C2     C     0.07010   0.81400   0.53630   0.01267  Uiso   1.00
C3     C     0.19580   0.23340   0.75520   0.01267  Uiso   1.00
C4     C     0.87220   0.06960   0.62310   0.01267  Uiso   1.00
C5     C     0.78820   0.94780   0.57430   0.01267  Uiso   1.00
C6     C     0.10010   0.35560   0.69720   0.01267  Uiso   1.00
C7     C     0.10750   0.23440   0.70030   0.01267  Uiso   1.00
C8     C     0.08440   0.02380   0.61670   0.01267  Uiso   1.00
C9     C     0.99950   0.90260   0.56820   0.01267  Uiso   1.00
C10    C     0.02140   0.10780   0.64510   0.01267  Uiso   1.00
C11    C     0.17790   0.46880   0.75070   0.01267  Uiso   1.00
C12    C     0.26460   0.46780   0.80680   0.01267  Uiso   1.00
C13    C     0.34390   0.59000   0.86480   0.01267  Uiso   1.00
C14    C     0.85320   0.86460   0.54820   0.01267  Uiso   1.00
C15    C     0.63090   0.91040   0.54840   0.01267  Uiso   1.00
C16    C     0.92500   0.65020   0.69250   0.01267  Uiso   1.00
C17    C     0.25610   0.18600   0.96370   0.01267  Uiso   1.00
C18    C     0.96240   0.76660   0.74480   0.01267  Uiso   1.00
C19    C     0.80260   0.93040   0.87690   0.01267  Uiso   1.00
C20    C     0.84040   0.05220   0.92570   0.01267  Uiso   1.00
C21    C     0.74450   0.64440   0.80280   0.01267  Uiso   1.00
C22    C     0.87310   0.76560   0.79970   0.01267  Uiso   1.00
C23    C     0.06060   0.97620   0.88330   0.01267  Uiso   1.00
C24    C     0.09690   0.09740   0.93180   0.01267  Uiso   1.00
C25    C     0.91360   0.89220   0.85490   0.01267  Uiso   1.00
C26    C     0.70910   0.53120   0.74930   0.01267  Uiso   1.00
C27    C     0.79680   0.53220   0.69320   0.01267  Uiso   1.00
C28    C     0.75390   0.41000   0.63520   0.01267  Uiso   1.00
C29    C     0.98860   0.13540   0.95180   0.01267  Uiso   1.00
C30    C     0.72050   0.08960   0.95160   0.01267  Uiso   1.00
C31    C     0.72520   0.65020   0.19250   0.01267  Uiso   1.00
C32    C     0.92990   0.18600   0.46370   0.01267  Uiso   1.00
C33    C     0.80420   0.76660   0.24480   0.01267  Uiso   1.00
C34    C     0.12780   0.93040   0.37690   0.01267  Uiso   1.00
C35    C     0.21180   0.05220   0.42570   0.01267  Uiso   1.00
C36    C     0.89990   0.64440   0.30280   0.01267  Uiso   1.00
C37    C     0.89250   0.76560   0.29970   0.01267  Uiso   1.00
C38    C     0.91560   0.97620   0.38330   0.01267  Uiso   1.00
C39    C     0.00050   0.09740   0.43180   0.01267  Uiso   1.00
C40    C     0.97860   0.89220   0.35490   0.01267  Uiso   1.00
C41    C     0.82210   0.53120   0.24930   0.01267  Uiso   1.00
C42    C     0.73540   0.53220   0.19320   0.01267  Uiso   1.00
C43    C     0.65610   0.41000   0.13520   0.01267  Uiso   1.00
C44    C     0.14680   0.13540   0.45180   0.01267  Uiso   1.00
C45    C     0.36910   0.08960   0.45160   0.01267  Uiso   1.00
C46    C     0.07500   0.34980   0.30750   0.01267  Uiso   1.00
C47    C     0.74390   0.81400   0.03630   0.01267  Uiso   1.00
C48    C     0.03760   0.23340   0.25520   0.01267  Uiso   1.00
C49    C     0.19740   0.06960   0.12310   0.01267  Uiso   1.00
C50    C     0.15960   0.94780   0.07430   0.01267  Uiso   1.00
C51    C     0.25550   0.35560   0.19720   0.01267  Uiso   1.00
C52    C     0.12690   0.23440   0.20030   0.01267  Uiso   1.00
C53    C     0.93940   0.02380   0.11670   0.01267  Uiso   1.00
C54    C     0.90310   0.90260   0.06820   0.01267  Uiso   1.00
C55    C     0.08640   0.10780   0.14510   0.01267  Uiso   1.00
C56    C     0.29090   0.46880   0.25070   0.01267  Uiso   1.00
C57    C     0.20320   0.46780   0.30680   0.01267  Uiso   1.00
C58    C     0.24610   0.59000   0.36480   0.01267  Uiso   1.00
C59    C     0.01140   0.86460   0.04820   0.01267  Uiso   1.00
C60    C     0.27950   0.91040   0.04840   0.01267  Uiso   1.00
O1     O     0.40220   0.58380   0.92050   0.01267  Uiso   1.00
O2     O     0.34960   0.70060   0.85710   0.01267  Uiso   1.00
O3     O     0.55750   0.79600   0.50870   0.01267  Uiso   1.00
O4     O     0.57860   0.99240   0.56680   0.01267  Uiso   1.00
O5     O     0.98410   0.69380   0.50790   0.01267  Uiso   1.00
O6     O     0.21020   0.86940   0.54160   0.01267  Uiso   1.00
O7     O     0.81840   0.41620   0.57950   0.01267  Uiso   1.00
O8     O     0.64900   0.29940   0.64290   0.01267  Uiso   1.00
O9     O     0.76150   0.20400   0.99130   0.01267  Uiso   1.00
O10    O     0.58620   0.00760   0.93320   0.01267  Uiso   1.00
O11    O     0.29030   0.30620   0.99210   0.01267  Uiso   1.00
O12    O     0.34080   0.13060   0.95840   0.01267  Uiso   1.00
O13    O     0.59780   0.41620   0.07950   0.01267  Uiso   1.00
O14    O     0.65040   0.29940   0.14290   0.01267  Uiso   1.00
O15    O     0.44250   0.20400   0.49130   0.01267  Uiso   1.00
O16    O     0.42140   0.00760   0.43320   0.01267  Uiso   1.00
O17    O     0.01590   0.30620   0.49210   0.01267  Uiso   1.00
O18    O     0.78980   0.13060   0.45840   0.01267  Uiso   1.00
O19    O     0.18160   0.58380   0.42050   0.01267  Uiso   1.00
O20    O     0.35100   0.70060   0.35710   0.01267  Uiso   1.00
O21    O     0.23850   0.79600   0.00870   0.01267  Uiso   1.00
O22    O     0.41380   0.99240   0.06680   0.01267  Uiso   1.00
O23    O     0.70970   0.69380   0.00790   0.01267  Uiso   1.00
O24    O     0.65920   0.86940   0.04160   0.01267  Uiso   1.00
