data_HELCUY_clean
_audit_creation_date              2014-07-02
_audit_creation_method            'Materials Studio'
_symmetry_space_group_name_H-M    'P1'
_symmetry_Int_Tables_number       1
_symmetry_cell_setting            triclinic
loop_
_symmetry_equiv_pos_as_xyz
  x,y,z
_cell_length_a                    5.5807
_cell_length_b                    13.7930
_cell_length_c                    24.0640
_cell_angle_alpha                 90.0000
_cell_angle_beta                  95.9100
_cell_angle_gamma                 90.0000
loop_
_atom_site_label
_atom_site_type_symbol
_atom_site_fract_x
_atom_site_fract_y
_atom_site_fract_z
_atom_site_U_iso_or_equiv
_atom_site_adp_type
_atom_site_occupancy
Zn1    Zn    0.99829   0.57622   0.55017   0.01267  Uiso   1.00
Zn2    Zn    0.69106   0.75277   0.49411   0.01267  Uiso   1.00
Zn3    Zn    0.00171   0.07622   0.94983   0.01267  Uiso   1.00
Zn4    Zn    0.30894   0.25277   0.00589   0.01267  Uiso   1.00
Zn5    Zn    0.00171   0.42378   0.44983   0.01267  Uiso   1.00
Zn6    Zn    0.30894   0.24723   0.50589   0.01267  Uiso   1.00
Zn7    Zn    0.99829   0.92378   0.05017   0.01267  Uiso   1.00
Zn8    Zn    0.69106   0.74723   0.99411   0.01267  Uiso   1.00
Zn9    Zn    0.50000   0.50000   0.50000   0.01267  Uiso   1.00
Zn10   Zn    0.50000   0.00000   0.00000   0.01267  Uiso   1.00
H1     H     0.71960   0.51320   0.68810   0.01267  Uiso   1.00
H2     H     0.64780   0.47490   0.74550   0.01267  Uiso   1.00
H3     H     0.50170   0.36770   0.67460   0.01267  Uiso   1.00
H4     H     0.28290   0.41450   0.70090   0.01267  Uiso   1.00
H5     H     0.46900   0.89020   0.67790   0.01267  Uiso   1.00
H6     H     0.52270   0.82110   0.62910   0.01267  Uiso   1.00
H7     H     0.22990   0.93010   0.59660   0.01267  Uiso   1.00
H8     H     0.07050   0.90110   0.64370   0.01267  Uiso   1.00
H9     H     0.83400   0.71730   0.77980   0.01267  Uiso   1.00
H10    H     0.92360   0.61760   0.80550   0.01267  Uiso   1.00
H11    H     0.20650   0.70320   0.86780   0.01267  Uiso   1.00
H12    H     0.08940   0.80050   0.84460   0.01267  Uiso   1.00
H13    H     0.28040   0.01320   0.81190   0.01267  Uiso   1.00
H14    H     0.35220   0.97490   0.75450   0.01267  Uiso   1.00
H15    H     0.49830   0.86770   0.82540   0.01267  Uiso   1.00
H16    H     0.71710   0.91450   0.79910   0.01267  Uiso   1.00
H17    H     0.53100   0.39020   0.82210   0.01267  Uiso   1.00
H18    H     0.47730   0.32110   0.87090   0.01267  Uiso   1.00
H19    H     0.77010   0.43010   0.90340   0.01267  Uiso   1.00
H20    H     0.92950   0.40110   0.85630   0.01267  Uiso   1.00
H21    H     0.16600   0.21730   0.72020   0.01267  Uiso   1.00
H22    H     0.07640   0.11760   0.69450   0.01267  Uiso   1.00
H23    H     0.79350   0.20320   0.63220   0.01267  Uiso   1.00
H24    H     0.91060   0.30050   0.65540   0.01267  Uiso   1.00
H25    H     0.28040   0.48680   0.31190   0.01267  Uiso   1.00
H26    H     0.35220   0.52510   0.25450   0.01267  Uiso   1.00
H27    H     0.49830   0.63230   0.32540   0.01267  Uiso   1.00
H28    H     0.71710   0.58550   0.29910   0.01267  Uiso   1.00
H29    H     0.53100   0.10980   0.32210   0.01267  Uiso   1.00
H30    H     0.47730   0.17890   0.37090   0.01267  Uiso   1.00
H31    H     0.77010   0.06990   0.40340   0.01267  Uiso   1.00
H32    H     0.92950   0.09890   0.35630   0.01267  Uiso   1.00
H33    H     0.16600   0.28270   0.22020   0.01267  Uiso   1.00
H34    H     0.07640   0.38240   0.19450   0.01267  Uiso   1.00
H35    H     0.79350   0.29680   0.13220   0.01267  Uiso   1.00
H36    H     0.91060   0.19950   0.15540   0.01267  Uiso   1.00
H37    H     0.71960   0.98680   0.18810   0.01267  Uiso   1.00
H38    H     0.64780   0.02510   0.24550   0.01267  Uiso   1.00
H39    H     0.50170   0.13230   0.17460   0.01267  Uiso   1.00
H40    H     0.28290   0.08550   0.20090   0.01267  Uiso   1.00
H41    H     0.46900   0.60980   0.17790   0.01267  Uiso   1.00
H42    H     0.52270   0.67890   0.12910   0.01267  Uiso   1.00
H43    H     0.22990   0.56990   0.09660   0.01267  Uiso   1.00
H44    H     0.07050   0.59890   0.14370   0.01267  Uiso   1.00
H45    H     0.83400   0.78270   0.27980   0.01267  Uiso   1.00
H46    H     0.92360   0.88240   0.30550   0.01267  Uiso   1.00
H47    H     0.20650   0.79680   0.36780   0.01267  Uiso   1.00
H48    H     0.08940   0.69950   0.34460   0.01267  Uiso   1.00
C1     C     0.49190   0.67010   0.68161   0.01267  Uiso   1.00
C2     C     0.19120   0.76100   0.72690   0.01267  Uiso   1.00
C3     C     0.30010   0.59670   0.75845   0.01267  Uiso   1.00
C4     C     0.58480   0.50130   0.70960   0.01267  Uiso   1.00
C5     C     0.41580   0.42790   0.67903   0.01267  Uiso   1.00
C6     C     0.31900   0.46620   0.62220   0.01267  Uiso   1.00
C7     C     0.40260   0.83830   0.65380   0.01267  Uiso   1.00
C8     C     0.18180   0.87610   0.61880   0.01267  Uiso   1.00
C9     C     0.04960   0.80320   0.58000   0.01267  Uiso   1.00
C10    C     0.97320   0.68320   0.79770   0.01267  Uiso   1.00
C11    C     0.87060   0.72530   0.89270   0.01267  Uiso   1.00
C12    C     0.05750   0.73280   0.85170   0.01267  Uiso   1.00
C13    C     0.50810   0.17010   0.81839   0.01267  Uiso   1.00
C14    C     0.80880   0.26100   0.77310   0.01267  Uiso   1.00
C15    C     0.69990   0.09670   0.74155   0.01267  Uiso   1.00
C16    C     0.41520   0.00130   0.79040   0.01267  Uiso   1.00
C17    C     0.58420   0.92790   0.82097   0.01267  Uiso   1.00
C18    C     0.68100   0.96620   0.87780   0.01267  Uiso   1.00
C19    C     0.59740   0.33830   0.84620   0.01267  Uiso   1.00
C20    C     0.81820   0.37610   0.88120   0.01267  Uiso   1.00
C21    C     0.95040   0.30320   0.92000   0.01267  Uiso   1.00
C22    C     0.02680   0.18320   0.70230   0.01267  Uiso   1.00
C23    C     0.12940   0.22530   0.60730   0.01267  Uiso   1.00
C24    C     0.94250   0.23280   0.64830   0.01267  Uiso   1.00
C25    C     0.50810   0.32990   0.31839   0.01267  Uiso   1.00
C26    C     0.80880   0.23900   0.27310   0.01267  Uiso   1.00
C27    C     0.69990   0.40330   0.24155   0.01267  Uiso   1.00
C28    C     0.41520   0.49870   0.29040   0.01267  Uiso   1.00
C29    C     0.58420   0.57210   0.32097   0.01267  Uiso   1.00
C30    C     0.68100   0.53380   0.37780   0.01267  Uiso   1.00
C31    C     0.59740   0.16170   0.34620   0.01267  Uiso   1.00
C32    C     0.81820   0.12390   0.38120   0.01267  Uiso   1.00
C33    C     0.95040   0.19680   0.42000   0.01267  Uiso   1.00
C34    C     0.02680   0.31680   0.20230   0.01267  Uiso   1.00
C35    C     0.12940   0.27470   0.10730   0.01267  Uiso   1.00
C36    C     0.94250   0.26720   0.14830   0.01267  Uiso   1.00
C37    C     0.49190   0.82990   0.18161   0.01267  Uiso   1.00
C38    C     0.19120   0.73900   0.22690   0.01267  Uiso   1.00
C39    C     0.30010   0.90330   0.25845   0.01267  Uiso   1.00
C40    C     0.58480   0.99870   0.20960   0.01267  Uiso   1.00
C41    C     0.41580   0.07210   0.17903   0.01267  Uiso   1.00
C42    C     0.31900   0.03380   0.12220   0.01267  Uiso   1.00
C43    C     0.40260   0.66170   0.15380   0.01267  Uiso   1.00
C44    C     0.18180   0.62390   0.11880   0.01267  Uiso   1.00
C45    C     0.04960   0.69680   0.08000   0.01267  Uiso   1.00
C46    C     0.97320   0.81680   0.29770   0.01267  Uiso   1.00
C47    C     0.87060   0.77470   0.39270   0.01267  Uiso   1.00
C48    C     0.05750   0.76720   0.35170   0.01267  Uiso   1.00
N1     N     0.36030   0.75330   0.68890   0.01267  Uiso   1.00
N2     N     0.16150   0.67970   0.75905   0.01267  Uiso   1.00
N3     N     0.46020   0.59420   0.71836   0.01267  Uiso   1.00
N4     N     0.63970   0.25330   0.81110   0.01267  Uiso   1.00
N5     N     0.83850   0.17970   0.74095   0.01267  Uiso   1.00
N6     N     0.53980   0.09420   0.78164   0.01267  Uiso   1.00
N7     N     0.63970   0.24670   0.31110   0.01267  Uiso   1.00
N8     N     0.83850   0.32030   0.24095   0.01267  Uiso   1.00
N9     N     0.53980   0.40580   0.28164   0.01267  Uiso   1.00
N10    N     0.36030   0.74670   0.18890   0.01267  Uiso   1.00
N11    N     0.16150   0.82030   0.25905   0.01267  Uiso   1.00
N12    N     0.46020   0.90580   0.21836   0.01267  Uiso   1.00
O1     O     0.28480   0.52990   0.79095   0.01267  Uiso   1.00
O2     O     0.63760   0.66430   0.64742   0.01267  Uiso   1.00
O3     O     0.07930   0.83450   0.73285   0.01267  Uiso   1.00
O4     O     0.13260   0.72010   0.57481   0.01267  Uiso   1.00
O5     O     0.85490   0.83530   0.55401   0.01267  Uiso   1.00
O6     O     0.13200   0.51940   0.62105   0.01267  Uiso   1.00
O7     O     0.83020   0.44030   0.51630   0.01267  Uiso   1.00
O8     O     0.66160   0.62870   0.53393   0.01267  Uiso   1.00
O9     O     0.94100   0.75620   0.94284   0.01267  Uiso   1.00
O10    O     0.42990   0.44660   0.58119   0.01267  Uiso   1.00
O11    O     0.66900   0.69420   0.87928   0.01267  Uiso   1.00
O12    O     0.71520   0.02990   0.70905   0.01267  Uiso   1.00
O13    O     0.36240   0.16430   0.85258   0.01267  Uiso   1.00
O14    O     0.92070   0.33450   0.76715   0.01267  Uiso   1.00
O15    O     0.86740   0.22010   0.92519   0.01267  Uiso   1.00
O16    O     0.14510   0.33530   0.94599   0.01267  Uiso   1.00
O17    O     0.86800   0.01940   0.87895   0.01267  Uiso   1.00
O18    O     0.16980   0.94030   0.98370   0.01267  Uiso   1.00
O19    O     0.33840   0.12870   0.96607   0.01267  Uiso   1.00
O20    O     0.05900   0.25620   0.55716   0.01267  Uiso   1.00
O21    O     0.57010   0.94660   0.91881   0.01267  Uiso   1.00
O22    O     0.33100   0.19420   0.62072   0.01267  Uiso   1.00
O23    O     0.71520   0.47010   0.20905   0.01267  Uiso   1.00
O24    O     0.36240   0.33570   0.35258   0.01267  Uiso   1.00
O25    O     0.92070   0.16550   0.26715   0.01267  Uiso   1.00
O26    O     0.86740   0.27990   0.42519   0.01267  Uiso   1.00
O27    O     0.14510   0.16470   0.44599   0.01267  Uiso   1.00
O28    O     0.86800   0.48060   0.37895   0.01267  Uiso   1.00
O29    O     0.16980   0.55970   0.48370   0.01267  Uiso   1.00
O30    O     0.33840   0.37130   0.46607   0.01267  Uiso   1.00
O31    O     0.05900   0.24380   0.05716   0.01267  Uiso   1.00
O32    O     0.57010   0.55340   0.41881   0.01267  Uiso   1.00
O33    O     0.33100   0.30580   0.12072   0.01267  Uiso   1.00
O34    O     0.28480   0.97010   0.29095   0.01267  Uiso   1.00
O35    O     0.63760   0.83570   0.14742   0.01267  Uiso   1.00
O36    O     0.07930   0.66550   0.23285   0.01267  Uiso   1.00
O37    O     0.13260   0.77990   0.07481   0.01267  Uiso   1.00
O38    O     0.85490   0.66470   0.05401   0.01267  Uiso   1.00
O39    O     0.13200   0.98060   0.12105   0.01267  Uiso   1.00
O40    O     0.83020   0.05970   0.01630   0.01267  Uiso   1.00
O41    O     0.66160   0.87130   0.03393   0.01267  Uiso   1.00
O42    O     0.94100   0.74380   0.44284   0.01267  Uiso   1.00
O43    O     0.42990   0.05340   0.08119   0.01267  Uiso   1.00
O44    O     0.66900   0.80580   0.37928   0.01267  Uiso   1.00
