data_image0
_cell_length_a       27.745
_cell_length_b       16.1583
_cell_length_c       22.8192
_cell_angle_alpha    90
_cell_angle_beta     90
_cell_angle_gamma    90

_symmetry_space_group_name_H-M    "P 1"
_symmetry_int_tables_number       1

loop_
  _symmetry_equiv_pos_as_xyz
  'x, y, z'

loop_
  _atom_site_label
  _atom_site_occupancy
  _atom_site_fract_x
  _atom_site_fract_y
  _atom_site_fract_z
  _atom_site_thermal_displace_type
  _atom_site_B_iso_or_equiv
  _atom_site_type_symbol
  Mo1      1.0000 0.04952  0.79899  0.43920  Biso   1.000  Mo
  Mo2      1.0000 0.93319  0.10353  0.37375  Biso   1.000  Mo
  Mo3      1.0000 0.06018  0.11225  0.36951  Biso   1.000  Mo
  Mo4      1.0000 0.88931  0.96777  0.40365  Biso   1.000  Mo
  Mo5      1.0000 0.10993  0.98124  0.39677  Biso   1.000  Mo
  Mo6      1.0000 0.95576  0.79250  0.44344  Biso   1.000  Mo
  P1       1.0000 0.86866  0.78076  0.34321  Biso   1.000  P
  P2       1.0000 0.13351  0.79653  0.33514  Biso   1.000  P
  P3       1.0000 0.99145  0.18598  0.26103  Biso   1.000  P
  P4       1.0000 0.99800  0.93280  0.33956  Biso   1.000  P
  O1       1.0000 0.82337  0.72990  0.34061  Biso   1.000  O
  O2       1.0000 0.90436  0.74510  0.38777  Biso   1.000  O
  O3       1.0000 0.85739  0.87280  0.35515  Biso   1.000  O
  O4       1.0000 0.89435  0.78160  0.28100  Biso   1.000  O
  O5       1.0000 0.17809  0.74430  0.33203  Biso   1.000  O
  O6       1.0000 0.09782  0.75810  0.37850  Biso   1.000  O
  O7       1.0000 0.14546  0.88760  0.35083  Biso   1.000  O
  O8       1.0000 0.10968  0.79780  0.27210  Biso   1.000  O
  O9       1.0000 0.98172  0.27760  0.25500  Biso   1.000  O
  O10      1.0000 0.03997  0.16670  0.29031  Biso   1.000  O
  O11      1.0000 0.94793  0.14710  0.29228  Biso   1.000  O
  O12      1.0000 0.99319  0.14510  0.19820  Biso   1.000  O
  O13      1.0000 0.99728  0.02710  0.34587  Biso   1.000  O
  O14      1.0000 0.04487  0.89810  0.36576  Biso   1.000  O
  O15      1.0000 0.95455  0.89410  0.37189  Biso   1.000  O
  O16      1.0000 0.99401  0.91610  0.27288  Biso   1.000  O
  O17      1.0000 0.10162  0.88780  0.45955  Biso   1.000  O
  O18      1.0000 0.00175  0.87420  0.47645  Biso   1.000  O
  O19      1.0000 0.00238  0.73960  0.39201  Biso   1.000  O
  O20      1.0000 0.94109  0.03110  0.44399  Biso   1.000  O
  O21      1.0000 0.99584  0.16680  0.40041  Biso   1.000  O
  O22      1.0000 0.89631  0.02300  0.32862  Biso   1.000  O
  O23      1.0000 0.05746  0.03880  0.43956  Biso   1.000  O
  O24      1.0000 0.09753  0.03530  0.32231  Biso   1.000  O
  O25      1.0000 0.90150  0.87570  0.46659  Biso   1.000  O
  C1       1.0000 0.77740  0.69880  0.21850  Biso   1.000  C
  H1       1.0000 0.79690  0.66200  0.23880  Biso   1.000  H
  C2       1.0000 0.77860  0.69690  0.15790  Biso   1.000  C
  H2       1.0000 0.79870  0.65970  0.13870  Biso   1.000  H
  C3       1.0000 0.78470  0.71190  0.96720  Biso   1.000  C
  H3       1.0000 0.80920  0.68520  0.94680  Biso   1.000  H
  C4       1.0000 0.78600  0.71040  0.02800  Biso   1.000  C
  H4       1.0000 0.81080  0.68300  0.04740  Biso   1.000  H
  C5       1.0000 0.21640  0.71070  0.21020  Biso   1.000  C
  H5       1.0000 0.19230  0.68300  0.23050  Biso   1.000  H
  C6       1.0000 0.21550  0.70860  0.14940  Biso   1.000  C
  H6       1.0000 0.19140  0.67910  0.13020  Biso   1.000  H
  C7       1.0000 0.21290  0.72070  0.95890  Biso   1.000  C
  H7       1.0000 0.18650  0.70000  0.93850  Biso   1.000  H
  C8       1.0000 0.21170  0.71930  0.01990  Biso   1.000  C
  H8       1.0000 0.18510  0.69780  0.03930  Biso   1.000  H
  Mo7      1.0000 0.45048  0.70101  0.43920  Biso   1.000  Mo
  Mo8      1.0000 0.56681  0.39647  0.37375  Biso   1.000  Mo
  Mo9      1.0000 0.43982  0.38775  0.36951  Biso   1.000  Mo
  Mo10     1.0000 0.61069  0.53223  0.40365  Biso   1.000  Mo
  Mo11     1.0000 0.39007  0.51876  0.39677  Biso   1.000  Mo
  Mo12     1.0000 0.54424  0.70750  0.44344  Biso   1.000  Mo
  P5       1.0000 0.63134  0.71924  0.34321  Biso   1.000  P
  P6       1.0000 0.36649  0.70347  0.33514  Biso   1.000  P
  P7       1.0000 0.50855  0.31402  0.26103  Biso   1.000  P
  P8       1.0000 0.50200  0.56720  0.33956  Biso   1.000  P
  O26      1.0000 0.67663  0.77010  0.34061  Biso   1.000  O
  O27      1.0000 0.59564  0.75490  0.38777  Biso   1.000  O
  O28      1.0000 0.64261  0.62720  0.35515  Biso   1.000  O
  O29      1.0000 0.60565  0.71840  0.28100  Biso   1.000  O
  O30      1.0000 0.32191  0.75570  0.33203  Biso   1.000  O
  O31      1.0000 0.40218  0.74190  0.37850  Biso   1.000  O
  O32      1.0000 0.35454  0.61240  0.35083  Biso   1.000  O
  O33      1.0000 0.39032  0.70220  0.27210  Biso   1.000  O
  O34      1.0000 0.51828  0.22240  0.25500  Biso   1.000  O
  O35      1.0000 0.46003  0.33330  0.29031  Biso   1.000  O
  O36      1.0000 0.55207  0.35290  0.29228  Biso   1.000  O
  O37      1.0000 0.50681  0.35490  0.19820  Biso   1.000  O
  O38      1.0000 0.50272  0.47290  0.34587  Biso   1.000  O
  O39      1.0000 0.45513  0.60190  0.36576  Biso   1.000  O
  O40      1.0000 0.54545  0.60590  0.37189  Biso   1.000  O
  O41      1.0000 0.50599  0.58390  0.27288  Biso   1.000  O
  O42      1.0000 0.39838  0.61220  0.45955  Biso   1.000  O
  O43      1.0000 0.49825  0.62580  0.47645  Biso   1.000  O
  O44      1.0000 0.49762  0.76040  0.39201  Biso   1.000  O
  O45      1.0000 0.55891  0.46890  0.44399  Biso   1.000  O
  O46      1.0000 0.50416  0.33320  0.40041  Biso   1.000  O
  O47      1.0000 0.60369  0.47700  0.32862  Biso   1.000  O
  O48      1.0000 0.44254  0.46120  0.43956  Biso   1.000  O
  O49      1.0000 0.40247  0.46470  0.32231  Biso   1.000  O
  O50      1.0000 0.59850  0.62430  0.46659  Biso   1.000  O
  C9       1.0000 0.72260  0.80120  0.21850  Biso   1.000  C
  H9       1.0000 0.70310  0.83800  0.23880  Biso   1.000  H
  C10      1.0000 0.72140  0.80310  0.15790  Biso   1.000  C
  H10      1.0000 0.70130  0.84030  0.13870  Biso   1.000  H
  C11      1.0000 0.71530  0.78810  0.96720  Biso   1.000  C
  H11      1.0000 0.69080  0.81480  0.94680  Biso   1.000  H
  C12      1.0000 0.71400  0.78960  0.02800  Biso   1.000  C
  H12      1.0000 0.68920  0.81700  0.04740  Biso   1.000  H
  C13      1.0000 0.28360  0.78930  0.21020  Biso   1.000  C
  H13      1.0000 0.30770  0.81700  0.23050  Biso   1.000  H
  C14      1.0000 0.28450  0.79140  0.14940  Biso   1.000  C
  H14      1.0000 0.30860  0.82090  0.13020  Biso   1.000  H
  C15      1.0000 0.28710  0.77930  0.95890  Biso   1.000  C
  H15      1.0000 0.31350  0.80000  0.93850  Biso   1.000  H
  C16      1.0000 0.28830  0.78070  0.01990  Biso   1.000  C
  H16      1.0000 0.31490  0.80220  0.03930  Biso   1.000  H
  Mo13     1.0000 0.95048  0.29899  0.06080  Biso   1.000  Mo
  Mo14     1.0000 0.06681  0.60353  0.12625  Biso   1.000  Mo
  Mo15     1.0000 0.93982  0.61225  0.13049  Biso   1.000  Mo
  Mo16     1.0000 0.11069  0.46777  0.09635  Biso   1.000  Mo
  Mo17     1.0000 0.89007  0.48124  0.10323  Biso   1.000  Mo
  Mo18     1.0000 0.04424  0.29250  0.05656  Biso   1.000  Mo
  P9       1.0000 0.13134  0.28076  0.15679  Biso   1.000  P
  P10      1.0000 0.86649  0.29653  0.16486  Biso   1.000  P
  P11      1.0000 0.00855  0.68598  0.23897  Biso   1.000  P
  P12      1.0000 0.00200  0.43280  0.16044  Biso   1.000  P
  O51      1.0000 0.17663  0.22990  0.15939  Biso   1.000  O
  O52      1.0000 0.09564  0.24510  0.11223  Biso   1.000  O
  O53      1.0000 0.14261  0.37280  0.14485  Biso   1.000  O
  O54      1.0000 0.10565  0.28160  0.21900  Biso   1.000  O
  O55      1.0000 0.82191  0.24430  0.16797  Biso   1.000  O
  O56      1.0000 0.90218  0.25810  0.12150  Biso   1.000  O
  O57      1.0000 0.85454  0.38760  0.14917  Biso   1.000  O
  O58      1.0000 0.89032  0.29780  0.22790  Biso   1.000  O
  O59      1.0000 0.01828  0.77760  0.24500  Biso   1.000  O
  O60      1.0000 0.96003  0.66670  0.20969  Biso   1.000  O
  O61      1.0000 0.05207  0.64710  0.20772  Biso   1.000  O
  O62      1.0000 0.00681  0.64510  0.30180  Biso   1.000  O
  O63      1.0000 0.00272  0.52710  0.15413  Biso   1.000  O
  O64      1.0000 0.95513  0.39810  0.13424  Biso   1.000  O
  O65      1.0000 0.04545  0.39410  0.12811  Biso   1.000  O
  O66      1.0000 0.00599  0.41610  0.22712  Biso   1.000  O
  O67      1.0000 0.89838  0.38780  0.04045  Biso   1.000  O
  O68      1.0000 0.99825  0.37420  0.02355  Biso   1.000  O
  O69      1.0000 0.99762  0.23960  0.10799  Biso   1.000  O
  O70      1.0000 0.05891  0.53110  0.05601  Biso   1.000  O
  O71      1.0000 0.00416  0.66680  0.09959  Biso   1.000  O
  O72      1.0000 0.10369  0.52300  0.17138  Biso   1.000  O
  O73      1.0000 0.94254  0.53880  0.06044  Biso   1.000  O
  O74      1.0000 0.90247  0.53530  0.17769  Biso   1.000  O
  O75      1.0000 0.09850  0.37570  0.03341  Biso   1.000  O
  C17      1.0000 0.22260  0.19880  0.28150  Biso   1.000  C
  H17      1.0000 0.20310  0.16200  0.26120  Biso   1.000  H
  C18      1.0000 0.22140  0.19690  0.34210  Biso   1.000  C
  H18      1.0000 0.20130  0.15970  0.36130  Biso   1.000  H
  C19      1.0000 0.21530  0.21190  0.53280  Biso   1.000  C
  H19      1.0000 0.19080  0.18520  0.55320  Biso   1.000  H
  C20      1.0000 0.21400  0.21040  0.47200  Biso   1.000  C
  H20      1.0000 0.18920  0.18300  0.45260  Biso   1.000  H
  C21      1.0000 0.78360  0.21070  0.28980  Biso   1.000  C
  H21      1.0000 0.80770  0.18300  0.26950  Biso   1.000  H
  C22      1.0000 0.78450  0.20860  0.35060  Biso   1.000  C
  H22      1.0000 0.80860  0.17910  0.36980  Biso   1.000  H
  C23      1.0000 0.78710  0.22070  0.54110  Biso   1.000  C
  H23      1.0000 0.81350  0.20000  0.56150  Biso   1.000  H
  C24      1.0000 0.78830  0.21930  0.48010  Biso   1.000  C
  H24      1.0000 0.81490  0.19780  0.46070  Biso   1.000  H
  Mo19     1.0000 0.54952  0.20101  0.06080  Biso   1.000  Mo
  Mo20     1.0000 0.43319  0.89647  0.12625  Biso   1.000  Mo
  Mo21     1.0000 0.56018  0.88775  0.13049  Biso   1.000  Mo
  Mo22     1.0000 0.38931  0.03223  0.09635  Biso   1.000  Mo
  Mo23     1.0000 0.60993  0.01876  0.10323  Biso   1.000  Mo
  Mo24     1.0000 0.45576  0.20750  0.05656  Biso   1.000  Mo
  P13      1.0000 0.36866  0.21924  0.15679  Biso   1.000  P
  P14      1.0000 0.63351  0.20347  0.16486  Biso   1.000  P
  P15      1.0000 0.49145  0.81402  0.23897  Biso   1.000  P
  P16      1.0000 0.49800  0.06720  0.16044  Biso   1.000  P
  O76      1.0000 0.32337  0.27010  0.15939  Biso   1.000  O
  O77      1.0000 0.40436  0.25490  0.11223  Biso   1.000  O
  O78      1.0000 0.35739  0.12720  0.14485  Biso   1.000  O
  O79      1.0000 0.39435  0.21840  0.21900  Biso   1.000  O
  O80      1.0000 0.67809  0.25570  0.16797  Biso   1.000  O
  O81      1.0000 0.59782  0.24190  0.12150  Biso   1.000  O
  O82      1.0000 0.64546  0.11240  0.14917  Biso   1.000  O
  O83      1.0000 0.60968  0.20220  0.22790  Biso   1.000  O
  O84      1.0000 0.48172  0.72240  0.24500  Biso   1.000  O
  O85      1.0000 0.53997  0.83330  0.20969  Biso   1.000  O
  O86      1.0000 0.44793  0.85290  0.20772  Biso   1.000  O
  O87      1.0000 0.49319  0.85490  0.30180  Biso   1.000  O
  O88      1.0000 0.49728  0.97290  0.15413  Biso   1.000  O
  O89      1.0000 0.54487  0.10190  0.13424  Biso   1.000  O
  O90      1.0000 0.45455  0.10590  0.12811  Biso   1.000  O
  O91      1.0000 0.49401  0.08390  0.22712  Biso   1.000  O
  O92      1.0000 0.60162  0.11220  0.04045  Biso   1.000  O
  O93      1.0000 0.50175  0.12580  0.02355  Biso   1.000  O
  O94      1.0000 0.50238  0.26040  0.10799  Biso   1.000  O
  O95      1.0000 0.44109  0.96890  0.05601  Biso   1.000  O
  O96      1.0000 0.49584  0.83320  0.09959  Biso   1.000  O
  O97      1.0000 0.39631  0.97700  0.17138  Biso   1.000  O
  O98      1.0000 0.55746  0.96120  0.06044  Biso   1.000  O
  O99      1.0000 0.59753  0.96470  0.17769  Biso   1.000  O
  O100     1.0000 0.40150  0.12430  0.03341  Biso   1.000  O
  C25      1.0000 0.27740  0.30120  0.28150  Biso   1.000  C
  H25      1.0000 0.29690  0.33800  0.26120  Biso   1.000  H
  C26      1.0000 0.27860  0.30310  0.34210  Biso   1.000  C
  H26      1.0000 0.29870  0.34030  0.36130  Biso   1.000  H
  C27      1.0000 0.28470  0.28810  0.53280  Biso   1.000  C
  H27      1.0000 0.30920  0.31480  0.55320  Biso   1.000  H
  C28      1.0000 0.28600  0.28960  0.47200  Biso   1.000  C
  H28      1.0000 0.31080  0.31700  0.45260  Biso   1.000  H
  C29      1.0000 0.71640  0.28930  0.28980  Biso   1.000  C
  H29      1.0000 0.69230  0.31700  0.26950  Biso   1.000  H
  C30      1.0000 0.71550  0.29140  0.35060  Biso   1.000  C
  H30      1.0000 0.69140  0.32090  0.36980  Biso   1.000  H
  C31      1.0000 0.71290  0.27930  0.54110  Biso   1.000  C
  H31      1.0000 0.68650  0.30000  0.56150  Biso   1.000  H
  C32      1.0000 0.71170  0.28070  0.48010  Biso   1.000  C
  H32      1.0000 0.68510  0.30220  0.46070  Biso   1.000  H
  Mo25     1.0000 0.95048  0.20101  0.56080  Biso   1.000  Mo
  Mo26     1.0000 0.06681  0.89647  0.62625  Biso   1.000  Mo
  Mo27     1.0000 0.93982  0.88775  0.63049  Biso   1.000  Mo
  Mo28     1.0000 0.11069  0.03223  0.59635  Biso   1.000  Mo
  Mo29     1.0000 0.89007  0.01876  0.60323  Biso   1.000  Mo
  Mo30     1.0000 0.04424  0.20750  0.55656  Biso   1.000  Mo
  P17      1.0000 0.13134  0.21924  0.65679  Biso   1.000  P
  P18      1.0000 0.86649  0.20347  0.66486  Biso   1.000  P
  P19      1.0000 0.00855  0.81402  0.73897  Biso   1.000  P
  P20      1.0000 0.00200  0.06720  0.66044  Biso   1.000  P
  O101     1.0000 0.17663  0.27010  0.65939  Biso   1.000  O
  O102     1.0000 0.09564  0.25490  0.61223  Biso   1.000  O
  O103     1.0000 0.14261  0.12720  0.64485  Biso   1.000  O
  O104     1.0000 0.10565  0.21840  0.71900  Biso   1.000  O
  O105     1.0000 0.82191  0.25570  0.66797  Biso   1.000  O
  O106     1.0000 0.90218  0.24190  0.62150  Biso   1.000  O
  O107     1.0000 0.85454  0.11240  0.64917  Biso   1.000  O
  O108     1.0000 0.89032  0.20220  0.72790  Biso   1.000  O
  O109     1.0000 0.01828  0.72240  0.74500  Biso   1.000  O
  O110     1.0000 0.96003  0.83330  0.70969  Biso   1.000  O
  O111     1.0000 0.05207  0.85290  0.70772  Biso   1.000  O
  O112     1.0000 0.00681  0.85490  0.80180  Biso   1.000  O
  O113     1.0000 0.00272  0.97290  0.65413  Biso   1.000  O
  O114     1.0000 0.95513  0.10190  0.63424  Biso   1.000  O
  O115     1.0000 0.04545  0.10590  0.62811  Biso   1.000  O
  O116     1.0000 0.00599  0.08390  0.72712  Biso   1.000  O
  O117     1.0000 0.89838  0.11220  0.54045  Biso   1.000  O
  O118     1.0000 0.99825  0.12580  0.52355  Biso   1.000  O
  O119     1.0000 0.99762  0.26040  0.60799  Biso   1.000  O
  O120     1.0000 0.05891  0.96890  0.55601  Biso   1.000  O
  O121     1.0000 0.00416  0.83320  0.59959  Biso   1.000  O
  O122     1.0000 0.10369  0.97700  0.67138  Biso   1.000  O
  O123     1.0000 0.94254  0.96120  0.56044  Biso   1.000  O
  O124     1.0000 0.90247  0.96470  0.67769  Biso   1.000  O
  O125     1.0000 0.09850  0.12430  0.53341  Biso   1.000  O
  C33      1.0000 0.22260  0.30120  0.78150  Biso   1.000  C
  H33      1.0000 0.20310  0.33800  0.76120  Biso   1.000  H
  C34      1.0000 0.22140  0.30310  0.84210  Biso   1.000  C
  H34      1.0000 0.20130  0.34030  0.86130  Biso   1.000  H
  C35      1.0000 0.21530  0.28810  0.03280  Biso   1.000  C
  H35      1.0000 0.19080  0.31480  0.05320  Biso   1.000  H
  C36      1.0000 0.21400  0.28960  0.97200  Biso   1.000  C
  H36      1.0000 0.18920  0.31700  0.95260  Biso   1.000  H
  C37      1.0000 0.78360  0.28930  0.78980  Biso   1.000  C
  H37      1.0000 0.80770  0.31700  0.76950  Biso   1.000  H
  C38      1.0000 0.78450  0.29140  0.85060  Biso   1.000  C
  H38      1.0000 0.80860  0.32090  0.86980  Biso   1.000  H
  C39      1.0000 0.78710  0.27930  0.04110  Biso   1.000  C
  H39      1.0000 0.81350  0.30000  0.06150  Biso   1.000  H
  C40      1.0000 0.78830  0.28070  0.98010  Biso   1.000  C
  H40      1.0000 0.81490  0.30220  0.96070  Biso   1.000  H
  Mo31     1.0000 0.54952  0.29899  0.56080  Biso   1.000  Mo
  Mo32     1.0000 0.43319  0.60353  0.62625  Biso   1.000  Mo
  Mo33     1.0000 0.56018  0.61225  0.63049  Biso   1.000  Mo
  Mo34     1.0000 0.38931  0.46777  0.59635  Biso   1.000  Mo
  Mo35     1.0000 0.60993  0.48124  0.60323  Biso   1.000  Mo
  Mo36     1.0000 0.45576  0.29250  0.55656  Biso   1.000  Mo
  P21      1.0000 0.36866  0.28076  0.65679  Biso   1.000  P
  P22      1.0000 0.63351  0.29653  0.66486  Biso   1.000  P
  P23      1.0000 0.49145  0.68598  0.73897  Biso   1.000  P
  P24      1.0000 0.49800  0.43280  0.66044  Biso   1.000  P
  O126     1.0000 0.32337  0.22990  0.65939  Biso   1.000  O
  O127     1.0000 0.40436  0.24510  0.61223  Biso   1.000  O
  O128     1.0000 0.35739  0.37280  0.64485  Biso   1.000  O
  O129     1.0000 0.39435  0.28160  0.71900  Biso   1.000  O
  O130     1.0000 0.67809  0.24430  0.66797  Biso   1.000  O
  O131     1.0000 0.59782  0.25810  0.62150  Biso   1.000  O
  O132     1.0000 0.64546  0.38760  0.64917  Biso   1.000  O
  O133     1.0000 0.60968  0.29780  0.72790  Biso   1.000  O
  O134     1.0000 0.48172  0.77760  0.74500  Biso   1.000  O
  O135     1.0000 0.53997  0.66670  0.70969  Biso   1.000  O
  O136     1.0000 0.44793  0.64710  0.70772  Biso   1.000  O
  O137     1.0000 0.49319  0.64510  0.80180  Biso   1.000  O
  O138     1.0000 0.49728  0.52710  0.65413  Biso   1.000  O
  O139     1.0000 0.54487  0.39810  0.63424  Biso   1.000  O
  O140     1.0000 0.45455  0.39410  0.62811  Biso   1.000  O
  O141     1.0000 0.49401  0.41610  0.72712  Biso   1.000  O
  O142     1.0000 0.60162  0.38780  0.54045  Biso   1.000  O
  O143     1.0000 0.50175  0.37420  0.52355  Biso   1.000  O
  O144     1.0000 0.50238  0.23960  0.60799  Biso   1.000  O
  O145     1.0000 0.44109  0.53110  0.55601  Biso   1.000  O
  O146     1.0000 0.49584  0.66680  0.59959  Biso   1.000  O
  O147     1.0000 0.39631  0.52300  0.67138  Biso   1.000  O
  O148     1.0000 0.55746  0.53880  0.56044  Biso   1.000  O
  O149     1.0000 0.59753  0.53530  0.67769  Biso   1.000  O
  O150     1.0000 0.40150  0.37570  0.53341  Biso   1.000  O
  C41      1.0000 0.27740  0.19880  0.78150  Biso   1.000  C
  H41      1.0000 0.29690  0.16200  0.76120  Biso   1.000  H
  C42      1.0000 0.27860  0.19690  0.84210  Biso   1.000  C
  H42      1.0000 0.29870  0.15970  0.86130  Biso   1.000  H
  C43      1.0000 0.28470  0.21190  0.03280  Biso   1.000  C
  H43      1.0000 0.30920  0.18520  0.05320  Biso   1.000  H
  C44      1.0000 0.28600  0.21040  0.97200  Biso   1.000  C
  H44      1.0000 0.31080  0.18300  0.95260  Biso   1.000  H
  C45      1.0000 0.71640  0.21070  0.78980  Biso   1.000  C
  H45      1.0000 0.69230  0.18300  0.76950  Biso   1.000  H
  C46      1.0000 0.71550  0.20860  0.85060  Biso   1.000  C
  H46      1.0000 0.69140  0.17910  0.86980  Biso   1.000  H
  C47      1.0000 0.71290  0.22070  0.04110  Biso   1.000  C
  H47      1.0000 0.68650  0.20000  0.06150  Biso   1.000  H
  C48      1.0000 0.71170  0.21930  0.98010  Biso   1.000  C
  H48      1.0000 0.68510  0.19780  0.96070  Biso   1.000  H
  Mo37     1.0000 0.04952  0.70101  0.93920  Biso   1.000  Mo
  Mo38     1.0000 0.93319  0.39647  0.87375  Biso   1.000  Mo
  Mo39     1.0000 0.06018  0.38775  0.86951  Biso   1.000  Mo
  Mo40     1.0000 0.88931  0.53223  0.90365  Biso   1.000  Mo
  Mo41     1.0000 0.10993  0.51876  0.89677  Biso   1.000  Mo
  Mo42     1.0000 0.95576  0.70750  0.94344  Biso   1.000  Mo
  P25      1.0000 0.86866  0.71924  0.84321  Biso   1.000  P
  P26      1.0000 0.13351  0.70347  0.83514  Biso   1.000  P
  P27      1.0000 0.99145  0.31402  0.76103  Biso   1.000  P
  P28      1.0000 0.99800  0.56720  0.83956  Biso   1.000  P
  O151     1.0000 0.82337  0.77010  0.84061  Biso   1.000  O
  O152     1.0000 0.90436  0.75490  0.88777  Biso   1.000  O
  O153     1.0000 0.85739  0.62720  0.85515  Biso   1.000  O
  O154     1.0000 0.89435  0.71840  0.78100  Biso   1.000  O
  O155     1.0000 0.17809  0.75570  0.83203  Biso   1.000  O
  O156     1.0000 0.09782  0.74190  0.87850  Biso   1.000  O
  O157     1.0000 0.14546  0.61240  0.85083  Biso   1.000  O
  O158     1.0000 0.10968  0.70220  0.77210  Biso   1.000  O
  O159     1.0000 0.98172  0.22240  0.75500  Biso   1.000  O
  O160     1.0000 0.03997  0.33330  0.79031  Biso   1.000  O
  O161     1.0000 0.94793  0.35290  0.79228  Biso   1.000  O
  O162     1.0000 0.99319  0.35490  0.69820  Biso   1.000  O
  O163     1.0000 0.99728  0.47290  0.84587  Biso   1.000  O
  O164     1.0000 0.04487  0.60190  0.86576  Biso   1.000  O
  O165     1.0000 0.95455  0.60590  0.87189  Biso   1.000  O
  O166     1.0000 0.99401  0.58390  0.77288  Biso   1.000  O
  O167     1.0000 0.10162  0.61220  0.95955  Biso   1.000  O
  O168     1.0000 0.00175  0.62580  0.97645  Biso   1.000  O
  O169     1.0000 0.00238  0.76040  0.89201  Biso   1.000  O
  O170     1.0000 0.94109  0.46890  0.94399  Biso   1.000  O
  O171     1.0000 0.99584  0.33320  0.90041  Biso   1.000  O
  O172     1.0000 0.89631  0.47700  0.82862  Biso   1.000  O
  O173     1.0000 0.05746  0.46120  0.93956  Biso   1.000  O
  O174     1.0000 0.09753  0.46470  0.82231  Biso   1.000  O
  O175     1.0000 0.90150  0.62430  0.96659  Biso   1.000  O
  C49      1.0000 0.77740  0.80120  0.71850  Biso   1.000  C
  H49      1.0000 0.79690  0.83800  0.73880  Biso   1.000  H
  C50      1.0000 0.77860  0.80310  0.65790  Biso   1.000  C
  H50      1.0000 0.79870  0.84030  0.63870  Biso   1.000  H
  C51      1.0000 0.78470  0.78810  0.46720  Biso   1.000  C
  H51      1.0000 0.80920  0.81480  0.44680  Biso   1.000  H
  C52      1.0000 0.78600  0.78960  0.52800  Biso   1.000  C
  H52      1.0000 0.81080  0.81700  0.54740  Biso   1.000  H
  C53      1.0000 0.21640  0.78930  0.71020  Biso   1.000  C
  H53      1.0000 0.19230  0.81700  0.73050  Biso   1.000  H
  C54      1.0000 0.21550  0.79140  0.64940  Biso   1.000  C
  H54      1.0000 0.19140  0.82090  0.63020  Biso   1.000  H
  C55      1.0000 0.21290  0.77930  0.45890  Biso   1.000  C
  H55      1.0000 0.18650  0.80000  0.43850  Biso   1.000  H
  C56      1.0000 0.21170  0.78070  0.51990  Biso   1.000  C
  H56      1.0000 0.18510  0.80220  0.53930  Biso   1.000  H
  Mo43     1.0000 0.45048  0.79899  0.93920  Biso   1.000  Mo
  Mo44     1.0000 0.56681  0.10353  0.87375  Biso   1.000  Mo
  Mo45     1.0000 0.43982  0.11225  0.86951  Biso   1.000  Mo
  Mo46     1.0000 0.61069  0.96777  0.90365  Biso   1.000  Mo
  Mo47     1.0000 0.39007  0.98124  0.89677  Biso   1.000  Mo
  Mo48     1.0000 0.54424  0.79250  0.94344  Biso   1.000  Mo
  P29      1.0000 0.63134  0.78076  0.84321  Biso   1.000  P
  P30      1.0000 0.36649  0.79653  0.83514  Biso   1.000  P
  P31      1.0000 0.50855  0.18598  0.76103  Biso   1.000  P
  P32      1.0000 0.50200  0.93280  0.83956  Biso   1.000  P
  O176     1.0000 0.67663  0.72990  0.84061  Biso   1.000  O
  O177     1.0000 0.59564  0.74510  0.88777  Biso   1.000  O
  O178     1.0000 0.64261  0.87280  0.85515  Biso   1.000  O
  O179     1.0000 0.60565  0.78160  0.78100  Biso   1.000  O
  O180     1.0000 0.32191  0.74430  0.83203  Biso   1.000  O
  O181     1.0000 0.40218  0.75810  0.87850  Biso   1.000  O
  O182     1.0000 0.35454  0.88760  0.85083  Biso   1.000  O
  O183     1.0000 0.39032  0.79780  0.77210  Biso   1.000  O
  O184     1.0000 0.51828  0.27760  0.75500  Biso   1.000  O
  O185     1.0000 0.46003  0.16670  0.79031  Biso   1.000  O
  O186     1.0000 0.55207  0.14710  0.79228  Biso   1.000  O
  O187     1.0000 0.50681  0.14510  0.69820  Biso   1.000  O
  O188     1.0000 0.50272  0.02710  0.84587  Biso   1.000  O
  O189     1.0000 0.45513  0.89810  0.86576  Biso   1.000  O
  O190     1.0000 0.54545  0.89410  0.87189  Biso   1.000  O
  O191     1.0000 0.50599  0.91610  0.77288  Biso   1.000  O
  O192     1.0000 0.39838  0.88780  0.95955  Biso   1.000  O
  O193     1.0000 0.49825  0.87420  0.97645  Biso   1.000  O
  O194     1.0000 0.49762  0.73960  0.89201  Biso   1.000  O
  O195     1.0000 0.55891  0.03110  0.94399  Biso   1.000  O
  O196     1.0000 0.50416  0.16680  0.90041  Biso   1.000  O
  O197     1.0000 0.60369  0.02300  0.82862  Biso   1.000  O
  O198     1.0000 0.44254  0.03880  0.93956  Biso   1.000  O
  O199     1.0000 0.40247  0.03530  0.82231  Biso   1.000  O
  O200     1.0000 0.59850  0.87570  0.96659  Biso   1.000  O
  C57      1.0000 0.72260  0.69880  0.71850  Biso   1.000  C
  H57      1.0000 0.70310  0.66200  0.73880  Biso   1.000  H
  C58      1.0000 0.72140  0.69690  0.65790  Biso   1.000  C
  H58      1.0000 0.70130  0.65970  0.63870  Biso   1.000  H
  C59      1.0000 0.71530  0.71190  0.46720  Biso   1.000  C
  H59      1.0000 0.69080  0.68520  0.44680  Biso   1.000  H
  C60      1.0000 0.71400  0.71040  0.52800  Biso   1.000  C
  H60      1.0000 0.68920  0.68300  0.54740  Biso   1.000  H
  C61      1.0000 0.28360  0.71070  0.71020  Biso   1.000  C
  H61      1.0000 0.30770  0.68300  0.73050  Biso   1.000  H
  C62      1.0000 0.28450  0.70860  0.64940  Biso   1.000  C
  H62      1.0000 0.30860  0.67910  0.63020  Biso   1.000  H
  C63      1.0000 0.28710  0.72070  0.45890  Biso   1.000  C
  H63      1.0000 0.31350  0.70000  0.43850  Biso   1.000  H
  C64      1.0000 0.28830  0.71930  0.51990  Biso   1.000  C
  H64      1.0000 0.31490  0.69780  0.53930  Biso   1.000  H
  Ni1      1.0000 0.00000  0.00000  0.50000  Biso   1.000  Ni
  Ni2      1.0000 0.50000  0.50000  0.50000  Biso   1.000  Ni
  Ni3      1.0000 0.00000  0.50000  0.00000  Biso   1.000  Ni
  Ni4      1.0000 0.50000  0.00000  0.00000  Biso   1.000  Ni
  Ni5      1.0000 0.75000  0.75000  0.34202  Biso   1.000  Ni
  N1       1.0000 0.75000  0.75000  0.24920  Biso   1.000  N
  N2       1.0000 0.75000  0.75000  0.93630  Biso   1.000  N
  C65      1.0000 0.75000  0.75000  0.12560  Biso   1.000  C
  C66      1.0000 0.75000  0.75000  0.06000  Biso   1.000  C
  Ni6      1.0000 0.25000  0.25000  0.15798  Biso   1.000  Ni
  N3       1.0000 0.25000  0.25000  0.25080  Biso   1.000  N
  N4       1.0000 0.25000  0.25000  0.56370  Biso   1.000  N
  C67      1.0000 0.25000  0.25000  0.37440  Biso   1.000  C
  C68      1.0000 0.25000  0.25000  0.44000  Biso   1.000  C
  Ni7      1.0000 0.25000  0.25000  0.65798  Biso   1.000  Ni
  N5       1.0000 0.25000  0.25000  0.75080  Biso   1.000  N
  N6       1.0000 0.25000  0.25000  0.06370  Biso   1.000  N
  C69      1.0000 0.25000  0.25000  0.87440  Biso   1.000  C
  C70      1.0000 0.25000  0.25000  0.94000  Biso   1.000  C
  Ni8      1.0000 0.75000  0.75000  0.84202  Biso   1.000  Ni
  N7       1.0000 0.75000  0.75000  0.74920  Biso   1.000  N
  N8       1.0000 0.75000  0.75000  0.43630  Biso   1.000  N
  C71      1.0000 0.75000  0.75000  0.62560  Biso   1.000  C
  C72      1.0000 0.75000  0.75000  0.56000  Biso   1.000  C
  Ni9      1.0000 0.25000  0.75000  0.33384  Biso   1.000  Ni
  N9       1.0000 0.25000  0.75000  0.24090  Biso   1.000  N
  N10      1.0000 0.25000  0.75000  0.92840  Biso   1.000  N
  C73      1.0000 0.25000  0.75000  0.11730  Biso   1.000  C
  C74      1.0000 0.25000  0.75000  0.05110  Biso   1.000  C
  Ni10     1.0000 0.75000  0.25000  0.16616  Biso   1.000  Ni
  N11      1.0000 0.75000  0.25000  0.25910  Biso   1.000  N
  N12      1.0000 0.75000  0.25000  0.57160  Biso   1.000  N
  C75      1.0000 0.75000  0.25000  0.38270  Biso   1.000  C
  C76      1.0000 0.75000  0.25000  0.44890  Biso   1.000  C
  Ni11     1.0000 0.75000  0.25000  0.66616  Biso   1.000  Ni
  N13      1.0000 0.75000  0.25000  0.75910  Biso   1.000  N
  N14      1.0000 0.75000  0.25000  0.07160  Biso   1.000  N
  C77      1.0000 0.75000  0.25000  0.88270  Biso   1.000  C
  C78      1.0000 0.75000  0.25000  0.94890  Biso   1.000  C
  Ni12     1.0000 0.25000  0.75000  0.83384  Biso   1.000  Ni
  N15      1.0000 0.25000  0.75000  0.74090  Biso   1.000  N
  N16      1.0000 0.25000  0.75000  0.42840  Biso   1.000  N
  C79      1.0000 0.25000  0.75000  0.61730  Biso   1.000  C
  C80      1.0000 0.25000  0.75000  0.55110  Biso   1.000  C
