data_image0
_cell_length_a       14.8952
_cell_length_b       9.7133
_cell_length_c       13.6878
_cell_angle_alpha    90
_cell_angle_beta     90
_cell_angle_gamma    90

_symmetry_space_group_name_H-M    "P 1"
_symmetry_int_tables_number       1

loop_
  _symmetry_equiv_pos_as_xyz
  'x, y, z'

loop_
  _atom_site_label
  _atom_site_occupancy
  _atom_site_fract_x
  _atom_site_fract_y
  _atom_site_fract_z
  _atom_site_thermal_displace_type
  _atom_site_B_iso_or_equiv
  _atom_site_type_symbol
  O1       1.0000 0.08541  0.30404  0.36939  Biso   1.000  O
  O2       1.0000 0.10816  0.14201  0.65694  Biso   1.000  O
  O3       1.0000 0.58541  0.80404  0.36939  Biso   1.000  O
  O4       1.0000 0.60816  0.64201  0.65694  Biso   1.000  O
  O5       1.0000 0.91459  0.69596  0.86939  Biso   1.000  O
  O6       1.0000 0.89184  0.85799  0.15694  Biso   1.000  O
  O7       1.0000 0.41459  0.19596  0.86939  Biso   1.000  O
  O8       1.0000 0.39184  0.35799  0.15694  Biso   1.000  O
  O9       1.0000 0.91459  0.30404  0.13061  Biso   1.000  O
  O10      1.0000 0.89184  0.14201  0.84306  Biso   1.000  O
  O11      1.0000 0.41459  0.80404  0.13061  Biso   1.000  O
  O12      1.0000 0.39184  0.64201  0.84306  Biso   1.000  O
  O13      1.0000 0.08541  0.69596  0.63061  Biso   1.000  O
  O14      1.0000 0.10816  0.85799  0.34306  Biso   1.000  O
  O15      1.0000 0.58541  0.19596  0.63061  Biso   1.000  O
  O16      1.0000 0.60816  0.35799  0.34306  Biso   1.000  O
  O17      1.0000 0.91459  0.69596  0.63061  Biso   1.000  O
  O18      1.0000 0.89184  0.85799  0.34306  Biso   1.000  O
  O19      1.0000 0.41459  0.19596  0.63061  Biso   1.000  O
  O20      1.0000 0.39184  0.35799  0.34306  Biso   1.000  O
  O21      1.0000 0.08541  0.30404  0.13061  Biso   1.000  O
  O22      1.0000 0.10816  0.14201  0.84306  Biso   1.000  O
  O23      1.0000 0.58541  0.80404  0.13061  Biso   1.000  O
  O24      1.0000 0.60816  0.64201  0.84306  Biso   1.000  O
  O25      1.0000 0.08541  0.69596  0.86939  Biso   1.000  O
  O26      1.0000 0.10816  0.85799  0.15694  Biso   1.000  O
  O27      1.0000 0.58541  0.19596  0.86939  Biso   1.000  O
  O28      1.0000 0.60816  0.35799  0.15694  Biso   1.000  O
  O29      1.0000 0.91459  0.30404  0.36939  Biso   1.000  O
  O30      1.0000 0.89184  0.14201  0.65694  Biso   1.000  O
  O31      1.0000 0.41459  0.80404  0.36939  Biso   1.000  O
  O32      1.0000 0.39184  0.64201  0.65694  Biso   1.000  O
  Co1      1.0000 0.00000  0.04940  0.61247  Biso   1.000  Co
  P1       1.0000 0.00000  0.27469  0.42756  Biso   1.000  P
  O33      1.0000 0.00000  0.12570  0.46554  Biso   1.000  O
  O34      1.0000 0.00000  0.37130  0.51825  Biso   1.000  O
  Co2      1.0000 0.50000  0.54940  0.61247  Biso   1.000  Co
  P2       1.0000 0.50000  0.77469  0.42756  Biso   1.000  P
  O35      1.0000 0.50000  0.62570  0.46554  Biso   1.000  O
  O36      1.0000 0.50000  0.87130  0.51825  Biso   1.000  O
  Co3      1.0000 0.00000  0.95060  0.11247  Biso   1.000  Co
  P3       1.0000 0.00000  0.72531  0.92756  Biso   1.000  P
  O37      1.0000 0.00000  0.87430  0.96554  Biso   1.000  O
  O38      1.0000 0.00000  0.62870  0.01825  Biso   1.000  O
  Co4      1.0000 0.50000  0.45060  0.11247  Biso   1.000  Co
  P4       1.0000 0.50000  0.22531  0.92756  Biso   1.000  P
  O39      1.0000 0.50000  0.37430  0.96554  Biso   1.000  O
  O40      1.0000 0.50000  0.12870  0.01825  Biso   1.000  O
  Co5      1.0000 0.00000  0.04940  0.88753  Biso   1.000  Co
  P5       1.0000 0.00000  0.27469  0.07244  Biso   1.000  P
  O41      1.0000 0.00000  0.12570  0.03446  Biso   1.000  O
  O42      1.0000 0.00000  0.37130  0.98175  Biso   1.000  O
  Co6      1.0000 0.50000  0.54940  0.88753  Biso   1.000  Co
  P6       1.0000 0.50000  0.77469  0.07244  Biso   1.000  P
  O43      1.0000 0.50000  0.62570  0.03446  Biso   1.000  O
  O44      1.0000 0.50000  0.87130  0.98175  Biso   1.000  O
  Co7      1.0000 0.00000  0.95060  0.38753  Biso   1.000  Co
  P7       1.0000 0.00000  0.72531  0.57244  Biso   1.000  P
  O45      1.0000 0.00000  0.87430  0.53446  Biso   1.000  O
  O46      1.0000 0.00000  0.62870  0.48175  Biso   1.000  O
  Co8      1.0000 0.50000  0.45060  0.38753  Biso   1.000  Co
  P8       1.0000 0.50000  0.22531  0.57244  Biso   1.000  P
  O47      1.0000 0.50000  0.37430  0.53446  Biso   1.000  O
  O48      1.0000 0.50000  0.12870  0.48175  Biso   1.000  O
  Co9      1.0000 0.12905  0.21451  0.25000  Biso   1.000  Co
  Co10     1.0000 0.62905  0.71451  0.25000  Biso   1.000  Co
  Co11     1.0000 0.87095  0.78549  0.75000  Biso   1.000  Co
  Co12     1.0000 0.37095  0.28549  0.75000  Biso   1.000  Co
  Co13     1.0000 0.87095  0.21451  0.25000  Biso   1.000  Co
  Co14     1.0000 0.37095  0.71451  0.25000  Biso   1.000  Co
  Co15     1.0000 0.12905  0.78549  0.75000  Biso   1.000  Co
  Co16     1.0000 0.62905  0.28549  0.75000  Biso   1.000  Co
  P9       1.0000 0.16276  0.11257  0.75000  Biso   1.000  P
  O49      1.0000 0.19329  0.96090  0.75000  Biso   1.000  O
  O50      1.0000 0.24514  0.20390  0.75000  Biso   1.000  O
  P10      1.0000 0.66276  0.61257  0.75000  Biso   1.000  P
  O51      1.0000 0.69329  0.46090  0.75000  Biso   1.000  O
  O52      1.0000 0.74514  0.70390  0.75000  Biso   1.000  O
  P11      1.0000 0.83724  0.88743  0.25000  Biso   1.000  P
  O53      1.0000 0.80671  0.03910  0.25000  Biso   1.000  O
  O54      1.0000 0.75486  0.79610  0.25000  Biso   1.000  O
  P12      1.0000 0.33724  0.38743  0.25000  Biso   1.000  P
  O55      1.0000 0.30671  0.53910  0.25000  Biso   1.000  O
  O56      1.0000 0.25486  0.29610  0.25000  Biso   1.000  O
  P13      1.0000 0.83724  0.11257  0.75000  Biso   1.000  P
  O57      1.0000 0.80671  0.96090  0.75000  Biso   1.000  O
  O58      1.0000 0.75486  0.20390  0.75000  Biso   1.000  O
  P14      1.0000 0.33724  0.61257  0.75000  Biso   1.000  P
  O59      1.0000 0.30671  0.46090  0.75000  Biso   1.000  O
  O60      1.0000 0.25486  0.70390  0.75000  Biso   1.000  O
  P15      1.0000 0.16276  0.88743  0.25000  Biso   1.000  P
  O61      1.0000 0.19329  0.03910  0.25000  Biso   1.000  O
  O62      1.0000 0.24514  0.79610  0.25000  Biso   1.000  O
  P16      1.0000 0.66276  0.38743  0.25000  Biso   1.000  P
  O63      1.0000 0.69329  0.53910  0.25000  Biso   1.000  O
  O64      1.0000 0.74514  0.29610  0.25000  Biso   1.000  O
