data_image0
_cell_length_a       17.124
_cell_length_b       17.124
_cell_length_c       14.724
_cell_angle_alpha    90
_cell_angle_beta     90
_cell_angle_gamma    90

_symmetry_space_group_name_H-M    "P 1"
_symmetry_int_tables_number       1

loop_
  _symmetry_equiv_pos_as_xyz
  'x, y, z'

loop_
  _atom_site_label
  _atom_site_occupancy
  _atom_site_fract_x
  _atom_site_fract_y
  _atom_site_fract_z
  _atom_site_thermal_displace_type
  _atom_site_B_iso_or_equiv
  _atom_site_type_symbol
  V1       1.0000 0.06438  0.07189  0.77040  Biso   1.000  V
  V2       1.0000 0.96989  0.81246  0.91410  Biso   1.000  V
  V3       1.0000 0.18314  0.05149  0.91155  Biso   1.000  V
  V4       1.0000 0.12228  0.89045  0.87366  Biso   1.000  V
  O1       1.0000 0.11910  0.13520  0.87840  Biso   1.000  O
  O2       1.0000 0.18211  0.83371  0.81860  Biso   1.000  O
  O3       1.0000 0.12810  0.99370  0.82050  Biso   1.000  O
  O4       1.0000 0.07550  0.82345  0.96360  Biso   1.000  O
  O5       1.0000 0.02030  0.87300  0.82040  Biso   1.000  O
  O6       1.0000 0.18630  0.94460  0.96190  Biso   1.000  O
  N1       1.0000 0.22220  0.66090  0.84080  Biso   1.000  N
  N2       1.0000 0.21270  0.35090  0.15770  Biso   1.000  N
  C1       1.0000 0.19470  0.67260  0.92500  Biso   1.000  C
  H1       1.0000 0.17890  0.72260  0.94160  Biso   1.000  H
  C2       1.0000 0.24020  0.58770  0.81700  Biso   1.000  C
  H2       1.0000 0.25720  0.57850  0.75790  Biso   1.000  H
  C3       1.0000 0.19500  0.33850  0.07100  Biso   1.000  C
  H3       1.0000 0.18320  0.28780  0.05300  Biso   1.000  H
  C4       1.0000 0.22610  0.42470  0.18260  Biso   1.000  C
  H4       1.0000 0.23750  0.43470  0.24330  Biso   1.000  H
  C5       1.0000 0.22410  0.48690  0.12330  Biso   1.000  C
  H5       1.0000 0.23300  0.53750  0.14390  Biso   1.000  H
  C6       1.0000 0.23470  0.52500  0.87540  Biso   1.000  C
  H6       1.0000 0.24730  0.47500  0.85580  Biso   1.000  H
  C7       1.0000 0.19310  0.39670  0.00650  Biso   1.000  C
  H7       1.0000 0.18170  0.38490  0.94620  Biso   1.000  H
  C8       1.0000 0.20830  0.47280  0.03230  Biso   1.000  C
  C9       1.0000 0.20990  0.53790  0.96460  Biso   1.000  C
  C10      1.0000 0.18900  0.61360  0.98770  Biso   1.000  C
  H8       1.0000 0.17110  0.62440  0.04600  Biso   1.000  H
  V5       1.0000 0.93562  0.92811  0.77040  Biso   1.000  V
  V6       1.0000 0.03011  0.18754  0.91410  Biso   1.000  V
  V7       1.0000 0.81686  0.94851  0.91155  Biso   1.000  V
  V8       1.0000 0.87772  0.10955  0.87366  Biso   1.000  V
  O7       1.0000 0.88090  0.86480  0.87840  Biso   1.000  O
  O8       1.0000 0.81789  0.16629  0.81860  Biso   1.000  O
  O9       1.0000 0.87190  0.00630  0.82050  Biso   1.000  O
  O10      1.0000 0.92450  0.17655  0.96360  Biso   1.000  O
  O11      1.0000 0.97970  0.12700  0.82040  Biso   1.000  O
  O12      1.0000 0.81370  0.05540  0.96190  Biso   1.000  O
  N3       1.0000 0.77780  0.33910  0.84080  Biso   1.000  N
  N4       1.0000 0.78730  0.64910  0.15770  Biso   1.000  N
  C11      1.0000 0.80530  0.32740  0.92500  Biso   1.000  C
  H9       1.0000 0.82110  0.27740  0.94160  Biso   1.000  H
  C12      1.0000 0.75980  0.41230  0.81700  Biso   1.000  C
  H10      1.0000 0.74280  0.42150  0.75790  Biso   1.000  H
  C13      1.0000 0.80500  0.66150  0.07100  Biso   1.000  C
  H11      1.0000 0.81680  0.71220  0.05300  Biso   1.000  H
  C14      1.0000 0.77390  0.57530  0.18260  Biso   1.000  C
  H12      1.0000 0.76250  0.56530  0.24330  Biso   1.000  H
  C15      1.0000 0.77590  0.51310  0.12330  Biso   1.000  C
  H13      1.0000 0.76700  0.46250  0.14390  Biso   1.000  H
  C16      1.0000 0.76530  0.47500  0.87540  Biso   1.000  C
  H14      1.0000 0.75270  0.52500  0.85580  Biso   1.000  H
  C17      1.0000 0.80690  0.60330  0.00650  Biso   1.000  C
  H15      1.0000 0.81830  0.61510  0.94620  Biso   1.000  H
  C18      1.0000 0.79170  0.52720  0.03230  Biso   1.000  C
  C19      1.0000 0.79010  0.46210  0.96460  Biso   1.000  C
  C20      1.0000 0.81100  0.38640  0.98770  Biso   1.000  C
  H16      1.0000 0.82890  0.37560  0.04600  Biso   1.000  H
  V9       1.0000 0.07189  0.93562  0.22960  Biso   1.000  V
  V10      1.0000 0.81246  0.03011  0.08590  Biso   1.000  V
  V11      1.0000 0.05149  0.81686  0.08845  Biso   1.000  V
  V12      1.0000 0.89045  0.87772  0.12634  Biso   1.000  V
  O13      1.0000 0.13520  0.88090  0.12160  Biso   1.000  O
  O14      1.0000 0.83371  0.81789  0.18140  Biso   1.000  O
  O15      1.0000 0.99370  0.87190  0.17950  Biso   1.000  O
  O16      1.0000 0.82345  0.92450  0.03640  Biso   1.000  O
  O17      1.0000 0.87300  0.97970  0.17960  Biso   1.000  O
  O18      1.0000 0.94460  0.81370  0.03810  Biso   1.000  O
  N5       1.0000 0.66090  0.77780  0.15920  Biso   1.000  N
  N6       1.0000 0.35090  0.78730  0.84230  Biso   1.000  N
  C21      1.0000 0.67260  0.80530  0.07500  Biso   1.000  C
  H17      1.0000 0.72260  0.82110  0.05840  Biso   1.000  H
  C22      1.0000 0.58770  0.75980  0.18300  Biso   1.000  C
  H18      1.0000 0.57850  0.74280  0.24210  Biso   1.000  H
  C23      1.0000 0.33850  0.80500  0.92900  Biso   1.000  C
  H19      1.0000 0.28780  0.81680  0.94700  Biso   1.000  H
  C24      1.0000 0.42470  0.77390  0.81740  Biso   1.000  C
  H20      1.0000 0.43470  0.76250  0.75670  Biso   1.000  H
  C25      1.0000 0.48690  0.77590  0.87670  Biso   1.000  C
  H21      1.0000 0.53750  0.76700  0.85610  Biso   1.000  H
  C26      1.0000 0.52500  0.76530  0.12460  Biso   1.000  C
  H22      1.0000 0.47500  0.75270  0.14420  Biso   1.000  H
  C27      1.0000 0.39670  0.80690  0.99350  Biso   1.000  C
  H23      1.0000 0.38490  0.81830  0.05380  Biso   1.000  H
  C28      1.0000 0.47280  0.79170  0.96770  Biso   1.000  C
  C29      1.0000 0.53790  0.79010  0.03540  Biso   1.000  C
  C30      1.0000 0.61360  0.81100  0.01230  Biso   1.000  C
  H24      1.0000 0.62440  0.82890  0.95400  Biso   1.000  H
  V13      1.0000 0.92811  0.06438  0.22960  Biso   1.000  V
  V14      1.0000 0.18754  0.96989  0.08590  Biso   1.000  V
  V15      1.0000 0.94851  0.18314  0.08845  Biso   1.000  V
  V16      1.0000 0.10955  0.12228  0.12634  Biso   1.000  V
  O19      1.0000 0.86480  0.11910  0.12160  Biso   1.000  O
  O20      1.0000 0.16629  0.18211  0.18140  Biso   1.000  O
  O21      1.0000 0.00630  0.12810  0.17950  Biso   1.000  O
  O22      1.0000 0.17655  0.07550  0.03640  Biso   1.000  O
  O23      1.0000 0.12700  0.02030  0.17960  Biso   1.000  O
  O24      1.0000 0.05540  0.18630  0.03810  Biso   1.000  O
  N7       1.0000 0.33910  0.22220  0.15920  Biso   1.000  N
  N8       1.0000 0.64910  0.21270  0.84230  Biso   1.000  N
  C31      1.0000 0.32740  0.19470  0.07500  Biso   1.000  C
  H25      1.0000 0.27740  0.17890  0.05840  Biso   1.000  H
  C32      1.0000 0.41230  0.24020  0.18300  Biso   1.000  C
  H26      1.0000 0.42150  0.25720  0.24210  Biso   1.000  H
  C33      1.0000 0.66150  0.19500  0.92900  Biso   1.000  C
  H27      1.0000 0.71220  0.18320  0.94700  Biso   1.000  H
  C34      1.0000 0.57530  0.22610  0.81740  Biso   1.000  C
  H28      1.0000 0.56530  0.23750  0.75670  Biso   1.000  H
  C35      1.0000 0.51310  0.22410  0.87670  Biso   1.000  C
  H29      1.0000 0.46250  0.23300  0.85610  Biso   1.000  H
  C36      1.0000 0.47500  0.23470  0.12460  Biso   1.000  C
  H30      1.0000 0.52500  0.24730  0.14420  Biso   1.000  H
  C37      1.0000 0.60330  0.19310  0.99350  Biso   1.000  C
  H31      1.0000 0.61510  0.18170  0.05380  Biso   1.000  H
  C38      1.0000 0.52720  0.20830  0.96770  Biso   1.000  C
  C39      1.0000 0.46210  0.20990  0.03540  Biso   1.000  C
  C40      1.0000 0.38640  0.18900  0.01230  Biso   1.000  C
  H32      1.0000 0.37560  0.17110  0.95400  Biso   1.000  H
  V17      1.0000 0.56438  0.42811  0.27040  Biso   1.000  V
  V18      1.0000 0.46989  0.68754  0.41410  Biso   1.000  V
  V19      1.0000 0.68314  0.44851  0.41155  Biso   1.000  V
  V20      1.0000 0.62228  0.60955  0.37366  Biso   1.000  V
  O25      1.0000 0.61910  0.36480  0.37840  Biso   1.000  O
  O26      1.0000 0.68211  0.66629  0.31860  Biso   1.000  O
  O27      1.0000 0.62810  0.50630  0.32050  Biso   1.000  O
  O28      1.0000 0.57550  0.67655  0.46360  Biso   1.000  O
  O29      1.0000 0.52030  0.62700  0.32040  Biso   1.000  O
  O30      1.0000 0.68630  0.55540  0.46190  Biso   1.000  O
  N9       1.0000 0.72220  0.83910  0.34080  Biso   1.000  N
  N10      1.0000 0.71270  0.14910  0.65770  Biso   1.000  N
  C41      1.0000 0.69470  0.82740  0.42500  Biso   1.000  C
  H33      1.0000 0.67890  0.77740  0.44160  Biso   1.000  H
  C42      1.0000 0.74020  0.91230  0.31700  Biso   1.000  C
  H34      1.0000 0.75720  0.92150  0.25790  Biso   1.000  H
  C43      1.0000 0.69500  0.16150  0.57100  Biso   1.000  C
  H35      1.0000 0.68320  0.21220  0.55300  Biso   1.000  H
  C44      1.0000 0.72610  0.07530  0.68260  Biso   1.000  C
  H36      1.0000 0.73750  0.06530  0.74330  Biso   1.000  H
  C45      1.0000 0.72410  0.01310  0.62330  Biso   1.000  C
  H37      1.0000 0.73300  0.96250  0.64390  Biso   1.000  H
  C46      1.0000 0.73470  0.97500  0.37540  Biso   1.000  C
  H38      1.0000 0.74730  0.02500  0.35580  Biso   1.000  H
  C47      1.0000 0.69310  0.10330  0.50650  Biso   1.000  C
  H39      1.0000 0.68170  0.11510  0.44620  Biso   1.000  H
  C48      1.0000 0.70830  0.02720  0.53230  Biso   1.000  C
  C49      1.0000 0.70990  0.96210  0.46460  Biso   1.000  C
  C50      1.0000 0.68900  0.88640  0.48770  Biso   1.000  C
  H40      1.0000 0.67110  0.87560  0.54600  Biso   1.000  H
  V21      1.0000 0.43562  0.57189  0.27040  Biso   1.000  V
  V22      1.0000 0.53011  0.31246  0.41410  Biso   1.000  V
  V23      1.0000 0.31686  0.55149  0.41155  Biso   1.000  V
  V24      1.0000 0.37772  0.39045  0.37366  Biso   1.000  V
  O31      1.0000 0.38090  0.63520  0.37840  Biso   1.000  O
  O32      1.0000 0.31789  0.33371  0.31860  Biso   1.000  O
  O33      1.0000 0.37190  0.49370  0.32050  Biso   1.000  O
  O34      1.0000 0.42450  0.32345  0.46360  Biso   1.000  O
  O35      1.0000 0.47970  0.37300  0.32040  Biso   1.000  O
  O36      1.0000 0.31370  0.44460  0.46190  Biso   1.000  O
  N11      1.0000 0.27780  0.16090  0.34080  Biso   1.000  N
  N12      1.0000 0.28730  0.85090  0.65770  Biso   1.000  N
  C51      1.0000 0.30530  0.17260  0.42500  Biso   1.000  C
  H41      1.0000 0.32110  0.22260  0.44160  Biso   1.000  H
  C52      1.0000 0.25980  0.08770  0.31700  Biso   1.000  C
  H42      1.0000 0.24280  0.07850  0.25790  Biso   1.000  H
  C53      1.0000 0.30500  0.83850  0.57100  Biso   1.000  C
  H43      1.0000 0.31680  0.78780  0.55300  Biso   1.000  H
  C54      1.0000 0.27390  0.92470  0.68260  Biso   1.000  C
  H44      1.0000 0.26250  0.93470  0.74330  Biso   1.000  H
  C55      1.0000 0.27590  0.98690  0.62330  Biso   1.000  C
  H45      1.0000 0.26700  0.03750  0.64390  Biso   1.000  H
  C56      1.0000 0.26530  0.02500  0.37540  Biso   1.000  C
  H46      1.0000 0.25270  0.97500  0.35580  Biso   1.000  H
  C57      1.0000 0.30690  0.89670  0.50650  Biso   1.000  C
  H47      1.0000 0.31830  0.88490  0.44620  Biso   1.000  H
  C58      1.0000 0.29170  0.97280  0.53230  Biso   1.000  C
  C59      1.0000 0.29010  0.03790  0.46460  Biso   1.000  C
  C60      1.0000 0.31100  0.11360  0.48770  Biso   1.000  C
  H48      1.0000 0.32890  0.12440  0.54600  Biso   1.000  H
  V25      1.0000 0.57189  0.56438  0.72960  Biso   1.000  V
  V26      1.0000 0.31246  0.46989  0.58590  Biso   1.000  V
  V27      1.0000 0.55149  0.68314  0.58845  Biso   1.000  V
  V28      1.0000 0.39045  0.62228  0.62634  Biso   1.000  V
  O37      1.0000 0.63520  0.61910  0.62160  Biso   1.000  O
  O38      1.0000 0.33371  0.68211  0.68140  Biso   1.000  O
  O39      1.0000 0.49370  0.62810  0.67950  Biso   1.000  O
  O40      1.0000 0.32345  0.57550  0.53640  Biso   1.000  O
  O41      1.0000 0.37300  0.52030  0.67960  Biso   1.000  O
  O42      1.0000 0.44460  0.68630  0.53810  Biso   1.000  O
  N13      1.0000 0.16090  0.72220  0.65920  Biso   1.000  N
  N14      1.0000 0.85090  0.71270  0.34230  Biso   1.000  N
  C61      1.0000 0.17260  0.69470  0.57500  Biso   1.000  C
  H49      1.0000 0.22260  0.67890  0.55840  Biso   1.000  H
  C62      1.0000 0.08770  0.74020  0.68300  Biso   1.000  C
  H50      1.0000 0.07850  0.75720  0.74210  Biso   1.000  H
  C63      1.0000 0.83850  0.69500  0.42900  Biso   1.000  C
  H51      1.0000 0.78780  0.68320  0.44700  Biso   1.000  H
  C64      1.0000 0.92470  0.72610  0.31740  Biso   1.000  C
  H52      1.0000 0.93470  0.73750  0.25670  Biso   1.000  H
  C65      1.0000 0.98690  0.72410  0.37670  Biso   1.000  C
  H53      1.0000 0.03750  0.73300  0.35610  Biso   1.000  H
  C66      1.0000 0.02500  0.73470  0.62460  Biso   1.000  C
  H54      1.0000 0.97500  0.74730  0.64420  Biso   1.000  H
  C67      1.0000 0.89670  0.69310  0.49350  Biso   1.000  C
  H55      1.0000 0.88490  0.68170  0.55380  Biso   1.000  H
  C68      1.0000 0.97280  0.70830  0.46770  Biso   1.000  C
  C69      1.0000 0.03790  0.70990  0.53540  Biso   1.000  C
  C70      1.0000 0.11360  0.68900  0.51230  Biso   1.000  C
  H56      1.0000 0.12440  0.67110  0.45400  Biso   1.000  H
  V29      1.0000 0.42811  0.43562  0.72960  Biso   1.000  V
  V30      1.0000 0.68754  0.53011  0.58590  Biso   1.000  V
  V31      1.0000 0.44851  0.31686  0.58845  Biso   1.000  V
  V32      1.0000 0.60955  0.37772  0.62634  Biso   1.000  V
  O43      1.0000 0.36480  0.38090  0.62160  Biso   1.000  O
  O44      1.0000 0.66629  0.31789  0.68140  Biso   1.000  O
  O45      1.0000 0.50630  0.37190  0.67950  Biso   1.000  O
  O46      1.0000 0.67655  0.42450  0.53640  Biso   1.000  O
  O47      1.0000 0.62700  0.47970  0.67960  Biso   1.000  O
  O48      1.0000 0.55540  0.31370  0.53810  Biso   1.000  O
  N15      1.0000 0.83910  0.27780  0.65920  Biso   1.000  N
  N16      1.0000 0.14910  0.28730  0.34230  Biso   1.000  N
  C71      1.0000 0.82740  0.30530  0.57500  Biso   1.000  C
  H57      1.0000 0.77740  0.32110  0.55840  Biso   1.000  H
  C72      1.0000 0.91230  0.25980  0.68300  Biso   1.000  C
  H58      1.0000 0.92150  0.24280  0.74210  Biso   1.000  H
  C73      1.0000 0.16150  0.30500  0.42900  Biso   1.000  C
  H59      1.0000 0.21220  0.31680  0.44700  Biso   1.000  H
  C74      1.0000 0.07530  0.27390  0.31740  Biso   1.000  C
  H60      1.0000 0.06530  0.26250  0.25670  Biso   1.000  H
  C75      1.0000 0.01310  0.27590  0.37670  Biso   1.000  C
  H61      1.0000 0.96250  0.26700  0.35610  Biso   1.000  H
  C76      1.0000 0.97500  0.26530  0.62460  Biso   1.000  C
  H62      1.0000 0.02500  0.25270  0.64420  Biso   1.000  H
  C77      1.0000 0.10330  0.30690  0.49350  Biso   1.000  C
  H63      1.0000 0.11510  0.31830  0.55380  Biso   1.000  H
  C78      1.0000 0.02720  0.29170  0.46770  Biso   1.000  C
  C79      1.0000 0.96210  0.29010  0.53540  Biso   1.000  C
  C80      1.0000 0.88640  0.31100  0.51230  Biso   1.000  C
  H64      1.0000 0.87560  0.32890  0.45400  Biso   1.000  H
  O49      1.0000 0.00000  0.00000  0.71580  Biso   1.000  O
  O50      1.0000 0.00000  0.00000  0.79780  Biso   1.000  O
  O51      1.0000 0.00000  0.00000  0.28420  Biso   1.000  O
  O52      1.0000 0.00000  0.00000  0.20220  Biso   1.000  O
  O53      1.0000 0.50000  0.50000  0.21580  Biso   1.000  O
  O54      1.0000 0.50000  0.50000  0.29780  Biso   1.000  O
  O55      1.0000 0.50000  0.50000  0.78420  Biso   1.000  O
  O56      1.0000 0.50000  0.50000  0.70220  Biso   1.000  O
  Zn1      1.0000 0.25571  0.75571  0.75000  Biso   1.000  Zn
  Zn2      1.0000 0.74429  0.24429  0.75000  Biso   1.000  Zn
  Zn3      1.0000 0.75571  0.74429  0.25000  Biso   1.000  Zn
  Zn4      1.0000 0.24429  0.25571  0.25000  Biso   1.000  Zn
