data_image0
_cell_length_a       24.0569
_cell_length_b       16.084
_cell_length_c       16.5679
_cell_angle_alpha    90
_cell_angle_beta     132.762
_cell_angle_gamma    90

_symmetry_space_group_name_H-M    "P 1"
_symmetry_int_tables_number       1

loop_
  _symmetry_equiv_pos_as_xyz
  'x, y, z'

loop_
  _atom_site_label
  _atom_site_occupancy
  _atom_site_fract_x
  _atom_site_fract_y
  _atom_site_fract_z
  _atom_site_thermal_displace_type
  _atom_site_B_iso_or_equiv
  _atom_site_type_symbol
  C1       1.0000 0.00870  0.85610  0.35830  Biso   1.000  C
  H1       1.0000 0.05760  0.84660  0.42870  Biso   1.000  H
  C2       1.0000 0.98560  0.80590  0.27360  Biso   1.000  C
  H2       1.0000 0.01730  0.76260  0.28550  Biso   1.000  H
  C3       1.0000 0.91460  0.81970  0.16950  Biso   1.000  C
  C4       1.0000 0.87110  0.88330  0.15740  Biso   1.000  C
  H3       1.0000 0.82280  0.89560  0.08750  Biso   1.000  H
  C5       1.0000 0.89930  0.92900  0.24920  Biso   1.000  C
  H4       1.0000 0.86830  0.97150  0.24080  Biso   1.000  H
  C6       1.0000 0.03690  0.67780  0.10890  Biso   1.000  C
  H5       1.0000 0.08800  0.68910  0.14510  Biso   1.000  H
  C7       1.0000 0.00030  0.73550  0.11840  Biso   1.000  C
  H6       1.0000 0.02440  0.78610  0.15690  Biso   1.000  H
  C8       1.0000 0.92580  0.71820  0.06960  Biso   1.000  C
  C9       1.0000 0.89260  0.64500  0.00740  Biso   1.000  C
  H7       1.0000 0.84130  0.63230  0.96920  Biso   1.000  H
  C10      1.0000 0.93460  0.59200  0.00210  Biso   1.000  C
  H8       1.0000 0.91110  0.54240  0.96040  Biso   1.000  H
  C11      1.0000 0.95080  0.15040  0.34470  Biso   1.000  C
  H9       1.0000 0.99710  0.13790  0.36370  Biso   1.000  H
  C12      1.0000 0.91010  0.21960  0.27990  Biso   1.000  C
  H10      1.0000 0.92830  0.25330  0.25480  Biso   1.000  H
  C13      1.0000 0.84260  0.23930  0.25180  Biso   1.000  C
  C14      1.0000 0.81850  0.18690  0.28990  Biso   1.000  C
  H11      1.0000 0.77270  0.19780  0.27270  Biso   1.000  H
  C15      1.0000 0.86140  0.12020  0.35170  Biso   1.000  C
  H12      1.0000 0.84320  0.08490  0.37540  Biso   1.000  H
  C16      1.0000 0.64140  0.44550  0.02050  Biso   1.000  C
  H13      1.0000 0.61950  0.48390  0.96210  Biso   1.000  H
  C17      1.0000 0.70560  0.40400  0.05940  Biso   1.000  C
  H14      1.0000 0.72660  0.41340  0.02800  Biso   1.000  H
  C18      1.0000 0.73960  0.34740  0.14680  Biso   1.000  C
  C19      1.0000 0.70620  0.33840  0.18920  Biso   1.000  C
  H15      1.0000 0.72710  0.30220  0.24930  Biso   1.000  H
  C20      1.0000 0.64170  0.38400  0.14090  Biso   1.000  C
  H16      1.0000 0.61960  0.37680  0.17090  Biso   1.000  H
  C21      1.0000 0.19610  0.57200  0.04870  Biso   1.000  C
  H17      1.0000 0.22620  0.52670  0.09620  Biso   1.000  H
  C22      1.0000 0.22350  0.62000  0.01260  Biso   1.000  C
  H18      1.0000 0.27020  0.60700  0.03310  Biso   1.000  H
  C23      1.0000 0.18010  0.68820  0.94490  Biso   1.000  C
  C24      1.0000 0.11330  0.70400  0.91930  Biso   1.000  C
  H19      1.0000 0.08340  0.75080  0.87520  Biso   1.000  H
  C25      1.0000 0.09010  0.65260  0.95730  Biso   1.000  C
  H20      1.0000 0.04360  0.66490  0.93760  Biso   1.000  H
  C26      1.0000 0.15410  0.89920  0.71360  Biso   1.000  C
  H21      1.0000 0.17830  0.94360  0.70990  Biso   1.000  H
  C27      1.0000 0.19770  0.85140  0.80670  Biso   1.000  C
  H22      1.0000 0.25010  0.86260  0.86480  Biso   1.000  H
  C28      1.0000 0.16380  0.78660  0.81470  Biso   1.000  C
  C29      1.0000 0.08650  0.77210  0.72400  Biso   1.000  C
  H23      1.0000 0.06080  0.72770  0.72460  Biso   1.000  H
  C30      1.0000 0.04930  0.82360  0.63470  Biso   1.000  C
  H24      1.0000 0.99740  0.81220  0.57320  Biso   1.000  H
  C31      1.0000 0.21430  0.35710  0.20850  Biso   1.000  C
  H25      1.0000 0.22290  0.38000  0.26900  Biso   1.000  H
  C32      1.0000 0.25820  0.28930  0.22930  Biso   1.000  C
  H26      1.0000 0.29430  0.26600  0.30080  Biso   1.000  H
  C33      1.0000 0.24770  0.25720  0.14340  Biso   1.000  C
  C34      1.0000 0.19270  0.29360  0.03880  Biso   1.000  C
  H27      1.0000 0.18420  0.27280  0.97740  Biso   1.000  H
  C35      1.0000 0.15260  0.35820  0.02760  Biso   1.000  C
  H28      1.0000 0.11550  0.38190  0.95650  Biso   1.000  H
  C36      1.0000 0.46840  0.14590  0.43170  Biso   1.000  C
  H29      1.0000 0.50260  0.17220  0.50150  Biso   1.000  H
  C37      1.0000 0.40530  0.18950  0.34510  Biso   1.000  C
  H30      1.0000 0.39790  0.24520  0.35520  Biso   1.000  H
  C38      1.0000 0.35290  0.15180  0.24340  Biso   1.000  C
  C39      1.0000 0.37140  0.07240  0.23270  Biso   1.000  C
  H31      1.0000 0.33960  0.04610  0.16280  Biso   1.000  H
  C40      1.0000 0.43450  0.03300  0.32190  Biso   1.000  C
  H32      1.0000 0.44380  0.97810  0.31230  Biso   1.000  H
  Cd1      1.0000 0.00275  0.99065  0.49744  Biso   1.000  Cd
  Cd2      1.0000 0.08613  0.50076  0.08056  Biso   1.000  Cd
  N1       1.0000 0.00660  0.60570  0.05210  Biso   1.000  N
  N2       1.0000 0.88550  0.77120  0.07840  Biso   1.000  N
  H33      1.0000 0.83650  0.77500  0.02100  Biso   1.000  H
  N3       1.0000 0.96750  0.91680  0.34900  Biso   1.000  N
  N4       1.0000 0.92750  0.09980  0.38220  Biso   1.000  N
  N5       1.0000 0.80460  0.30890  0.18520  Biso   1.000  N
  H34      1.0000 0.82600  0.33240  0.16400  Biso   1.000  H
  N6       1.0000 0.60740  0.43590  0.05860  Biso   1.000  N
  N7       1.0000 0.12940  0.58520  0.02110  Biso   1.000  N
  N8       1.0000 0.20710  0.73600  0.90840  Biso   1.000  N
  H35      1.0000 0.25620  0.73460  0.94780  Biso   1.000  H
  N9       1.0000 0.08030  0.88820  0.62760  Biso   1.000  N
  N10      1.0000 0.16130  0.39230  0.11100  Biso   1.000  N
  N11      1.0000 0.28700  0.18900  0.15060  Biso   1.000  N
  H36      1.0000 0.26700  0.16650  0.08750  Biso   1.000  H
  N12      1.0000 0.48450  0.06650  0.42270  Biso   1.000  N
  C41      1.0000 0.50870  0.64390  0.85830  Biso   1.000  C
  H37      1.0000 0.55760  0.65340  0.92870  Biso   1.000  H
  C42      1.0000 0.48560  0.69410  0.77360  Biso   1.000  C
  H38      1.0000 0.51730  0.73740  0.78550  Biso   1.000  H
  C43      1.0000 0.41460  0.68030  0.66950  Biso   1.000  C
  C44      1.0000 0.37110  0.61670  0.65740  Biso   1.000  C
  H39      1.0000 0.32280  0.60440  0.58750  Biso   1.000  H
  C45      1.0000 0.39930  0.57100  0.74920  Biso   1.000  C
  H40      1.0000 0.36830  0.52850  0.74080  Biso   1.000  H
  C46      1.0000 0.53690  0.82220  0.60890  Biso   1.000  C
  H41      1.0000 0.58800  0.81090  0.64510  Biso   1.000  H
  C47      1.0000 0.50030  0.76450  0.61840  Biso   1.000  C
  H42      1.0000 0.52440  0.71390  0.65690  Biso   1.000  H
  C48      1.0000 0.42580  0.78180  0.56960  Biso   1.000  C
  C49      1.0000 0.39260  0.85500  0.50740  Biso   1.000  C
  H43      1.0000 0.34130  0.86770  0.46920  Biso   1.000  H
  C50      1.0000 0.43460  0.90800  0.50210  Biso   1.000  C
  H44      1.0000 0.41110  0.95760  0.46040  Biso   1.000  H
  C51      1.0000 0.45080  0.34960  0.84470  Biso   1.000  C
  H45      1.0000 0.49710  0.36210  0.86370  Biso   1.000  H
  C52      1.0000 0.41010  0.28040  0.77990  Biso   1.000  C
  H46      1.0000 0.42830  0.24670  0.75480  Biso   1.000  H
  C53      1.0000 0.34260  0.26070  0.75180  Biso   1.000  C
  C54      1.0000 0.31850  0.31310  0.78990  Biso   1.000  C
  H47      1.0000 0.27270  0.30220  0.77270  Biso   1.000  H
  C55      1.0000 0.36140  0.37980  0.85170  Biso   1.000  C
  H48      1.0000 0.34320  0.41510  0.87540  Biso   1.000  H
  C56      1.0000 0.14140  0.05450  0.52050  Biso   1.000  C
  H49      1.0000 0.11950  0.01610  0.46210  Biso   1.000  H
  C57      1.0000 0.20560  0.09600  0.55940  Biso   1.000  C
  H50      1.0000 0.22660  0.08660  0.52800  Biso   1.000  H
  C58      1.0000 0.23960  0.15260  0.64680  Biso   1.000  C
  C59      1.0000 0.20620  0.16160  0.68920  Biso   1.000  C
  H51      1.0000 0.22710  0.19780  0.74930  Biso   1.000  H
  C60      1.0000 0.14170  0.11600  0.64090  Biso   1.000  C
  H52      1.0000 0.11960  0.12320  0.67090  Biso   1.000  H
  C61      1.0000 0.69610  0.92800  0.54870  Biso   1.000  C
  H53      1.0000 0.72620  0.97330  0.59620  Biso   1.000  H
  C62      1.0000 0.72350  0.88000  0.51260  Biso   1.000  C
  H54      1.0000 0.77020  0.89300  0.53310  Biso   1.000  H
  C63      1.0000 0.68010  0.81180  0.44490  Biso   1.000  C
  C64      1.0000 0.61330  0.79600  0.41930  Biso   1.000  C
  H55      1.0000 0.58340  0.74920  0.37520  Biso   1.000  H
  C65      1.0000 0.59010  0.84740  0.45730  Biso   1.000  C
  H56      1.0000 0.54360  0.83510  0.43760  Biso   1.000  H
  C66      1.0000 0.65410  0.60080  0.21360  Biso   1.000  C
  H57      1.0000 0.67830  0.55640  0.20990  Biso   1.000  H
  C67      1.0000 0.69770  0.64860  0.30670  Biso   1.000  C
  H58      1.0000 0.75010  0.63740  0.36480  Biso   1.000  H
  C68      1.0000 0.66380  0.71340  0.31470  Biso   1.000  C
  C69      1.0000 0.58650  0.72790  0.22400  Biso   1.000  C
  H59      1.0000 0.56080  0.77230  0.22460  Biso   1.000  H
  C70      1.0000 0.54930  0.67640  0.13470  Biso   1.000  C
  H60      1.0000 0.49740  0.68780  0.07320  Biso   1.000  H
  C71      1.0000 0.71430  0.14290  0.70850  Biso   1.000  C
  H61      1.0000 0.72290  0.12000  0.76900  Biso   1.000  H
  C72      1.0000 0.75820  0.21070  0.72930  Biso   1.000  C
  H62      1.0000 0.79430  0.23400  0.80080  Biso   1.000  H
  C73      1.0000 0.74770  0.24280  0.64340  Biso   1.000  C
  C74      1.0000 0.69270  0.20640  0.53880  Biso   1.000  C
  H63      1.0000 0.68420  0.22720  0.47740  Biso   1.000  H
  C75      1.0000 0.65260  0.14180  0.52760  Biso   1.000  C
  H64      1.0000 0.61550  0.11810  0.45650  Biso   1.000  H
  C76      1.0000 0.96840  0.35410  0.93170  Biso   1.000  C
  H65      1.0000 0.00260  0.32780  0.00150  Biso   1.000  H
  C77      1.0000 0.90530  0.31050  0.84510  Biso   1.000  C
  H66      1.0000 0.89790  0.25480  0.85520  Biso   1.000  H
  C78      1.0000 0.85290  0.34820  0.74340  Biso   1.000  C
  C79      1.0000 0.87140  0.42760  0.73270  Biso   1.000  C
  H67      1.0000 0.83960  0.45390  0.66280  Biso   1.000  H
  C80      1.0000 0.93450  0.46700  0.82190  Biso   1.000  C
  H68      1.0000 0.94380  0.52190  0.81230  Biso   1.000  H
  Cd3      1.0000 0.50275  0.50935  0.99744  Biso   1.000  Cd
  Cd4      1.0000 0.58613  0.99924  0.58056  Biso   1.000  Cd
  N13      1.0000 0.50660  0.89430  0.55210  Biso   1.000  N
  N14      1.0000 0.38550  0.72880  0.57840  Biso   1.000  N
  H69      1.0000 0.33650  0.72500  0.52100  Biso   1.000  H
  N15      1.0000 0.46750  0.58320  0.84900  Biso   1.000  N
  N16      1.0000 0.42750  0.40020  0.88220  Biso   1.000  N
  N17      1.0000 0.30460  0.19110  0.68520  Biso   1.000  N
  H70      1.0000 0.32600  0.16760  0.66400  Biso   1.000  H
  N18      1.0000 0.10740  0.06410  0.55860  Biso   1.000  N
  N19      1.0000 0.62940  0.91480  0.52110  Biso   1.000  N
  N20      1.0000 0.70710  0.76400  0.40840  Biso   1.000  N
  H71      1.0000 0.75620  0.76540  0.44780  Biso   1.000  H
  N21      1.0000 0.58030  0.61180  0.12760  Biso   1.000  N
  N22      1.0000 0.66130  0.10770  0.61100  Biso   1.000  N
  N23      1.0000 0.78700  0.31100  0.65060  Biso   1.000  N
  H72      1.0000 0.76700  0.33350  0.58750  Biso   1.000  H
  N24      1.0000 0.98450  0.43350  0.92270  Biso   1.000  N
  C81      1.0000 0.50870  0.35610  0.35830  Biso   1.000  C
  H73      1.0000 0.55760  0.34660  0.42870  Biso   1.000  H
  C82      1.0000 0.48560  0.30590  0.27360  Biso   1.000  C
  H74      1.0000 0.51730  0.26260  0.28550  Biso   1.000  H
  C83      1.0000 0.41460  0.31970  0.16950  Biso   1.000  C
  C84      1.0000 0.37110  0.38330  0.15740  Biso   1.000  C
  H75      1.0000 0.32280  0.39560  0.08750  Biso   1.000  H
  C85      1.0000 0.39930  0.42900  0.24920  Biso   1.000  C
  H76      1.0000 0.36830  0.47150  0.24080  Biso   1.000  H
  C86      1.0000 0.53690  0.17780  0.10890  Biso   1.000  C
  H77      1.0000 0.58800  0.18910  0.14510  Biso   1.000  H
  C87      1.0000 0.50030  0.23550  0.11840  Biso   1.000  C
  H78      1.0000 0.52440  0.28610  0.15690  Biso   1.000  H
  C88      1.0000 0.42580  0.21820  0.06960  Biso   1.000  C
  C89      1.0000 0.39260  0.14500  0.00740  Biso   1.000  C
  H79      1.0000 0.34130  0.13230  0.96920  Biso   1.000  H
  C90      1.0000 0.43460  0.09200  0.00210  Biso   1.000  C
  H80      1.0000 0.41110  0.04240  0.96040  Biso   1.000  H
  C91      1.0000 0.45080  0.65040  0.34470  Biso   1.000  C
  H81      1.0000 0.49710  0.63790  0.36370  Biso   1.000  H
  C92      1.0000 0.41010  0.71960  0.27990  Biso   1.000  C
  H82      1.0000 0.42830  0.75330  0.25480  Biso   1.000  H
  C93      1.0000 0.34260  0.73930  0.25180  Biso   1.000  C
  C94      1.0000 0.31850  0.68690  0.28990  Biso   1.000  C
  H83      1.0000 0.27270  0.69780  0.27270  Biso   1.000  H
  C95      1.0000 0.36140  0.62020  0.35170  Biso   1.000  C
  H84      1.0000 0.34320  0.58490  0.37540  Biso   1.000  H
  C96      1.0000 0.14140  0.94550  0.02050  Biso   1.000  C
  H85      1.0000 0.11950  0.98390  0.96210  Biso   1.000  H
  C97      1.0000 0.20560  0.90400  0.05940  Biso   1.000  C
  H86      1.0000 0.22660  0.91340  0.02800  Biso   1.000  H
  C98      1.0000 0.23960  0.84740  0.14680  Biso   1.000  C
  C99      1.0000 0.20620  0.83840  0.18920  Biso   1.000  C
  H87      1.0000 0.22710  0.80220  0.24930  Biso   1.000  H
  C100     1.0000 0.14170  0.88400  0.14090  Biso   1.000  C
  H88      1.0000 0.11960  0.87680  0.17090  Biso   1.000  H
  C101     1.0000 0.69610  0.07200  0.04870  Biso   1.000  C
  H89      1.0000 0.72620  0.02670  0.09620  Biso   1.000  H
  C102     1.0000 0.72350  0.12000  0.01260  Biso   1.000  C
  H90      1.0000 0.77020  0.10700  0.03310  Biso   1.000  H
  C103     1.0000 0.68010  0.18820  0.94490  Biso   1.000  C
  C104     1.0000 0.61330  0.20400  0.91930  Biso   1.000  C
  H91      1.0000 0.58340  0.25080  0.87520  Biso   1.000  H
  C105     1.0000 0.59010  0.15260  0.95730  Biso   1.000  C
  H92      1.0000 0.54360  0.16490  0.93760  Biso   1.000  H
  C106     1.0000 0.65410  0.39920  0.71360  Biso   1.000  C
  H93      1.0000 0.67830  0.44360  0.70990  Biso   1.000  H
  C107     1.0000 0.69770  0.35140  0.80670  Biso   1.000  C
  H94      1.0000 0.75010  0.36260  0.86480  Biso   1.000  H
  C108     1.0000 0.66380  0.28660  0.81470  Biso   1.000  C
  C109     1.0000 0.58650  0.27210  0.72400  Biso   1.000  C
  H95      1.0000 0.56080  0.22770  0.72460  Biso   1.000  H
  C110     1.0000 0.54930  0.32360  0.63470  Biso   1.000  C
  H96      1.0000 0.49740  0.31220  0.57320  Biso   1.000  H
  C111     1.0000 0.71430  0.85710  0.20850  Biso   1.000  C
  H97      1.0000 0.72290  0.88000  0.26900  Biso   1.000  H
  C112     1.0000 0.75820  0.78930  0.22930  Biso   1.000  C
  H98      1.0000 0.79430  0.76600  0.30080  Biso   1.000  H
  C113     1.0000 0.74770  0.75720  0.14340  Biso   1.000  C
  C114     1.0000 0.69270  0.79360  0.03880  Biso   1.000  C
  H99      1.0000 0.68420  0.77280  0.97740  Biso   1.000  H
  C115     1.0000 0.65260  0.85820  0.02760  Biso   1.000  C
  H100     1.0000 0.61550  0.88190  0.95650  Biso   1.000  H
  C116     1.0000 0.96840  0.64590  0.43170  Biso   1.000  C
  H101     1.0000 0.00260  0.67220  0.50150  Biso   1.000  H
  C117     1.0000 0.90530  0.68950  0.34510  Biso   1.000  C
  H102     1.0000 0.89790  0.74520  0.35520  Biso   1.000  H
  C118     1.0000 0.85290  0.65180  0.24340  Biso   1.000  C
  C119     1.0000 0.87140  0.57240  0.23270  Biso   1.000  C
  H103     1.0000 0.83960  0.54610  0.16280  Biso   1.000  H
  C120     1.0000 0.93450  0.53300  0.32190  Biso   1.000  C
  H104     1.0000 0.94380  0.47810  0.31230  Biso   1.000  H
  Cd5      1.0000 0.50275  0.49065  0.49744  Biso   1.000  Cd
  Cd6      1.0000 0.58613  0.00076  0.08056  Biso   1.000  Cd
  N25      1.0000 0.50660  0.10570  0.05210  Biso   1.000  N
  N26      1.0000 0.38550  0.27120  0.07840  Biso   1.000  N
  H105     1.0000 0.33650  0.27500  0.02100  Biso   1.000  H
  N27      1.0000 0.46750  0.41680  0.34900  Biso   1.000  N
  N28      1.0000 0.42750  0.59980  0.38220  Biso   1.000  N
  N29      1.0000 0.30460  0.80890  0.18520  Biso   1.000  N
  H106     1.0000 0.32600  0.83240  0.16400  Biso   1.000  H
  N30      1.0000 0.10740  0.93590  0.05860  Biso   1.000  N
  N31      1.0000 0.62940  0.08520  0.02110  Biso   1.000  N
  N32      1.0000 0.70710  0.23600  0.90840  Biso   1.000  N
  H107     1.0000 0.75620  0.23460  0.94780  Biso   1.000  H
  N33      1.0000 0.58030  0.38820  0.62760  Biso   1.000  N
  N34      1.0000 0.66130  0.89230  0.11100  Biso   1.000  N
  N35      1.0000 0.78700  0.68900  0.15060  Biso   1.000  N
  H108     1.0000 0.76700  0.66650  0.08750  Biso   1.000  H
  N36      1.0000 0.98450  0.56650  0.42270  Biso   1.000  N
  C121     1.0000 0.00870  0.14390  0.85830  Biso   1.000  C
  H109     1.0000 0.05760  0.15340  0.92870  Biso   1.000  H
  C122     1.0000 0.98560  0.19410  0.77360  Biso   1.000  C
  H110     1.0000 0.01730  0.23740  0.78550  Biso   1.000  H
  C123     1.0000 0.91460  0.18030  0.66950  Biso   1.000  C
  C124     1.0000 0.87110  0.11670  0.65740  Biso   1.000  C
  H111     1.0000 0.82280  0.10440  0.58750  Biso   1.000  H
  C125     1.0000 0.89930  0.07100  0.74920  Biso   1.000  C
  H112     1.0000 0.86830  0.02850  0.74080  Biso   1.000  H
  C126     1.0000 0.03690  0.32220  0.60890  Biso   1.000  C
  H113     1.0000 0.08800  0.31090  0.64510  Biso   1.000  H
  C127     1.0000 0.00030  0.26450  0.61840  Biso   1.000  C
  H114     1.0000 0.02440  0.21390  0.65690  Biso   1.000  H
  C128     1.0000 0.92580  0.28180  0.56960  Biso   1.000  C
  C129     1.0000 0.89260  0.35500  0.50740  Biso   1.000  C
  H115     1.0000 0.84130  0.36770  0.46920  Biso   1.000  H
  C130     1.0000 0.93460  0.40800  0.50210  Biso   1.000  C
  H116     1.0000 0.91110  0.45760  0.46040  Biso   1.000  H
  C131     1.0000 0.95080  0.84960  0.84470  Biso   1.000  C
  H117     1.0000 0.99710  0.86210  0.86370  Biso   1.000  H
  C132     1.0000 0.91010  0.78040  0.77990  Biso   1.000  C
  H118     1.0000 0.92830  0.74670  0.75480  Biso   1.000  H
  C133     1.0000 0.84260  0.76070  0.75180  Biso   1.000  C
  C134     1.0000 0.81850  0.81310  0.78990  Biso   1.000  C
  H119     1.0000 0.77270  0.80220  0.77270  Biso   1.000  H
  C135     1.0000 0.86140  0.87980  0.85170  Biso   1.000  C
  H120     1.0000 0.84320  0.91510  0.87540  Biso   1.000  H
  C136     1.0000 0.64140  0.55450  0.52050  Biso   1.000  C
  H121     1.0000 0.61950  0.51610  0.46210  Biso   1.000  H
  C137     1.0000 0.70560  0.59600  0.55940  Biso   1.000  C
  H122     1.0000 0.72660  0.58660  0.52800  Biso   1.000  H
  C138     1.0000 0.73960  0.65260  0.64680  Biso   1.000  C
  C139     1.0000 0.70620  0.66160  0.68920  Biso   1.000  C
  H123     1.0000 0.72710  0.69780  0.74930  Biso   1.000  H
  C140     1.0000 0.64170  0.61600  0.64090  Biso   1.000  C
  H124     1.0000 0.61960  0.62320  0.67090  Biso   1.000  H
  C141     1.0000 0.19610  0.42800  0.54870  Biso   1.000  C
  H125     1.0000 0.22620  0.47330  0.59620  Biso   1.000  H
  C142     1.0000 0.22350  0.38000  0.51260  Biso   1.000  C
  H126     1.0000 0.27020  0.39300  0.53310  Biso   1.000  H
  C143     1.0000 0.18010  0.31180  0.44490  Biso   1.000  C
  C144     1.0000 0.11330  0.29600  0.41930  Biso   1.000  C
  H127     1.0000 0.08340  0.24920  0.37520  Biso   1.000  H
  C145     1.0000 0.09010  0.34740  0.45730  Biso   1.000  C
  H128     1.0000 0.04360  0.33510  0.43760  Biso   1.000  H
  C146     1.0000 0.15410  0.10080  0.21360  Biso   1.000  C
  H129     1.0000 0.17830  0.05640  0.20990  Biso   1.000  H
  C147     1.0000 0.19770  0.14860  0.30670  Biso   1.000  C
  H130     1.0000 0.25010  0.13740  0.36480  Biso   1.000  H
  C148     1.0000 0.16380  0.21340  0.31470  Biso   1.000  C
  C149     1.0000 0.08650  0.22790  0.22400  Biso   1.000  C
  H131     1.0000 0.06080  0.27230  0.22460  Biso   1.000  H
  C150     1.0000 0.04930  0.17640  0.13470  Biso   1.000  C
  H132     1.0000 0.99740  0.18780  0.07320  Biso   1.000  H
  C151     1.0000 0.21430  0.64290  0.70850  Biso   1.000  C
  H133     1.0000 0.22290  0.62000  0.76900  Biso   1.000  H
  C152     1.0000 0.25820  0.71070  0.72930  Biso   1.000  C
  H134     1.0000 0.29430  0.73400  0.80080  Biso   1.000  H
  C153     1.0000 0.24770  0.74280  0.64340  Biso   1.000  C
  C154     1.0000 0.19270  0.70640  0.53880  Biso   1.000  C
  H135     1.0000 0.18420  0.72720  0.47740  Biso   1.000  H
  C155     1.0000 0.15260  0.64180  0.52760  Biso   1.000  C
  H136     1.0000 0.11550  0.61810  0.45650  Biso   1.000  H
  C156     1.0000 0.46840  0.85410  0.93170  Biso   1.000  C
  H137     1.0000 0.50260  0.82780  0.00150  Biso   1.000  H
  C157     1.0000 0.40530  0.81050  0.84510  Biso   1.000  C
  H138     1.0000 0.39790  0.75480  0.85520  Biso   1.000  H
  C158     1.0000 0.35290  0.84820  0.74340  Biso   1.000  C
  C159     1.0000 0.37140  0.92760  0.73270  Biso   1.000  C
  H139     1.0000 0.33960  0.95390  0.66280  Biso   1.000  H
  C160     1.0000 0.43450  0.96700  0.82190  Biso   1.000  C
  H140     1.0000 0.44380  0.02190  0.81230  Biso   1.000  H
  Cd7      1.0000 0.00275  0.00935  0.99744  Biso   1.000  Cd
  Cd8      1.0000 0.08613  0.49924  0.58056  Biso   1.000  Cd
  N37      1.0000 0.00660  0.39430  0.55210  Biso   1.000  N
  N38      1.0000 0.88550  0.22880  0.57840  Biso   1.000  N
  H141     1.0000 0.83650  0.22500  0.52100  Biso   1.000  H
  N39      1.0000 0.96750  0.08320  0.84900  Biso   1.000  N
  N40      1.0000 0.92750  0.90020  0.88220  Biso   1.000  N
  N41      1.0000 0.80460  0.69110  0.68520  Biso   1.000  N
  H142     1.0000 0.82600  0.66760  0.66400  Biso   1.000  H
  N42      1.0000 0.60740  0.56410  0.55860  Biso   1.000  N
  N43      1.0000 0.12940  0.41480  0.52110  Biso   1.000  N
  N44      1.0000 0.20710  0.26400  0.40840  Biso   1.000  N
  H143     1.0000 0.25620  0.26540  0.44780  Biso   1.000  H
  N45      1.0000 0.08030  0.11180  0.12760  Biso   1.000  N
  N46      1.0000 0.16130  0.60770  0.61100  Biso   1.000  N
  N47      1.0000 0.28700  0.81100  0.65060  Biso   1.000  N
  H144     1.0000 0.26700  0.83350  0.58750  Biso   1.000  H
  N48      1.0000 0.48450  0.93350  0.92270  Biso   1.000  N
