data_image0
_cell_length_a       17.268
_cell_length_b       15.465
_cell_length_c       17.929
_cell_angle_alpha    90
_cell_angle_beta     90
_cell_angle_gamma    90

_symmetry_space_group_name_H-M    "P 1"
_symmetry_int_tables_number       1

loop_
  _symmetry_equiv_pos_as_xyz
  'x, y, z'

loop_
  _atom_site_label
  _atom_site_occupancy
  _atom_site_fract_x
  _atom_site_fract_y
  _atom_site_fract_z
  _atom_site_thermal_displace_type
  _atom_site_B_iso_or_equiv
  _atom_site_type_symbol
  C1       1.0000 0.78780  0.03070  0.89500  Biso   1.000  C
  H1       1.0000 0.80880  0.97640  0.90430  Biso   1.000  H
  C2       1.0000 0.81060  0.07330  0.83130  Biso   1.000  C
  H2       1.0000 0.84560  0.04770  0.79850  Biso   1.000  H
  C3       1.0000 0.78040  0.15610  0.81640  Biso   1.000  C
  C4       1.0000 0.72950  0.19110  0.86910  Biso   1.000  C
  H3       1.0000 0.70910  0.24620  0.86260  Biso   1.000  H
  C5       1.0000 0.71010  0.14260  0.93090  Biso   1.000  C
  H4       1.0000 0.67610  0.16690  0.96530  Biso   1.000  H
  C6       1.0000 0.67940  0.37190  0.67970  Biso   1.000  C
  H5       1.0000 0.63040  0.39530  0.68690  Biso   1.000  H
  C7       1.0000 0.70160  0.30480  0.72510  Biso   1.000  C
  H6       1.0000 0.66830  0.28360  0.76150  Biso   1.000  H
  C8       1.0000 0.77550  0.26900  0.71543  Biso   1.000  C
  C9       1.0000 0.82300  0.30600  0.66090  Biso   1.000  C
  H7       1.0000 0.87310  0.28560  0.65400  Biso   1.000  H
  C10      1.0000 0.79530  0.37230  0.61770  Biso   1.000  C
  H8       1.0000 0.82760  0.39520  0.58110  Biso   1.000  H
  C11      1.0000 0.81880  0.91810  0.15194  Biso   1.000  C
  H9       1.0000 0.79100  0.95350  0.18420  Biso   1.000  H
  C12      1.0000 0.88620  0.88200  0.17740  Biso   1.000  C
  H10      1.0000 0.90340  0.89370  0.22550  Biso   1.000  H
  C13      1.0000 0.92940  0.82710  0.13050  Biso   1.000  C
  C14      1.0000 0.89870  0.81170  0.05880  Biso   1.000  C
  H11      1.0000 0.92400  0.77490  0.02580  Biso   1.000  H
  C15      1.0000 0.83100  0.85190  0.03840  Biso   1.000  C
  H12      1.0000 0.81210  0.84150  0.99070  Biso   1.000  H
  C16      1.0000 0.11660  0.69540  0.00980  Biso   1.000  C
  H13      1.0000 0.13090  0.70760  0.96090  Biso   1.000  H
  C17      1.0000 0.07010  0.75430  0.04620  Biso   1.000  C
  H14      1.0000 0.05480  0.80510  0.02260  Biso   1.000  H
  C18      1.0000 0.04660  0.73650  0.11850  Biso   1.000  C
  C19      1.0000 0.07560  0.66260  0.15210  Biso   1.000  C
  H15      1.0000 0.06370  0.65020  0.20150  Biso   1.000  H
  C20      1.0000 0.12240  0.60730  0.11130  Biso   1.000  C
  H16      1.0000 0.14080  0.55760  0.13440  Biso   1.000  H
  N1       1.0000 0.73707  0.06273  0.94482  Biso   1.000  N
  N2       1.0000 0.80443  0.19700  0.75240  Biso   1.000  N
  H17      1.0000 0.84440  0.17410  0.73170  Biso   1.000  H
  N3       1.0000 0.72368  0.40610  0.62552  Biso   1.000  N
  N4       1.0000 0.79029  0.90537  0.08254  Biso   1.000  N
  N5       1.0000 0.99541  0.78980  0.15786  Biso   1.000  N
  H18      1.0000 0.00650  0.80010  0.20380  Biso   1.000  H
  N6       1.0000 0.14249  0.62200  0.04008  Biso   1.000  N
  Cd1      1.0000 0.68298  0.98433  0.04444  Biso   1.000  Cd
  C21      1.0000 0.28780  0.46930  0.10500  Biso   1.000  C
  H19      1.0000 0.30880  0.52360  0.09570  Biso   1.000  H
  C22      1.0000 0.31060  0.42670  0.16870  Biso   1.000  C
  H20      1.0000 0.34560  0.45230  0.20150  Biso   1.000  H
  C23      1.0000 0.28040  0.34390  0.18360  Biso   1.000  C
  C24      1.0000 0.22950  0.30890  0.13090  Biso   1.000  C
  H21      1.0000 0.20910  0.25380  0.13740  Biso   1.000  H
  C25      1.0000 0.21010  0.35740  0.06910  Biso   1.000  C
  H22      1.0000 0.17610  0.33310  0.03470  Biso   1.000  H
  C26      1.0000 0.17940  0.12810  0.32030  Biso   1.000  C
  H23      1.0000 0.13040  0.10470  0.31310  Biso   1.000  H
  C27      1.0000 0.20160  0.19520  0.27490  Biso   1.000  C
  H24      1.0000 0.16830  0.21640  0.23850  Biso   1.000  H
  C28      1.0000 0.27550  0.23100  0.28457  Biso   1.000  C
  C29      1.0000 0.32300  0.19400  0.33910  Biso   1.000  C
  H25      1.0000 0.37310  0.21440  0.34600  Biso   1.000  H
  C30      1.0000 0.29530  0.12770  0.38230  Biso   1.000  C
  H26      1.0000 0.32760  0.10480  0.41890  Biso   1.000  H
  C31      1.0000 0.31880  0.58190  0.84806  Biso   1.000  C
  H27      1.0000 0.29100  0.54650  0.81580  Biso   1.000  H
  C32      1.0000 0.38620  0.61800  0.82260  Biso   1.000  C
  H28      1.0000 0.40340  0.60630  0.77450  Biso   1.000  H
  C33      1.0000 0.42940  0.67290  0.86950  Biso   1.000  C
  C34      1.0000 0.39870  0.68830  0.94120  Biso   1.000  C
  H29      1.0000 0.42400  0.72510  0.97420  Biso   1.000  H
  C35      1.0000 0.33100  0.64810  0.96160  Biso   1.000  C
  H30      1.0000 0.31210  0.65850  0.00930  Biso   1.000  H
  C36      1.0000 0.61660  0.80460  0.99020  Biso   1.000  C
  H31      1.0000 0.63090  0.79240  0.03910  Biso   1.000  H
  C37      1.0000 0.57010  0.74570  0.95380  Biso   1.000  C
  H32      1.0000 0.55480  0.69490  0.97740  Biso   1.000  H
  C38      1.0000 0.54660  0.76350  0.88150  Biso   1.000  C
  C39      1.0000 0.57560  0.83740  0.84790  Biso   1.000  C
  H33      1.0000 0.56370  0.84980  0.79850  Biso   1.000  H
  C40      1.0000 0.62240  0.89270  0.88870  Biso   1.000  C
  H34      1.0000 0.64080  0.94240  0.86560  Biso   1.000  H
  N7       1.0000 0.23707  0.43727  0.05518  Biso   1.000  N
  N8       1.0000 0.30443  0.30300  0.24760  Biso   1.000  N
  H35      1.0000 0.34440  0.32590  0.26830  Biso   1.000  H
  N9       1.0000 0.22368  0.09390  0.37448  Biso   1.000  N
  N10      1.0000 0.29029  0.59463  0.91746  Biso   1.000  N
  N11      1.0000 0.49541  0.71020  0.84214  Biso   1.000  N
  H36      1.0000 0.50650  0.69990  0.79620  Biso   1.000  H
  N12      1.0000 0.64249  0.87800  0.95992  Biso   1.000  N
  Cd2      1.0000 0.18298  0.51567  0.95557  Biso   1.000  Cd
  C41      1.0000 0.28780  0.03070  0.60500  Biso   1.000  C
  H37      1.0000 0.30880  0.97640  0.59570  Biso   1.000  H
  C42      1.0000 0.31060  0.07330  0.66870  Biso   1.000  C
  H38      1.0000 0.34560  0.04770  0.70150  Biso   1.000  H
  C43      1.0000 0.28040  0.15610  0.68360  Biso   1.000  C
  C44      1.0000 0.22950  0.19110  0.63090  Biso   1.000  C
  H39      1.0000 0.20910  0.24620  0.63740  Biso   1.000  H
  C45      1.0000 0.21010  0.14260  0.56910  Biso   1.000  C
  H40      1.0000 0.17610  0.16690  0.53470  Biso   1.000  H
  C46      1.0000 0.17940  0.37190  0.82030  Biso   1.000  C
  H41      1.0000 0.13040  0.39530  0.81310  Biso   1.000  H
  C47      1.0000 0.20160  0.30480  0.77490  Biso   1.000  C
  H42      1.0000 0.16830  0.28360  0.73850  Biso   1.000  H
  C48      1.0000 0.27550  0.26900  0.78457  Biso   1.000  C
  C49      1.0000 0.32300  0.30600  0.83910  Biso   1.000  C
  H43      1.0000 0.37310  0.28560  0.84600  Biso   1.000  H
  C50      1.0000 0.29530  0.37230  0.88230  Biso   1.000  C
  H44      1.0000 0.32760  0.39520  0.91890  Biso   1.000  H
  C51      1.0000 0.31880  0.91810  0.34806  Biso   1.000  C
  H45      1.0000 0.29100  0.95350  0.31580  Biso   1.000  H
  C52      1.0000 0.38620  0.88200  0.32260  Biso   1.000  C
  H46      1.0000 0.40340  0.89370  0.27450  Biso   1.000  H
  C53      1.0000 0.42940  0.82710  0.36950  Biso   1.000  C
  C54      1.0000 0.39870  0.81170  0.44120  Biso   1.000  C
  H47      1.0000 0.42400  0.77490  0.47420  Biso   1.000  H
  C55      1.0000 0.33100  0.85190  0.46160  Biso   1.000  C
  H48      1.0000 0.31210  0.84150  0.50930  Biso   1.000  H
  C56      1.0000 0.61660  0.69540  0.49020  Biso   1.000  C
  H49      1.0000 0.63090  0.70760  0.53910  Biso   1.000  H
  C57      1.0000 0.57010  0.75430  0.45380  Biso   1.000  C
  H50      1.0000 0.55480  0.80510  0.47740  Biso   1.000  H
  C58      1.0000 0.54660  0.73650  0.38150  Biso   1.000  C
  C59      1.0000 0.57560  0.66260  0.34790  Biso   1.000  C
  H51      1.0000 0.56370  0.65020  0.29850  Biso   1.000  H
  C60      1.0000 0.62240  0.60730  0.38870  Biso   1.000  C
  H52      1.0000 0.64080  0.55760  0.36560  Biso   1.000  H
  N13      1.0000 0.23707  0.06273  0.55518  Biso   1.000  N
  N14      1.0000 0.30443  0.19700  0.74760  Biso   1.000  N
  H53      1.0000 0.34440  0.17410  0.76830  Biso   1.000  H
  N15      1.0000 0.22368  0.40610  0.87448  Biso   1.000  N
  N16      1.0000 0.29029  0.90537  0.41746  Biso   1.000  N
  N17      1.0000 0.49541  0.78980  0.34214  Biso   1.000  N
  H54      1.0000 0.50650  0.80010  0.29620  Biso   1.000  H
  N18      1.0000 0.64249  0.62200  0.45992  Biso   1.000  N
  Cd3      1.0000 0.18298  0.98433  0.45557  Biso   1.000  Cd
  C61      1.0000 0.78780  0.46930  0.39500  Biso   1.000  C
  H55      1.0000 0.80880  0.52360  0.40430  Biso   1.000  H
  C62      1.0000 0.81060  0.42670  0.33130  Biso   1.000  C
  H56      1.0000 0.84560  0.45230  0.29850  Biso   1.000  H
  C63      1.0000 0.78040  0.34390  0.31640  Biso   1.000  C
  C64      1.0000 0.72950  0.30890  0.36910  Biso   1.000  C
  H57      1.0000 0.70910  0.25380  0.36260  Biso   1.000  H
  C65      1.0000 0.71010  0.35740  0.43090  Biso   1.000  C
  H58      1.0000 0.67610  0.33310  0.46530  Biso   1.000  H
  C66      1.0000 0.67940  0.12810  0.17970  Biso   1.000  C
  H59      1.0000 0.63040  0.10470  0.18690  Biso   1.000  H
  C67      1.0000 0.70160  0.19520  0.22510  Biso   1.000  C
  H60      1.0000 0.66830  0.21640  0.26150  Biso   1.000  H
  C68      1.0000 0.77550  0.23100  0.21543  Biso   1.000  C
  C69      1.0000 0.82300  0.19400  0.16090  Biso   1.000  C
  H61      1.0000 0.87310  0.21440  0.15400  Biso   1.000  H
  C70      1.0000 0.79530  0.12770  0.11770  Biso   1.000  C
  H62      1.0000 0.82760  0.10480  0.08110  Biso   1.000  H
  C71      1.0000 0.81880  0.58190  0.65194  Biso   1.000  C
  H63      1.0000 0.79100  0.54650  0.68420  Biso   1.000  H
  C72      1.0000 0.88620  0.61800  0.67740  Biso   1.000  C
  H64      1.0000 0.90340  0.60630  0.72550  Biso   1.000  H
  C73      1.0000 0.92940  0.67290  0.63050  Biso   1.000  C
  C74      1.0000 0.89870  0.68830  0.55880  Biso   1.000  C
  H65      1.0000 0.92400  0.72510  0.52580  Biso   1.000  H
  C75      1.0000 0.83100  0.64810  0.53840  Biso   1.000  C
  H66      1.0000 0.81210  0.65850  0.49070  Biso   1.000  H
  C76      1.0000 0.11660  0.80460  0.50980  Biso   1.000  C
  H67      1.0000 0.13090  0.79240  0.46090  Biso   1.000  H
  C77      1.0000 0.07010  0.74570  0.54620  Biso   1.000  C
  H68      1.0000 0.05480  0.69490  0.52260  Biso   1.000  H
  C78      1.0000 0.04660  0.76350  0.61850  Biso   1.000  C
  C79      1.0000 0.07560  0.83740  0.65210  Biso   1.000  C
  H69      1.0000 0.06370  0.84980  0.70150  Biso   1.000  H
  C80      1.0000 0.12240  0.89270  0.61130  Biso   1.000  C
  H70      1.0000 0.14080  0.94240  0.63440  Biso   1.000  H
  N19      1.0000 0.73707  0.43727  0.44482  Biso   1.000  N
  N20      1.0000 0.80443  0.30300  0.25240  Biso   1.000  N
  H71      1.0000 0.84440  0.32590  0.23170  Biso   1.000  H
  N21      1.0000 0.72368  0.09390  0.12552  Biso   1.000  N
  N22      1.0000 0.79029  0.59463  0.58254  Biso   1.000  N
  N23      1.0000 0.99541  0.71020  0.65786  Biso   1.000  N
  H72      1.0000 0.00650  0.69990  0.70380  Biso   1.000  H
  N24      1.0000 0.14249  0.87800  0.54008  Biso   1.000  N
  Cd4      1.0000 0.68298  0.51567  0.54444  Biso   1.000  Cd
  C81      1.0000 0.71220  0.96930  0.39500  Biso   1.000  C
  H73      1.0000 0.69120  0.02360  0.40430  Biso   1.000  H
  C82      1.0000 0.68940  0.92670  0.33130  Biso   1.000  C
  H74      1.0000 0.65440  0.95230  0.29850  Biso   1.000  H
  C83      1.0000 0.71960  0.84390  0.31640  Biso   1.000  C
  C84      1.0000 0.77050  0.80890  0.36910  Biso   1.000  C
  H75      1.0000 0.79090  0.75380  0.36260  Biso   1.000  H
  C85      1.0000 0.78990  0.85740  0.43090  Biso   1.000  C
  H76      1.0000 0.82390  0.83310  0.46530  Biso   1.000  H
  C86      1.0000 0.82060  0.62810  0.17970  Biso   1.000  C
  H77      1.0000 0.86960  0.60470  0.18690  Biso   1.000  H
  C87      1.0000 0.79840  0.69520  0.22510  Biso   1.000  C
  H78      1.0000 0.83170  0.71640  0.26150  Biso   1.000  H
  C88      1.0000 0.72450  0.73100  0.21543  Biso   1.000  C
  C89      1.0000 0.67700  0.69400  0.16090  Biso   1.000  C
  H79      1.0000 0.62690  0.71440  0.15400  Biso   1.000  H
  C90      1.0000 0.70470  0.62770  0.11770  Biso   1.000  C
  H80      1.0000 0.67240  0.60480  0.08110  Biso   1.000  H
  C91      1.0000 0.68120  0.08190  0.65194  Biso   1.000  C
  H81      1.0000 0.70900  0.04650  0.68420  Biso   1.000  H
  C92      1.0000 0.61380  0.11800  0.67740  Biso   1.000  C
  H82      1.0000 0.59660  0.10630  0.72550  Biso   1.000  H
  C93      1.0000 0.57060  0.17290  0.63050  Biso   1.000  C
  C94      1.0000 0.60130  0.18830  0.55880  Biso   1.000  C
  H83      1.0000 0.57600  0.22510  0.52580  Biso   1.000  H
  C95      1.0000 0.66900  0.14810  0.53840  Biso   1.000  C
  H84      1.0000 0.68790  0.15850  0.49070  Biso   1.000  H
  C96      1.0000 0.38340  0.30460  0.50980  Biso   1.000  C
  H85      1.0000 0.36910  0.29240  0.46090  Biso   1.000  H
  C97      1.0000 0.42990  0.24570  0.54620  Biso   1.000  C
  H86      1.0000 0.44520  0.19490  0.52260  Biso   1.000  H
  C98      1.0000 0.45340  0.26350  0.61850  Biso   1.000  C
  C99      1.0000 0.42440  0.33740  0.65210  Biso   1.000  C
  H87      1.0000 0.43630  0.34980  0.70150  Biso   1.000  H
  C100     1.0000 0.37760  0.39270  0.61130  Biso   1.000  C
  H88      1.0000 0.35920  0.44240  0.63440  Biso   1.000  H
  N25      1.0000 0.76293  0.93727  0.44482  Biso   1.000  N
  N26      1.0000 0.69557  0.80300  0.25240  Biso   1.000  N
  H89      1.0000 0.65560  0.82590  0.23170  Biso   1.000  H
  N27      1.0000 0.77632  0.59390  0.12552  Biso   1.000  N
  N28      1.0000 0.70971  0.09463  0.58254  Biso   1.000  N
  N29      1.0000 0.50459  0.21020  0.65786  Biso   1.000  N
  H90      1.0000 0.49350  0.19990  0.70380  Biso   1.000  H
  N30      1.0000 0.35751  0.37800  0.54008  Biso   1.000  N
  Cd5      1.0000 0.81702  0.01567  0.54444  Biso   1.000  Cd
  C101     1.0000 0.21220  0.53070  0.60500  Biso   1.000  C
  H91      1.0000 0.19120  0.47640  0.59570  Biso   1.000  H
  C102     1.0000 0.18940  0.57330  0.66870  Biso   1.000  C
  H92      1.0000 0.15440  0.54770  0.70150  Biso   1.000  H
  C103     1.0000 0.21960  0.65610  0.68360  Biso   1.000  C
  C104     1.0000 0.27050  0.69110  0.63090  Biso   1.000  C
  H93      1.0000 0.29090  0.74620  0.63740  Biso   1.000  H
  C105     1.0000 0.28990  0.64260  0.56910  Biso   1.000  C
  H94      1.0000 0.32390  0.66690  0.53470  Biso   1.000  H
  C106     1.0000 0.32060  0.87190  0.82030  Biso   1.000  C
  H95      1.0000 0.36960  0.89530  0.81310  Biso   1.000  H
  C107     1.0000 0.29840  0.80480  0.77490  Biso   1.000  C
  H96      1.0000 0.33170  0.78360  0.73850  Biso   1.000  H
  C108     1.0000 0.22450  0.76900  0.78457  Biso   1.000  C
  C109     1.0000 0.17700  0.80600  0.83910  Biso   1.000  C
  H97      1.0000 0.12690  0.78560  0.84600  Biso   1.000  H
  C110     1.0000 0.20470  0.87230  0.88230  Biso   1.000  C
  H98      1.0000 0.17240  0.89520  0.91890  Biso   1.000  H
  C111     1.0000 0.18120  0.41810  0.34806  Biso   1.000  C
  H99      1.0000 0.20900  0.45350  0.31580  Biso   1.000  H
  C112     1.0000 0.11380  0.38200  0.32260  Biso   1.000  C
  H100     1.0000 0.09660  0.39370  0.27450  Biso   1.000  H
  C113     1.0000 0.07060  0.32710  0.36950  Biso   1.000  C
  C114     1.0000 0.10130  0.31170  0.44120  Biso   1.000  C
  H101     1.0000 0.07600  0.27490  0.47420  Biso   1.000  H
  C115     1.0000 0.16900  0.35190  0.46160  Biso   1.000  C
  H102     1.0000 0.18790  0.34150  0.50930  Biso   1.000  H
  C116     1.0000 0.88340  0.19540  0.49020  Biso   1.000  C
  H103     1.0000 0.86910  0.20760  0.53910  Biso   1.000  H
  C117     1.0000 0.92990  0.25430  0.45380  Biso   1.000  C
  H104     1.0000 0.94520  0.30510  0.47740  Biso   1.000  H
  C118     1.0000 0.95340  0.23650  0.38150  Biso   1.000  C
  C119     1.0000 0.92440  0.16260  0.34790  Biso   1.000  C
  H105     1.0000 0.93630  0.15020  0.29850  Biso   1.000  H
  C120     1.0000 0.87760  0.10730  0.38870  Biso   1.000  C
  H106     1.0000 0.85920  0.05760  0.36560  Biso   1.000  H
  N31      1.0000 0.26293  0.56273  0.55518  Biso   1.000  N
  N32      1.0000 0.19557  0.69700  0.74760  Biso   1.000  N
  H107     1.0000 0.15560  0.67410  0.76830  Biso   1.000  H
  N33      1.0000 0.27632  0.90610  0.87448  Biso   1.000  N
  N34      1.0000 0.20971  0.40537  0.41746  Biso   1.000  N
  N35      1.0000 0.00459  0.28980  0.34214  Biso   1.000  N
  H108     1.0000 0.99350  0.30010  0.29620  Biso   1.000  H
  N36      1.0000 0.85751  0.12200  0.45992  Biso   1.000  N
  Cd6      1.0000 0.31702  0.48433  0.45557  Biso   1.000  Cd
  C121     1.0000 0.21220  0.96930  0.10500  Biso   1.000  C
  H109     1.0000 0.19120  0.02360  0.09570  Biso   1.000  H
  C122     1.0000 0.18940  0.92670  0.16870  Biso   1.000  C
  H110     1.0000 0.15440  0.95230  0.20150  Biso   1.000  H
  C123     1.0000 0.21960  0.84390  0.18360  Biso   1.000  C
  C124     1.0000 0.27050  0.80890  0.13090  Biso   1.000  C
  H111     1.0000 0.29090  0.75380  0.13740  Biso   1.000  H
  C125     1.0000 0.28990  0.85740  0.06910  Biso   1.000  C
  H112     1.0000 0.32390  0.83310  0.03470  Biso   1.000  H
  C126     1.0000 0.32060  0.62810  0.32030  Biso   1.000  C
  H113     1.0000 0.36960  0.60470  0.31310  Biso   1.000  H
  C127     1.0000 0.29840  0.69520  0.27490  Biso   1.000  C
  H114     1.0000 0.33170  0.71640  0.23850  Biso   1.000  H
  C128     1.0000 0.22450  0.73100  0.28457  Biso   1.000  C
  C129     1.0000 0.17700  0.69400  0.33910  Biso   1.000  C
  H115     1.0000 0.12690  0.71440  0.34600  Biso   1.000  H
  C130     1.0000 0.20470  0.62770  0.38230  Biso   1.000  C
  H116     1.0000 0.17240  0.60480  0.41890  Biso   1.000  H
  C131     1.0000 0.18120  0.08190  0.84806  Biso   1.000  C
  H117     1.0000 0.20900  0.04650  0.81580  Biso   1.000  H
  C132     1.0000 0.11380  0.11800  0.82260  Biso   1.000  C
  H118     1.0000 0.09660  0.10630  0.77450  Biso   1.000  H
  C133     1.0000 0.07060  0.17290  0.86950  Biso   1.000  C
  C134     1.0000 0.10130  0.18830  0.94120  Biso   1.000  C
  H119     1.0000 0.07600  0.22510  0.97420  Biso   1.000  H
  C135     1.0000 0.16900  0.14810  0.96160  Biso   1.000  C
  H120     1.0000 0.18790  0.15850  0.00930  Biso   1.000  H
  C136     1.0000 0.88340  0.30460  0.99020  Biso   1.000  C
  H121     1.0000 0.86910  0.29240  0.03910  Biso   1.000  H
  C137     1.0000 0.92990  0.24570  0.95380  Biso   1.000  C
  H122     1.0000 0.94520  0.19490  0.97740  Biso   1.000  H
  C138     1.0000 0.95340  0.26350  0.88150  Biso   1.000  C
  C139     1.0000 0.92440  0.33740  0.84790  Biso   1.000  C
  H123     1.0000 0.93630  0.34980  0.79850  Biso   1.000  H
  C140     1.0000 0.87760  0.39270  0.88870  Biso   1.000  C
  H124     1.0000 0.85920  0.44240  0.86560  Biso   1.000  H
  N37      1.0000 0.26293  0.93727  0.05518  Biso   1.000  N
  N38      1.0000 0.19557  0.80300  0.24760  Biso   1.000  N
  H125     1.0000 0.15560  0.82590  0.26830  Biso   1.000  H
  N39      1.0000 0.27632  0.59390  0.37448  Biso   1.000  N
  N40      1.0000 0.20971  0.09463  0.91746  Biso   1.000  N
  N41      1.0000 0.00459  0.21020  0.84214  Biso   1.000  N
  H126     1.0000 0.99350  0.19990  0.79620  Biso   1.000  H
  N42      1.0000 0.85751  0.37800  0.95992  Biso   1.000  N
  Cd7      1.0000 0.31702  0.01567  0.95557  Biso   1.000  Cd
  C141     1.0000 0.71220  0.53070  0.89500  Biso   1.000  C
  H127     1.0000 0.69120  0.47640  0.90430  Biso   1.000  H
  C142     1.0000 0.68940  0.57330  0.83130  Biso   1.000  C
  H128     1.0000 0.65440  0.54770  0.79850  Biso   1.000  H
  C143     1.0000 0.71960  0.65610  0.81640  Biso   1.000  C
  C144     1.0000 0.77050  0.69110  0.86910  Biso   1.000  C
  H129     1.0000 0.79090  0.74620  0.86260  Biso   1.000  H
  C145     1.0000 0.78990  0.64260  0.93090  Biso   1.000  C
  H130     1.0000 0.82390  0.66690  0.96530  Biso   1.000  H
  C146     1.0000 0.82060  0.87190  0.67970  Biso   1.000  C
  H131     1.0000 0.86960  0.89530  0.68690  Biso   1.000  H
  C147     1.0000 0.79840  0.80480  0.72510  Biso   1.000  C
  H132     1.0000 0.83170  0.78360  0.76150  Biso   1.000  H
  C148     1.0000 0.72450  0.76900  0.71543  Biso   1.000  C
  C149     1.0000 0.67700  0.80600  0.66090  Biso   1.000  C
  H133     1.0000 0.62690  0.78560  0.65400  Biso   1.000  H
  C150     1.0000 0.70470  0.87230  0.61770  Biso   1.000  C
  H134     1.0000 0.67240  0.89520  0.58110  Biso   1.000  H
  C151     1.0000 0.68120  0.41810  0.15194  Biso   1.000  C
  H135     1.0000 0.70900  0.45350  0.18420  Biso   1.000  H
  C152     1.0000 0.61380  0.38200  0.17740  Biso   1.000  C
  H136     1.0000 0.59660  0.39370  0.22550  Biso   1.000  H
  C153     1.0000 0.57060  0.32710  0.13050  Biso   1.000  C
  C154     1.0000 0.60130  0.31170  0.05880  Biso   1.000  C
  H137     1.0000 0.57600  0.27490  0.02580  Biso   1.000  H
  C155     1.0000 0.66900  0.35190  0.03840  Biso   1.000  C
  H138     1.0000 0.68790  0.34150  0.99070  Biso   1.000  H
  C156     1.0000 0.38340  0.19540  0.00980  Biso   1.000  C
  H139     1.0000 0.36910  0.20760  0.96090  Biso   1.000  H
  C157     1.0000 0.42990  0.25430  0.04620  Biso   1.000  C
  H140     1.0000 0.44520  0.30510  0.02260  Biso   1.000  H
  C158     1.0000 0.45340  0.23650  0.11850  Biso   1.000  C
  C159     1.0000 0.42440  0.16260  0.15210  Biso   1.000  C
  H141     1.0000 0.43630  0.15020  0.20150  Biso   1.000  H
  C160     1.0000 0.37760  0.10730  0.11130  Biso   1.000  C
  H142     1.0000 0.35920  0.05760  0.13440  Biso   1.000  H
  N43      1.0000 0.76293  0.56273  0.94482  Biso   1.000  N
  N44      1.0000 0.69557  0.69700  0.75240  Biso   1.000  N
  H143     1.0000 0.65560  0.67410  0.73170  Biso   1.000  H
  N45      1.0000 0.77632  0.90610  0.62552  Biso   1.000  N
  N46      1.0000 0.70971  0.40537  0.08254  Biso   1.000  N
  N47      1.0000 0.50459  0.28980  0.15786  Biso   1.000  N
  H144     1.0000 0.49350  0.30010  0.20380  Biso   1.000  H
  N48      1.0000 0.35751  0.12200  0.04008  Biso   1.000  N
  Cd8      1.0000 0.81702  0.48433  0.04444  Biso   1.000  Cd
