data_image0
_cell_length_a       9.1928
_cell_length_b       14.209
_cell_length_c       32.2971
_cell_angle_alpha    90
_cell_angle_beta     90
_cell_angle_gamma    90

_symmetry_space_group_name_H-M    "P 1"
_symmetry_int_tables_number       1

loop_
  _symmetry_equiv_pos_as_xyz
  'x, y, z'

loop_
  _atom_site_label
  _atom_site_occupancy
  _atom_site_fract_x
  _atom_site_fract_y
  _atom_site_fract_z
  _atom_site_thermal_displace_type
  _atom_site_B_iso_or_equiv
  _atom_site_type_symbol
  P1       1.0000 0.39400  0.06560  0.55978  Biso   1.000  P
  O1       1.0000 0.27840  0.12950  0.58190  Biso   1.000  O
  O2       1.0000 0.51350  0.03890  0.59070  Biso   1.000  O
  O3       1.0000 0.44750  0.12560  0.52360  Biso   1.000  O
  O4       1.0000 0.31900  0.97770  0.54480  Biso   1.000  O
  P2       1.0000 0.39400  0.56560  0.05978  Biso   1.000  P
  O5       1.0000 0.27840  0.62950  0.08190  Biso   1.000  O
  O6       1.0000 0.51350  0.53890  0.09070  Biso   1.000  O
  O7       1.0000 0.44750  0.62560  0.02360  Biso   1.000  O
  O8       1.0000 0.31900  0.47770  0.04480  Biso   1.000  O
  P3       1.0000 0.89400  0.06560  0.05978  Biso   1.000  P
  O9       1.0000 0.77840  0.12950  0.08190  Biso   1.000  O
  O10      1.0000 0.01350  0.03890  0.09070  Biso   1.000  O
  O11      1.0000 0.94750  0.12560  0.02360  Biso   1.000  O
  O12      1.0000 0.81900  0.97770  0.04480  Biso   1.000  O
  P4       1.0000 0.89400  0.56560  0.55978  Biso   1.000  P
  O13      1.0000 0.77840  0.62950  0.58190  Biso   1.000  O
  O14      1.0000 0.01350  0.53890  0.59070  Biso   1.000  O
  O15      1.0000 0.94750  0.62560  0.52360  Biso   1.000  O
  O16      1.0000 0.81900  0.47770  0.54480  Biso   1.000  O
  P5       1.0000 0.35600  0.68440  0.55978  Biso   1.000  P
  O17      1.0000 0.47160  0.62050  0.58190  Biso   1.000  O
  O18      1.0000 0.23650  0.71110  0.59070  Biso   1.000  O
  O19      1.0000 0.30250  0.62440  0.52360  Biso   1.000  O
  O20      1.0000 0.43100  0.77230  0.54480  Biso   1.000  O
  P6       1.0000 0.35600  0.18440  0.05978  Biso   1.000  P
  O21      1.0000 0.47160  0.12050  0.08190  Biso   1.000  O
  O22      1.0000 0.23650  0.21110  0.09070  Biso   1.000  O
  O23      1.0000 0.30250  0.12440  0.02360  Biso   1.000  O
  O24      1.0000 0.43100  0.27230  0.04480  Biso   1.000  O
  P7       1.0000 0.85600  0.68440  0.05978  Biso   1.000  P
  O25      1.0000 0.97160  0.62050  0.08190  Biso   1.000  O
  O26      1.0000 0.73650  0.71110  0.09070  Biso   1.000  O
  O27      1.0000 0.80250  0.62440  0.02360  Biso   1.000  O
  O28      1.0000 0.93100  0.77230  0.04480  Biso   1.000  O
  P8       1.0000 0.85600  0.18440  0.55978  Biso   1.000  P
  O29      1.0000 0.97160  0.12050  0.58190  Biso   1.000  O
  O30      1.0000 0.73650  0.21110  0.59070  Biso   1.000  O
  O31      1.0000 0.80250  0.12440  0.52360  Biso   1.000  O
  O32      1.0000 0.93100  0.27230  0.54480  Biso   1.000  O
  P9       1.0000 0.35600  0.06560  0.19022  Biso   1.000  P
  O33      1.0000 0.47160  0.12950  0.16810  Biso   1.000  O
  O34      1.0000 0.23650  0.03890  0.15930  Biso   1.000  O
  O35      1.0000 0.30250  0.12560  0.22640  Biso   1.000  O
  O36      1.0000 0.43100  0.97770  0.20520  Biso   1.000  O
  P10      1.0000 0.35600  0.56560  0.69022  Biso   1.000  P
  O37      1.0000 0.47160  0.62950  0.66810  Biso   1.000  O
  O38      1.0000 0.23650  0.53890  0.65930  Biso   1.000  O
  O39      1.0000 0.30250  0.62560  0.72640  Biso   1.000  O
  O40      1.0000 0.43100  0.47770  0.70520  Biso   1.000  O
  P11      1.0000 0.85600  0.06560  0.69022  Biso   1.000  P
  O41      1.0000 0.97160  0.12950  0.66810  Biso   1.000  O
  O42      1.0000 0.73650  0.03890  0.65930  Biso   1.000  O
  O43      1.0000 0.80250  0.12560  0.72640  Biso   1.000  O
  O44      1.0000 0.93100  0.97770  0.70520  Biso   1.000  O
  P12      1.0000 0.85600  0.56560  0.19022  Biso   1.000  P
  O45      1.0000 0.97160  0.62950  0.16810  Biso   1.000  O
  O46      1.0000 0.73650  0.53890  0.15930  Biso   1.000  O
  O47      1.0000 0.80250  0.62560  0.22640  Biso   1.000  O
  O48      1.0000 0.93100  0.47770  0.20520  Biso   1.000  O
  P13      1.0000 0.39400  0.68440  0.19022  Biso   1.000  P
  O49      1.0000 0.27840  0.62050  0.16810  Biso   1.000  O
  O50      1.0000 0.51350  0.71110  0.15930  Biso   1.000  O
  O51      1.0000 0.44750  0.62440  0.22640  Biso   1.000  O
  O52      1.0000 0.31900  0.77230  0.20520  Biso   1.000  O
  P14      1.0000 0.39400  0.18440  0.69022  Biso   1.000  P
  O53      1.0000 0.27840  0.12050  0.66810  Biso   1.000  O
  O54      1.0000 0.51350  0.21110  0.65930  Biso   1.000  O
  O55      1.0000 0.44750  0.12440  0.72640  Biso   1.000  O
  O56      1.0000 0.31900  0.27230  0.70520  Biso   1.000  O
  P15      1.0000 0.89400  0.68440  0.69022  Biso   1.000  P
  O57      1.0000 0.77840  0.62050  0.66810  Biso   1.000  O
  O58      1.0000 0.01350  0.71110  0.65930  Biso   1.000  O
  O59      1.0000 0.94750  0.62440  0.72640  Biso   1.000  O
  O60      1.0000 0.81900  0.77230  0.70520  Biso   1.000  O
  P16      1.0000 0.89400  0.18440  0.19022  Biso   1.000  P
  O61      1.0000 0.77840  0.12050  0.16810  Biso   1.000  O
  O62      1.0000 0.01350  0.21110  0.15930  Biso   1.000  O
  O63      1.0000 0.94750  0.12440  0.22640  Biso   1.000  O
  O64      1.0000 0.81900  0.27230  0.20520  Biso   1.000  O
  P17      1.0000 0.60600  0.93440  0.44022  Biso   1.000  P
  O65      1.0000 0.72160  0.87050  0.41810  Biso   1.000  O
  O66      1.0000 0.48650  0.96110  0.40930  Biso   1.000  O
  O67      1.0000 0.55250  0.87440  0.47640  Biso   1.000  O
  O68      1.0000 0.68100  0.02230  0.45520  Biso   1.000  O
  P18      1.0000 0.60600  0.43440  0.94022  Biso   1.000  P
  O69      1.0000 0.72160  0.37050  0.91810  Biso   1.000  O
  O70      1.0000 0.48650  0.46110  0.90930  Biso   1.000  O
  O71      1.0000 0.55250  0.37440  0.97640  Biso   1.000  O
  O72      1.0000 0.68100  0.52230  0.95520  Biso   1.000  O
  P19      1.0000 0.10600  0.93440  0.94022  Biso   1.000  P
  O73      1.0000 0.22160  0.87050  0.91810  Biso   1.000  O
  O74      1.0000 0.98650  0.96110  0.90930  Biso   1.000  O
  O75      1.0000 0.05250  0.87440  0.97640  Biso   1.000  O
  O76      1.0000 0.18100  0.02230  0.95520  Biso   1.000  O
  P20      1.0000 0.10600  0.43440  0.44022  Biso   1.000  P
  O77      1.0000 0.22160  0.37050  0.41810  Biso   1.000  O
  O78      1.0000 0.98650  0.46110  0.40930  Biso   1.000  O
  O79      1.0000 0.05250  0.37440  0.47640  Biso   1.000  O
  O80      1.0000 0.18100  0.52230  0.45520  Biso   1.000  O
  P21      1.0000 0.64400  0.31560  0.44022  Biso   1.000  P
  O81      1.0000 0.52840  0.37950  0.41810  Biso   1.000  O
  O82      1.0000 0.76350  0.28890  0.40930  Biso   1.000  O
  O83      1.0000 0.69750  0.37560  0.47640  Biso   1.000  O
  O84      1.0000 0.56900  0.22770  0.45520  Biso   1.000  O
  P22      1.0000 0.64400  0.81560  0.94022  Biso   1.000  P
  O85      1.0000 0.52840  0.87950  0.91810  Biso   1.000  O
  O86      1.0000 0.76350  0.78890  0.90930  Biso   1.000  O
  O87      1.0000 0.69750  0.87560  0.97640  Biso   1.000  O
  O88      1.0000 0.56900  0.72770  0.95520  Biso   1.000  O
  P23      1.0000 0.14400  0.31560  0.94022  Biso   1.000  P
  O89      1.0000 0.02840  0.37950  0.91810  Biso   1.000  O
  O90      1.0000 0.26350  0.28890  0.90930  Biso   1.000  O
  O91      1.0000 0.19750  0.37560  0.97640  Biso   1.000  O
  O92      1.0000 0.06900  0.22770  0.95520  Biso   1.000  O
  P24      1.0000 0.14400  0.81560  0.44022  Biso   1.000  P
  O93      1.0000 0.02840  0.87950  0.41810  Biso   1.000  O
  O94      1.0000 0.26350  0.78890  0.40930  Biso   1.000  O
  O95      1.0000 0.19750  0.87560  0.47640  Biso   1.000  O
  O96      1.0000 0.06900  0.72770  0.45520  Biso   1.000  O
  P25      1.0000 0.64400  0.93440  0.80978  Biso   1.000  P
  O97      1.0000 0.52840  0.87050  0.83190  Biso   1.000  O
  O98      1.0000 0.76350  0.96110  0.84070  Biso   1.000  O
  O99      1.0000 0.69750  0.87440  0.77360  Biso   1.000  O
  O100     1.0000 0.56900  0.02230  0.79480  Biso   1.000  O
  P26      1.0000 0.64400  0.43440  0.30978  Biso   1.000  P
  O101     1.0000 0.52840  0.37050  0.33190  Biso   1.000  O
  O102     1.0000 0.76350  0.46110  0.34070  Biso   1.000  O
  O103     1.0000 0.69750  0.37440  0.27360  Biso   1.000  O
  O104     1.0000 0.56900  0.52230  0.29480  Biso   1.000  O
  P27      1.0000 0.14400  0.93440  0.30978  Biso   1.000  P
  O105     1.0000 0.02840  0.87050  0.33190  Biso   1.000  O
  O106     1.0000 0.26350  0.96110  0.34070  Biso   1.000  O
  O107     1.0000 0.19750  0.87440  0.27360  Biso   1.000  O
  O108     1.0000 0.06900  0.02230  0.29480  Biso   1.000  O
  P28      1.0000 0.14400  0.43440  0.80978  Biso   1.000  P
  O109     1.0000 0.02840  0.37050  0.83190  Biso   1.000  O
  O110     1.0000 0.26350  0.46110  0.84070  Biso   1.000  O
  O111     1.0000 0.19750  0.37440  0.77360  Biso   1.000  O
  O112     1.0000 0.06900  0.52230  0.79480  Biso   1.000  O
  P29      1.0000 0.60600  0.31560  0.80978  Biso   1.000  P
  O113     1.0000 0.72160  0.37950  0.83190  Biso   1.000  O
  O114     1.0000 0.48650  0.28890  0.84070  Biso   1.000  O
  O115     1.0000 0.55250  0.37560  0.77360  Biso   1.000  O
  O116     1.0000 0.68100  0.22770  0.79480  Biso   1.000  O
  P30      1.0000 0.60600  0.81560  0.30978  Biso   1.000  P
  O117     1.0000 0.72160  0.87950  0.33190  Biso   1.000  O
  O118     1.0000 0.48650  0.78890  0.34070  Biso   1.000  O
  O119     1.0000 0.55250  0.87560  0.27360  Biso   1.000  O
  O120     1.0000 0.68100  0.72770  0.29480  Biso   1.000  O
  P31      1.0000 0.10600  0.31560  0.30978  Biso   1.000  P
  O121     1.0000 0.22160  0.37950  0.33190  Biso   1.000  O
  O122     1.0000 0.98650  0.28890  0.34070  Biso   1.000  O
  O123     1.0000 0.05250  0.37560  0.27360  Biso   1.000  O
  O124     1.0000 0.18100  0.22770  0.29480  Biso   1.000  O
  P32      1.0000 0.10600  0.81560  0.80978  Biso   1.000  P
  O125     1.0000 0.22160  0.87950  0.83190  Biso   1.000  O
  O126     1.0000 0.98650  0.78890  0.84070  Biso   1.000  O
  O127     1.0000 0.05250  0.87560  0.77360  Biso   1.000  O
  O128     1.0000 0.18100  0.72770  0.79480  Biso   1.000  O
  Nb1      1.0000 0.12500  0.12500  0.62500  Biso   1.000  Nb
  Nb2      1.0000 0.62500  0.62500  0.62500  Biso   1.000  Nb
  Nb3      1.0000 0.62500  0.12500  0.12500  Biso   1.000  Nb
  Nb4      1.0000 0.12500  0.62500  0.12500  Biso   1.000  Nb
  Nb5      1.0000 0.87500  0.87500  0.37500  Biso   1.000  Nb
  Nb6      1.0000 0.37500  0.37500  0.37500  Biso   1.000  Nb
  Nb7      1.0000 0.37500  0.87500  0.87500  Biso   1.000  Nb
  Nb8      1.0000 0.87500  0.37500  0.87500  Biso   1.000  Nb
  Zn1      1.0000 0.62500  0.12500  0.49133  Biso   1.000  Zn
  Zn2      1.0000 0.62500  0.62500  0.99133  Biso   1.000  Zn
  Zn3      1.0000 0.12500  0.62500  0.49133  Biso   1.000  Zn
  Zn4      1.0000 0.12500  0.12500  0.99133  Biso   1.000  Zn
  Zn5      1.0000 0.12500  0.12500  0.25867  Biso   1.000  Zn
  Zn6      1.0000 0.12500  0.62500  0.75867  Biso   1.000  Zn
  Zn7      1.0000 0.62500  0.62500  0.25867  Biso   1.000  Zn
  Zn8      1.0000 0.62500  0.12500  0.75867  Biso   1.000  Zn
  Zn9      1.0000 0.37500  0.87500  0.50867  Biso   1.000  Zn
  Zn10     1.0000 0.37500  0.37500  0.00867  Biso   1.000  Zn
  Zn11     1.0000 0.87500  0.37500  0.50867  Biso   1.000  Zn
  Zn12     1.0000 0.87500  0.87500  0.00867  Biso   1.000  Zn
  Zn13     1.0000 0.87500  0.87500  0.74133  Biso   1.000  Zn
  Zn14     1.0000 0.87500  0.37500  0.24133  Biso   1.000  Zn
  Zn15     1.0000 0.37500  0.37500  0.74133  Biso   1.000  Zn
  Zn16     1.0000 0.37500  0.87500  0.24133  Biso   1.000  Zn
  Zn17     1.0000 0.62500  0.12500  0.62500  Biso   1.000  Zn
  Zn18     1.0000 0.12500  0.62500  0.62500  Biso   1.000  Zn
  Zn19     1.0000 0.12500  0.12500  0.12500  Biso   1.000  Zn
  Zn20     1.0000 0.62500  0.62500  0.12500  Biso   1.000  Zn
  Zn21     1.0000 0.37500  0.87500  0.37500  Biso   1.000  Zn
  Zn22     1.0000 0.87500  0.37500  0.37500  Biso   1.000  Zn
  Zn23     1.0000 0.87500  0.87500  0.87500  Biso   1.000  Zn
  Zn24     1.0000 0.37500  0.37500  0.87500  Biso   1.000  Zn
  F1       1.0000 0.12500  0.98960  0.62500  Biso   1.000  F
  F2       1.0000 0.12500  0.48960  0.12500  Biso   1.000  F
  F3       1.0000 0.62500  0.76040  0.62500  Biso   1.000  F
  F4       1.0000 0.62500  0.26040  0.12500  Biso   1.000  F
  F5       1.0000 0.62500  0.98960  0.12500  Biso   1.000  F
  F6       1.0000 0.62500  0.48960  0.62500  Biso   1.000  F
  F7       1.0000 0.12500  0.76040  0.12500  Biso   1.000  F
  F8       1.0000 0.12500  0.26040  0.62500  Biso   1.000  F
  F9       1.0000 0.87500  0.01040  0.37500  Biso   1.000  F
  F10      1.0000 0.87500  0.51040  0.87500  Biso   1.000  F
  F11      1.0000 0.37500  0.23960  0.37500  Biso   1.000  F
  F12      1.0000 0.37500  0.73960  0.87500  Biso   1.000  F
  F13      1.0000 0.37500  0.01040  0.87500  Biso   1.000  F
  F14      1.0000 0.37500  0.51040  0.37500  Biso   1.000  F
  F15      1.0000 0.87500  0.23960  0.87500  Biso   1.000  F
  F16      1.0000 0.87500  0.73960  0.37500  Biso   1.000  F
