data_image0
_cell_length_a       5.2515
_cell_length_b       15.1973
_cell_length_c       17.5701
_cell_angle_alpha    90
_cell_angle_beta     91.459
_cell_angle_gamma    90

_symmetry_space_group_name_H-M    "P 1"
_symmetry_int_tables_number       1

loop_
  _symmetry_equiv_pos_as_xyz
  'x, y, z'

loop_
  _atom_site_label
  _atom_site_occupancy
  _atom_site_fract_x
  _atom_site_fract_y
  _atom_site_fract_z
  _atom_site_thermal_displace_type
  _atom_site_B_iso_or_equiv
  _atom_site_type_symbol
  Zn1      1.0000 0.19770  0.40350  0.45900  Biso   1.000  Zn
  Zn2      1.0000 0.10650  0.25580  0.18640  Biso   1.000  Zn
  Zn3      1.0000 0.29350  0.10070  0.48820  Biso   1.000  Zn
  Zn4      1.0000 0.79010  0.23180  0.44880  Biso   1.000  Zn
  P1       1.0000 0.27820  0.24070  0.35850  Biso   1.000  P
  P2       1.0000 0.28200  0.61380  0.44180  Biso   1.000  P
  P3       1.0000 0.27740  0.40900  0.08430  Biso   1.000  P
  O1       1.0000 0.23400  0.33830  0.36490  Biso   1.000  O
  O2       1.0000 0.17790  0.52300  0.42460  Biso   1.000  O
  O3       1.0000 0.56590  0.61830  0.45770  Biso   1.000  O
  O4       1.0000 0.13980  0.64930  0.51220  Biso   1.000  O
  O5       1.0000 0.16890  0.20410  0.28390  Biso   1.000  O
  O6       1.0000 0.21460  0.37440  0.16330  Biso   1.000  O
  O7       1.0000 0.21150  0.67210  0.37370  Biso   1.000  O
  O8       1.0000 0.18020  0.50240  0.07810  Biso   1.000  O
  O9       1.0000 0.13460  0.35340  0.02210  Biso   1.000  O
  O10      1.0000 0.56420  0.40040  0.07260  Biso   1.000  O
  O11      1.0000 0.13550  0.19470  0.42540  Biso   1.000  O
  O12      1.0000 0.55750  0.21370  0.36620  Biso   1.000  O
  Zn5      1.0000 0.30230  0.90350  0.04100  Biso   1.000  Zn
  Zn6      1.0000 0.39350  0.75580  0.31360  Biso   1.000  Zn
  Zn7      1.0000 0.20650  0.60070  0.01180  Biso   1.000  Zn
  Zn8      1.0000 0.70990  0.73180  0.05120  Biso   1.000  Zn
  P4       1.0000 0.22180  0.74070  0.14150  Biso   1.000  P
  P5       1.0000 0.21800  0.11380  0.05820  Biso   1.000  P
  P6       1.0000 0.22260  0.90900  0.41570  Biso   1.000  P
  O13      1.0000 0.26600  0.83830  0.13510  Biso   1.000  O
  O14      1.0000 0.32210  0.02300  0.07540  Biso   1.000  O
  O15      1.0000 0.93410  0.11830  0.04230  Biso   1.000  O
  O16      1.0000 0.36020  0.14930  0.98780  Biso   1.000  O
  O17      1.0000 0.33110  0.70410  0.21610  Biso   1.000  O
  O18      1.0000 0.28540  0.87440  0.33670  Biso   1.000  O
  O19      1.0000 0.28850  0.17210  0.12630  Biso   1.000  O
  O20      1.0000 0.31980  0.00240  0.42190  Biso   1.000  O
  O21      1.0000 0.36540  0.85340  0.47790  Biso   1.000  O
  O22      1.0000 0.93580  0.90040  0.42740  Biso   1.000  O
  O23      1.0000 0.36450  0.69470  0.07460  Biso   1.000  O
  O24      1.0000 0.94250  0.71370  0.13380  Biso   1.000  O
  Zn9      1.0000 0.80230  0.59650  0.54100  Biso   1.000  Zn
  Zn10     1.0000 0.89350  0.74420  0.81360  Biso   1.000  Zn
  Zn11     1.0000 0.70650  0.89930  0.51180  Biso   1.000  Zn
  Zn12     1.0000 0.20990  0.76820  0.55120  Biso   1.000  Zn
  P7       1.0000 0.72180  0.75930  0.64150  Biso   1.000  P
  P8       1.0000 0.71800  0.38620  0.55820  Biso   1.000  P
  P9       1.0000 0.72260  0.59100  0.91570  Biso   1.000  P
  O25      1.0000 0.76600  0.66170  0.63510  Biso   1.000  O
  O26      1.0000 0.82210  0.47700  0.57540  Biso   1.000  O
  O27      1.0000 0.43410  0.38170  0.54230  Biso   1.000  O
  O28      1.0000 0.86020  0.35070  0.48780  Biso   1.000  O
  O29      1.0000 0.83110  0.79590  0.71610  Biso   1.000  O
  O30      1.0000 0.78540  0.62560  0.83670  Biso   1.000  O
  O31      1.0000 0.78850  0.32790  0.62630  Biso   1.000  O
  O32      1.0000 0.81980  0.49760  0.92190  Biso   1.000  O
  O33      1.0000 0.86540  0.64660  0.97790  Biso   1.000  O
  O34      1.0000 0.43580  0.59960  0.92740  Biso   1.000  O
  O35      1.0000 0.86450  0.80530  0.57460  Biso   1.000  O
  O36      1.0000 0.44250  0.78630  0.63380  Biso   1.000  O
  Zn13     1.0000 0.69770  0.09650  0.95900  Biso   1.000  Zn
  Zn14     1.0000 0.60650  0.24420  0.68640  Biso   1.000  Zn
  Zn15     1.0000 0.79350  0.39930  0.98820  Biso   1.000  Zn
  Zn16     1.0000 0.29010  0.26820  0.94880  Biso   1.000  Zn
  P10      1.0000 0.77820  0.25930  0.85850  Biso   1.000  P
  P11      1.0000 0.78200  0.88620  0.94180  Biso   1.000  P
  P12      1.0000 0.77740  0.09100  0.58430  Biso   1.000  P
  O37      1.0000 0.73400  0.16170  0.86490  Biso   1.000  O
  O38      1.0000 0.67790  0.97700  0.92460  Biso   1.000  O
  O39      1.0000 0.06590  0.88170  0.95770  Biso   1.000  O
  O40      1.0000 0.63980  0.85070  0.01220  Biso   1.000  O
  O41      1.0000 0.66890  0.29590  0.78390  Biso   1.000  O
  O42      1.0000 0.71460  0.12560  0.66330  Biso   1.000  O
  O43      1.0000 0.71150  0.82790  0.87370  Biso   1.000  O
  O44      1.0000 0.68020  0.99760  0.57810  Biso   1.000  O
  O45      1.0000 0.63460  0.14660  0.52210  Biso   1.000  O
  O46      1.0000 0.06420  0.09960  0.57260  Biso   1.000  O
  O47      1.0000 0.63550  0.30530  0.92540  Biso   1.000  O
  O48      1.0000 0.05750  0.28630  0.86620  Biso   1.000  O
