data_image0
_cell_length_a       8.213
_cell_length_b       10.0257
_cell_length_c       15.5133
_cell_angle_alpha    80.842
_cell_angle_beta     75.671
_cell_angle_gamma    89.02

_symmetry_space_group_name_H-M    "P 1"
_symmetry_int_tables_number       1

loop_
  _symmetry_equiv_pos_as_xyz
  'x, y, z'

loop_
  _atom_site_label
  _atom_site_occupancy
  _atom_site_fract_x
  _atom_site_fract_y
  _atom_site_fract_z
  _atom_site_thermal_displace_type
  _atom_site_B_iso_or_equiv
  _atom_site_type_symbol
  Zn1      1.0000 0.15924  0.26109  0.22170  Biso   1.000  Zn
  Zn2      1.0000 0.75812  0.49598  0.02330  Biso   1.000  Zn
  Zn3      1.0000 0.86509  0.85692  0.48061  Biso   1.000  Zn
  Zn4      1.0000 0.71293  0.48402  0.53938  Biso   1.000  Zn
  P1       1.0000 0.97416  0.26598  0.06147  Biso   1.000  P
  P2       1.0000 0.37785  0.51083  0.13885  Biso   1.000  P
  P3       1.0000 0.19541  0.99095  0.35647  Biso   1.000  P
  P4       1.0000 0.00459  0.39984  0.39011  Biso   1.000  P
  P5       1.0000 0.51975  0.73438  0.48321  Biso   1.000  P
  O1       1.0000 0.82000  0.34310  0.10390  Biso   1.000  O
  O2       1.0000 0.08660  0.35580  0.98095  Biso   1.000  O
  O3       1.0000 0.00810  0.96330  0.37358  Biso   1.000  O
  O4       1.0000 0.54530  0.56670  0.07798  Biso   1.000  O
  O5       1.0000 0.23410  0.54960  0.09394  Biso   1.000  O
  O6       1.0000 0.54700  0.62590  0.55765  Biso   1.000  O
  O7       1.0000 0.37750  0.35900  0.16826  Biso   1.000  O
  O8       1.0000 0.68610  0.80360  0.42679  Biso   1.000  O
  O9       1.0000 0.84570  0.48000  0.42043  Biso   1.000  O
  O10      1.0000 0.06430  0.20400  0.13135  Biso   1.000  O
  O11      1.0000 0.25800  0.10840  0.28077  Biso   1.000  O
  O12      1.0000 0.16130  0.49460  0.37347  Biso   1.000  O
  O13      1.0000 0.42900  0.68320  0.41919  Biso   1.000  O
  O14      1.0000 0.01530  0.27620  0.45864  Biso   1.000  O
  O15      1.0000 0.24480  0.01220  0.44234  Biso   1.000  O
  O16      1.0000 0.00110  0.36420  0.29700  Biso   1.000  O
  O17      1.0000 0.91280  0.14550  0.02390  Biso   1.000  O
  H1       1.0000 0.81610  0.15820  0.01930  Biso   1.000  H
  O18      1.0000 0.40630  0.83850  0.53436  Biso   1.000  O
  H2       1.0000 0.36240  0.88740  0.49930  Biso   1.000  H
  O19      1.0000 0.35220  0.58470  0.22252  Biso   1.000  O
  H3       1.0000 0.28580  0.54060  0.26560  Biso   1.000  H
  O20      1.0000 0.29510  0.86710  0.32089  Biso   1.000  O
  H4       1.0000 0.32680  0.82110  0.36200  Biso   1.000  H
  Zn5      1.0000 0.84076  0.73891  0.77830  Biso   1.000  Zn
  Zn6      1.0000 0.24188  0.50402  0.97670  Biso   1.000  Zn
  Zn7      1.0000 0.13491  0.14308  0.51939  Biso   1.000  Zn
  Zn8      1.0000 0.28707  0.51598  0.46062  Biso   1.000  Zn
  P6       1.0000 0.02584  0.73402  0.93853  Biso   1.000  P
  P7       1.0000 0.62215  0.48917  0.86115  Biso   1.000  P
  P8       1.0000 0.80459  0.00905  0.64353  Biso   1.000  P
  P9       1.0000 0.99541  0.60016  0.60989  Biso   1.000  P
  P10      1.0000 0.48025  0.26562  0.51679  Biso   1.000  P
  O21      1.0000 0.18000  0.65690  0.89610  Biso   1.000  O
  O22      1.0000 0.91340  0.64420  0.01905  Biso   1.000  O
  O23      1.0000 0.99190  0.03670  0.62642  Biso   1.000  O
  O24      1.0000 0.45470  0.43330  0.92202  Biso   1.000  O
  O25      1.0000 0.76590  0.45040  0.90606  Biso   1.000  O
  O26      1.0000 0.45300  0.37410  0.44235  Biso   1.000  O
  O27      1.0000 0.62250  0.64100  0.83174  Biso   1.000  O
  O28      1.0000 0.31390  0.19640  0.57321  Biso   1.000  O
  O29      1.0000 0.15430  0.52000  0.57957  Biso   1.000  O
  O30      1.0000 0.93570  0.79600  0.86865  Biso   1.000  O
  O31      1.0000 0.74200  0.89160  0.71923  Biso   1.000  O
  O32      1.0000 0.83870  0.50540  0.62653  Biso   1.000  O
  O33      1.0000 0.57100  0.31680  0.58081  Biso   1.000  O
  O34      1.0000 0.98470  0.72380  0.54136  Biso   1.000  O
  O35      1.0000 0.75520  0.98780  0.55766  Biso   1.000  O
  O36      1.0000 0.99890  0.63580  0.70300  Biso   1.000  O
  O37      1.0000 0.08720  0.85450  0.97610  Biso   1.000  O
  H5       1.0000 0.18390  0.84180  0.98070  Biso   1.000  H
  O38      1.0000 0.59370  0.16150  0.46564  Biso   1.000  O
  H6       1.0000 0.63760  0.11260  0.50070  Biso   1.000  H
  O39      1.0000 0.64780  0.41530  0.77748  Biso   1.000  O
  H7       1.0000 0.71420  0.45940  0.73440  Biso   1.000  H
  O40      1.0000 0.70490  0.13290  0.67911  Biso   1.000  O
  H8       1.0000 0.67320  0.17890  0.63800  Biso   1.000  H
