data_image0
_cell_length_a       10.464
_cell_length_b       17.142
_cell_length_c       8.4481
_cell_angle_alpha    90
_cell_angle_beta     90
_cell_angle_gamma    90

_symmetry_space_group_name_H-M    "P 1"
_symmetry_int_tables_number       1

loop_
  _symmetry_equiv_pos_as_xyz
  'x, y, z'

loop_
  _atom_site_label
  _atom_site_occupancy
  _atom_site_fract_x
  _atom_site_fract_y
  _atom_site_fract_z
  _atom_site_thermal_displace_type
  _atom_site_B_iso_or_equiv
  _atom_site_type_symbol
  V1       1.0000 0.85891  0.43838  0.22045  Biso   1.000  V
  P1       1.0000 0.62872  0.41284  0.47438  Biso   1.000  P
  O1       1.0000 0.84236  0.32603  0.25430  Biso   1.000  O
  O2       1.0000 0.66278  0.45293  0.63259  Biso   1.000  O
  O3       1.0000 0.48260  0.41388  0.45157  Biso   1.000  O
  O4       1.0000 0.67482  0.32784  0.49053  Biso   1.000  O
  O5       1.0000 0.69461  0.45521  0.33579  Biso   1.000  O
  H1       1.0000 0.90100  0.31000  0.21900  Biso   1.000  H
  V2       1.0000 0.64109  0.56162  0.72045  Biso   1.000  V
  P2       1.0000 0.87128  0.58716  0.97438  Biso   1.000  P
  O6       1.0000 0.65764  0.67397  0.75430  Biso   1.000  O
  O7       1.0000 0.83722  0.54707  0.13259  Biso   1.000  O
  O8       1.0000 0.01740  0.58612  0.95157  Biso   1.000  O
  O9       1.0000 0.82518  0.67216  0.99053  Biso   1.000  O
  O10      1.0000 0.80539  0.54479  0.83579  Biso   1.000  O
  H2       1.0000 0.59900  0.69000  0.71900  Biso   1.000  H
  V3       1.0000 0.14109  0.93838  0.77955  Biso   1.000  V
  P3       1.0000 0.37128  0.91284  0.52562  Biso   1.000  P
  O11      1.0000 0.15764  0.82603  0.74570  Biso   1.000  O
  O12      1.0000 0.33722  0.95293  0.36741  Biso   1.000  O
  O13      1.0000 0.51740  0.91388  0.54843  Biso   1.000  O
  O14      1.0000 0.32518  0.82784  0.50947  Biso   1.000  O
  O15      1.0000 0.30539  0.95521  0.66421  Biso   1.000  O
  H3       1.0000 0.09900  0.81000  0.78100  Biso   1.000  H
  V4       1.0000 0.35891  0.06162  0.27955  Biso   1.000  V
  P4       1.0000 0.12872  0.08716  0.02562  Biso   1.000  P
  O16      1.0000 0.34236  0.17397  0.24570  Biso   1.000  O
  O17      1.0000 0.16278  0.04707  0.86741  Biso   1.000  O
  O18      1.0000 0.98260  0.08612  0.04843  Biso   1.000  O
  O19      1.0000 0.17482  0.17216  0.00947  Biso   1.000  O
  O20      1.0000 0.19461  0.04479  0.16421  Biso   1.000  O
  H4       1.0000 0.40100  0.19000  0.28100  Biso   1.000  H
  V5       1.0000 0.14109  0.56162  0.77955  Biso   1.000  V
  P5       1.0000 0.37128  0.58716  0.52562  Biso   1.000  P
  O21      1.0000 0.15764  0.67397  0.74570  Biso   1.000  O
  O22      1.0000 0.33722  0.54707  0.36741  Biso   1.000  O
  O23      1.0000 0.51740  0.58612  0.54843  Biso   1.000  O
  O24      1.0000 0.32518  0.67216  0.50947  Biso   1.000  O
  O25      1.0000 0.30539  0.54479  0.66421  Biso   1.000  O
  H5       1.0000 0.09900  0.69000  0.78100  Biso   1.000  H
  V6       1.0000 0.35891  0.43838  0.27955  Biso   1.000  V
  P6       1.0000 0.12872  0.41284  0.02562  Biso   1.000  P
  O26      1.0000 0.34236  0.32603  0.24570  Biso   1.000  O
  O27      1.0000 0.16278  0.45293  0.86741  Biso   1.000  O
  O28      1.0000 0.98260  0.41388  0.04843  Biso   1.000  O
  O29      1.0000 0.17482  0.32784  0.00947  Biso   1.000  O
  O30      1.0000 0.19461  0.45521  0.16421  Biso   1.000  O
  H6       1.0000 0.40100  0.31000  0.28100  Biso   1.000  H
  V7       1.0000 0.85891  0.06162  0.22045  Biso   1.000  V
  P7       1.0000 0.62872  0.08716  0.47438  Biso   1.000  P
  O31      1.0000 0.84236  0.17397  0.25430  Biso   1.000  O
  O32      1.0000 0.66278  0.04707  0.63259  Biso   1.000  O
  O33      1.0000 0.48260  0.08612  0.45157  Biso   1.000  O
  O34      1.0000 0.67482  0.17216  0.49053  Biso   1.000  O
  O35      1.0000 0.69461  0.04479  0.33579  Biso   1.000  O
  H7       1.0000 0.90100  0.19000  0.21900  Biso   1.000  H
  V8       1.0000 0.64109  0.93838  0.72045  Biso   1.000  V
  P8       1.0000 0.87128  0.91284  0.97438  Biso   1.000  P
  O36      1.0000 0.65764  0.82603  0.75430  Biso   1.000  O
  O37      1.0000 0.83722  0.95293  0.13259  Biso   1.000  O
  O38      1.0000 0.01740  0.91388  0.95157  Biso   1.000  O
  O39      1.0000 0.82518  0.82784  0.99053  Biso   1.000  O
  O40      1.0000 0.80539  0.95521  0.83579  Biso   1.000  O
  H8       1.0000 0.59900  0.81000  0.71900  Biso   1.000  H
  V9       1.0000 0.71662  0.25000  0.32863  Biso   1.000  V
  V10      1.0000 0.78338  0.75000  0.82863  Biso   1.000  V
  V11      1.0000 0.28338  0.75000  0.67137  Biso   1.000  V
  V12      1.0000 0.21662  0.25000  0.17137  Biso   1.000  V
