data_HEZSEK_clean
_audit_creation_date              2014-07-02
_audit_creation_method            'Materials Studio'
_symmetry_space_group_name_H-M    'P1'
_symmetry_Int_Tables_number       1
_symmetry_cell_setting            triclinic
loop_
_symmetry_equiv_pos_as_xyz
  x,y,z
_cell_length_a                    8.8180
_cell_length_b                    10.2000
_cell_length_c                    19.7370
_cell_angle_alpha                 90.0000
_cell_angle_beta                  102.4000
_cell_angle_gamma                 90.0000
loop_
_atom_site_label
_atom_site_type_symbol
_atom_site_fract_x
_atom_site_fract_y
_atom_site_fract_z
_atom_site_U_iso_or_equiv
_atom_site_adp_type
_atom_site_occupancy
Ba1    Ba    0.65658   0.81035   0.96774   0.01267  Uiso   1.00
Ba2    Ba    0.34342   0.31035   0.53226   0.01267  Uiso   1.00
Ba3    Ba    0.34342   0.18965   0.03226   0.01267  Uiso   1.00
Ba4    Ba    0.65658   0.68965   0.46774   0.01267  Uiso   1.00
Cu1    Cu    0.76377   0.06618   0.79623   0.01267  Uiso   1.00
Cu2    Cu    0.23623   0.56618   0.70377   0.01267  Uiso   1.00
Cu3    Cu    0.23623   0.93382   0.20377   0.01267  Uiso   1.00
Cu4    Cu    0.76377   0.43382   0.29623   0.01267  Uiso   1.00
H1     H     0.73740   0.32020   0.68830   0.01267  Uiso   1.00
H2     H     0.86510   0.41670   0.74250   0.01267  Uiso   1.00
H3     H     0.61530   0.41940   0.77470   0.01267  Uiso   1.00
H4     H     0.75440   0.35740   0.83680   0.01267  Uiso   1.00
H5     H     0.90140   0.17550   0.65870   0.01267  Uiso   1.00
H6     H     0.05810   0.12750   0.69490   0.01267  Uiso   1.00
H7     H     0.14140   0.23950   0.82280   0.01267  Uiso   1.00
H8     H     0.05550   0.36710   0.82710   0.01267  Uiso   1.00
H9     H     0.62970   0.26040   0.89240   0.01267  Uiso   1.00
H10    H     0.44740   0.27200   0.84940   0.01267  Uiso   1.00
H11    H     0.42590   0.27610   0.70960   0.01267  Uiso   1.00
H12    H     0.39640   0.14860   0.74760   0.01267  Uiso   1.00
H13    H     0.26260   0.82020   0.81170   0.01267  Uiso   1.00
H14    H     0.13490   0.91670   0.75750   0.01267  Uiso   1.00
H15    H     0.38470   0.91940   0.72530   0.01267  Uiso   1.00
H16    H     0.24560   0.85740   0.66320   0.01267  Uiso   1.00
H17    H     0.09860   0.67550   0.84130   0.01267  Uiso   1.00
H18    H     0.94190   0.62750   0.80510   0.01267  Uiso   1.00
H19    H     0.85860   0.73950   0.67720   0.01267  Uiso   1.00
H20    H     0.94450   0.86710   0.67290   0.01267  Uiso   1.00
H21    H     0.37030   0.76040   0.60760   0.01267  Uiso   1.00
H22    H     0.55260   0.77200   0.65060   0.01267  Uiso   1.00
H23    H     0.57410   0.77610   0.79040   0.01267  Uiso   1.00
H24    H     0.60360   0.64860   0.75240   0.01267  Uiso   1.00
H25    H     0.26260   0.67980   0.31170   0.01267  Uiso   1.00
H26    H     0.13490   0.58330   0.25750   0.01267  Uiso   1.00
H27    H     0.38470   0.58060   0.22530   0.01267  Uiso   1.00
H28    H     0.24560   0.64260   0.16320   0.01267  Uiso   1.00
H29    H     0.09860   0.82450   0.34130   0.01267  Uiso   1.00
H30    H     0.94190   0.87250   0.30510   0.01267  Uiso   1.00
H31    H     0.85860   0.76050   0.17720   0.01267  Uiso   1.00
H32    H     0.94450   0.63290   0.17290   0.01267  Uiso   1.00
H33    H     0.37030   0.73960   0.10760   0.01267  Uiso   1.00
H34    H     0.55260   0.72800   0.15060   0.01267  Uiso   1.00
H35    H     0.57410   0.72390   0.29040   0.01267  Uiso   1.00
H36    H     0.60360   0.85140   0.25240   0.01267  Uiso   1.00
H37    H     0.73740   0.17980   0.18830   0.01267  Uiso   1.00
H38    H     0.86510   0.08330   0.24250   0.01267  Uiso   1.00
H39    H     0.61530   0.08060   0.27470   0.01267  Uiso   1.00
H40    H     0.75440   0.14260   0.33680   0.01267  Uiso   1.00
H41    H     0.90140   0.32450   0.15870   0.01267  Uiso   1.00
H42    H     0.05810   0.37250   0.19490   0.01267  Uiso   1.00
H43    H     0.14140   0.26050   0.32280   0.01267  Uiso   1.00
H44    H     0.05550   0.13290   0.32710   0.01267  Uiso   1.00
H45    H     0.62970   0.23960   0.39240   0.01267  Uiso   1.00
H46    H     0.44740   0.22800   0.34940   0.01267  Uiso   1.00
H47    H     0.42590   0.22390   0.20960   0.01267  Uiso   1.00
H48    H     0.39640   0.35140   0.24760   0.01267  Uiso   1.00
C1     C     0.79606   0.33707   0.73747   0.01267  Uiso   1.00
C2     C     0.69066   0.34404   0.78834   0.01267  Uiso   1.00
C3     C     0.07871   0.31430   0.67119   0.01267  Uiso   1.00
C4     C     0.98796   0.20443   0.69842   0.01267  Uiso   1.00
C5     C     0.03196   0.27035   0.82067   0.01267  Uiso   1.00
C6     C     0.99962   0.21524   0.88760   0.01267  Uiso   1.00
C7     C     0.54472   0.21720   0.85711   0.01267  Uiso   1.00
C8     C     0.51454   0.07862   0.88044   0.01267  Uiso   1.00
C9     C     0.48312   0.19601   0.73153   0.01267  Uiso   1.00
C10    C     0.53019   0.10336   0.67937   0.01267  Uiso   1.00
C11    C     0.20394   0.83707   0.76253   0.01267  Uiso   1.00
C12    C     0.30934   0.84404   0.71166   0.01267  Uiso   1.00
C13    C     0.92129   0.81430   0.82881   0.01267  Uiso   1.00
C14    C     0.01204   0.70443   0.80158   0.01267  Uiso   1.00
C15    C     0.96804   0.77035   0.67933   0.01267  Uiso   1.00
C16    C     0.00038   0.71524   0.61240   0.01267  Uiso   1.00
C17    C     0.45528   0.71720   0.64289   0.01267  Uiso   1.00
C18    C     0.48546   0.57862   0.61956   0.01267  Uiso   1.00
C19    C     0.51688   0.69601   0.76847   0.01267  Uiso   1.00
C20    C     0.46981   0.60336   0.82063   0.01267  Uiso   1.00
C21    C     0.20394   0.66293   0.26253   0.01267  Uiso   1.00
C22    C     0.30934   0.65596   0.21166   0.01267  Uiso   1.00
C23    C     0.92129   0.68570   0.32881   0.01267  Uiso   1.00
C24    C     0.01204   0.79557   0.30158   0.01267  Uiso   1.00
C25    C     0.96804   0.72965   0.17933   0.01267  Uiso   1.00
C26    C     0.00038   0.78476   0.11240   0.01267  Uiso   1.00
C27    C     0.45528   0.78280   0.14289   0.01267  Uiso   1.00
C28    C     0.48546   0.92138   0.11956   0.01267  Uiso   1.00
C29    C     0.51688   0.80399   0.26847   0.01267  Uiso   1.00
C30    C     0.46981   0.89664   0.32063   0.01267  Uiso   1.00
C31    C     0.79606   0.16293   0.23747   0.01267  Uiso   1.00
C32    C     0.69066   0.15596   0.28834   0.01267  Uiso   1.00
C33    C     0.07871   0.18570   0.17119   0.01267  Uiso   1.00
C34    C     0.98796   0.29557   0.19842   0.01267  Uiso   1.00
C35    C     0.03196   0.22965   0.32067   0.01267  Uiso   1.00
C36    C     0.99962   0.28476   0.38760   0.01267  Uiso   1.00
C37    C     0.54472   0.28280   0.35711   0.01267  Uiso   1.00
C38    C     0.51454   0.42138   0.38044   0.01267  Uiso   1.00
C39    C     0.48312   0.30399   0.23153   0.01267  Uiso   1.00
C40    C     0.53019   0.39664   0.17937   0.01267  Uiso   1.00
N1     N     0.91832   0.23700   0.75741   0.01267  Uiso   1.00
N2     N     0.60952   0.21814   0.79384   0.01267  Uiso   1.00
N3     N     0.08168   0.73700   0.74259   0.01267  Uiso   1.00
N4     N     0.39048   0.71814   0.70616   0.01267  Uiso   1.00
N5     N     0.08168   0.76300   0.24259   0.01267  Uiso   1.00
N6     N     0.39048   0.78186   0.20616   0.01267  Uiso   1.00
N7     N     0.91832   0.26300   0.25741   0.01267  Uiso   1.00
N8     N     0.60952   0.28186   0.29384   0.01267  Uiso   1.00
O1     O     0.11789   0.29501   0.61486   0.01267  Uiso   1.00
O2     O     0.10883   0.41470   0.70901   0.01267  Uiso   1.00
O3     O     0.07985   0.25587   0.94255   0.01267  Uiso   1.00
O4     O     0.89389   0.12907   0.88473   0.01267  Uiso   1.00
O5     O     0.43477   0.06762   0.92412   0.01267  Uiso   1.00
O6     O     0.57910   0.98547   0.85601   0.01267  Uiso   1.00
O7     O     0.44662   0.09961   0.62063   0.01267  Uiso   1.00
O8     O     0.64736   0.03024   0.70071   0.01267  Uiso   1.00
O9     O     0.88211   0.79501   0.88514   0.01267  Uiso   1.00
O10    O     0.89117   0.91470   0.79099   0.01267  Uiso   1.00
O11    O     0.92015   0.75587   0.55745   0.01267  Uiso   1.00
O12    O     0.10611   0.62907   0.61527   0.01267  Uiso   1.00
O13    O     0.56523   0.56762   0.57588   0.01267  Uiso   1.00
O14    O     0.42090   0.48547   0.64399   0.01267  Uiso   1.00
O15    O     0.55338   0.59961   0.87937   0.01267  Uiso   1.00
O16    O     0.35264   0.53024   0.79929   0.01267  Uiso   1.00
O17    O     0.88211   0.70499   0.38514   0.01267  Uiso   1.00
O18    O     0.89117   0.58530   0.29099   0.01267  Uiso   1.00
O19    O     0.92015   0.74413   0.05745   0.01267  Uiso   1.00
O20    O     0.10611   0.87093   0.11527   0.01267  Uiso   1.00
O21    O     0.56523   0.93238   0.07588   0.01267  Uiso   1.00
O22    O     0.42090   0.01453   0.14399   0.01267  Uiso   1.00
O23    O     0.55338   0.90039   0.37937   0.01267  Uiso   1.00
O24    O     0.35264   0.96976   0.29929   0.01267  Uiso   1.00
O25    O     0.11789   0.20499   0.11486   0.01267  Uiso   1.00
O26    O     0.10883   0.08530   0.20901   0.01267  Uiso   1.00
O27    O     0.07985   0.24413   0.44255   0.01267  Uiso   1.00
O28    O     0.89389   0.37093   0.38473   0.01267  Uiso   1.00
O29    O     0.43477   0.43238   0.42412   0.01267  Uiso   1.00
O30    O     0.57910   0.51453   0.35601   0.01267  Uiso   1.00
O31    O     0.44662   0.40039   0.12063   0.01267  Uiso   1.00
O32    O     0.64736   0.46976   0.20071   0.01267  Uiso   1.00
