data_HGCNCO_clean
_audit_creation_date              2014-07-02
_audit_creation_method            'Materials Studio'
_symmetry_space_group_name_H-M    'P1'
_symmetry_Int_Tables_number       1
_symmetry_cell_setting            triclinic
loop_
_symmetry_equiv_pos_as_xyz
  x,y,z
_cell_length_a                    9.1630
_cell_length_b                    14.0570
_cell_length_c                    16.2760
_cell_angle_alpha                 90.0000
_cell_angle_beta                  92.8800
_cell_angle_gamma                 90.0000
loop_
_atom_site_label
_atom_site_type_symbol
_atom_site_fract_x
_atom_site_fract_y
_atom_site_fract_z
_atom_site_U_iso_or_equiv
_atom_site_adp_type
_atom_site_occupancy
Co1    Co    0.51867   0.65011   0.75340   0.01267  Uiso   1.00
Co2    Co    0.98133   0.15011   0.74660   0.01267  Uiso   1.00
Co3    Co    0.48133   0.34989   0.24660   0.01267  Uiso   1.00
Co4    Co    0.01867   0.84989   0.25340   0.01267  Uiso   1.00
Hg1    Hg    0.01529   0.79639   0.58161   0.01267  Uiso   1.00
Hg2    Hg    0.48471   0.29639   0.91839   0.01267  Uiso   1.00
Hg3    Hg    0.98471   0.20361   0.41839   0.01267  Uiso   1.00
Hg4    Hg    0.51529   0.70361   0.08161   0.01267  Uiso   1.00
C1     C     0.84300   0.74150   0.74120   0.01267  Uiso   1.00
C2     C     0.87410   0.99750   0.60820   0.01267  Uiso   1.00
C3     C     0.36170   0.78270   0.61240   0.01267  Uiso   1.00
C4     C     0.94630   0.71400   0.40480   0.01267  Uiso   1.00
C5     C     0.65700   0.24150   0.75880   0.01267  Uiso   1.00
C6     C     0.62590   0.49750   0.89180   0.01267  Uiso   1.00
C7     C     0.13830   0.28270   0.88760   0.01267  Uiso   1.00
C8     C     0.55370   0.21400   0.09520   0.01267  Uiso   1.00
C9     C     0.15700   0.25850   0.25880   0.01267  Uiso   1.00
C10    C     0.12590   0.00250   0.39180   0.01267  Uiso   1.00
C11    C     0.63830   0.21730   0.38760   0.01267  Uiso   1.00
C12    C     0.05370   0.28600   0.59520   0.01267  Uiso   1.00
C13    C     0.34300   0.75850   0.24120   0.01267  Uiso   1.00
C14    C     0.37410   0.50250   0.10820   0.01267  Uiso   1.00
C15    C     0.86170   0.71730   0.11240   0.01267  Uiso   1.00
C16    C     0.44630   0.78600   0.90480   0.01267  Uiso   1.00
S1     S     0.01590   0.77102   0.73343   0.01267  Uiso   1.00
S2     S     0.82212   0.91688   0.54069   0.01267  Uiso   1.00
S3     S     0.26809   0.84293   0.54094   0.01267  Uiso   1.00
S4     S     0.93438   0.65283   0.49355   0.01267  Uiso   1.00
S5     S     0.48410   0.27102   0.76657   0.01267  Uiso   1.00
S6     S     0.67788   0.41688   0.95931   0.01267  Uiso   1.00
S7     S     0.23191   0.34293   0.95906   0.01267  Uiso   1.00
S8     S     0.56562   0.15283   0.00645   0.01267  Uiso   1.00
S9     S     0.98410   0.22898   0.26657   0.01267  Uiso   1.00
S10    S     0.17788   0.08312   0.45931   0.01267  Uiso   1.00
S11    S     0.73191   0.15707   0.45906   0.01267  Uiso   1.00
S12    S     0.06562   0.34717   0.50645   0.01267  Uiso   1.00
S13    S     0.51590   0.72898   0.23343   0.01267  Uiso   1.00
S14    S     0.32212   0.58312   0.04069   0.01267  Uiso   1.00
S15    S     0.76809   0.65707   0.04094   0.01267  Uiso   1.00
S16    S     0.43438   0.84717   0.99355   0.01267  Uiso   1.00
N1     N     0.72690   0.71600   0.74610   0.01267  Uiso   1.00
N2     N     0.90730   0.05430   0.65490   0.01267  Uiso   1.00
N3     N     0.42230   0.73770   0.66100   0.01267  Uiso   1.00
N4     N     0.95750   0.75510   0.34740   0.01267  Uiso   1.00
N5     N     0.77310   0.21600   0.75390   0.01267  Uiso   1.00
N6     N     0.59270   0.55430   0.84510   0.01267  Uiso   1.00
N7     N     0.07770   0.23770   0.83900   0.01267  Uiso   1.00
N8     N     0.54250   0.25510   0.15260   0.01267  Uiso   1.00
N9     N     0.27310   0.28400   0.25390   0.01267  Uiso   1.00
N10    N     0.09270   0.94570   0.34510   0.01267  Uiso   1.00
N11    N     0.57770   0.26230   0.33900   0.01267  Uiso   1.00
N12    N     0.04250   0.24490   0.65260   0.01267  Uiso   1.00
N13    N     0.22690   0.78400   0.24610   0.01267  Uiso   1.00
N14    N     0.40730   0.44570   0.15490   0.01267  Uiso   1.00
N15    N     0.92230   0.76230   0.16100   0.01267  Uiso   1.00
N16    N     0.45750   0.74490   0.84740   0.01267  Uiso   1.00
