data_HICVUM_clean
_audit_creation_date              2014-07-02
_audit_creation_method            'Materials Studio'
_symmetry_space_group_name_H-M    'P1'
_symmetry_Int_Tables_number       1
_symmetry_cell_setting            triclinic
loop_
_symmetry_equiv_pos_as_xyz
  x,y,z
_cell_length_a                    12.7213
_cell_length_b                    12.7213
_cell_length_c                    20.7090
_cell_angle_alpha                 84.1600
_cell_angle_beta                  84.1600
_cell_angle_gamma                 70.8696
loop_
_atom_site_label
_atom_site_type_symbol
_atom_site_fract_x
_atom_site_fract_y
_atom_site_fract_z
_atom_site_U_iso_or_equiv
_atom_site_adp_type
_atom_site_occupancy
Cd1    Cd    0.06619   0.06901   0.17921   0.01267  Uiso   1.00
Cd2    Cd    0.54620   0.54618   0.10118   0.01267  Uiso   1.00
Cd3    Cd    0.93099   0.93381   0.32079   0.01267  Uiso   1.00
Cd4    Cd    0.45382   0.45380   0.39882   0.01267  Uiso   1.00
Cd5    Cd    0.93381   0.93099   0.82079   0.01267  Uiso   1.00
Cd6    Cd    0.45380   0.45382   0.89882   0.01267  Uiso   1.00
Cd7    Cd    0.06901   0.06619   0.67921   0.01267  Uiso   1.00
Cd8    Cd    0.54618   0.54620   0.60118   0.01267  Uiso   1.00
H1     H     0.86310   0.15490   0.10360   0.01267  Uiso   1.00
H2     H     0.73180   0.44700   0.23030   0.01267  Uiso   1.00
H3     H     0.88710   0.30430   0.25560   0.01267  Uiso   1.00
H4     H     0.24180   0.22000   0.31100   0.01267  Uiso   1.00
H5     H     0.82200   0.11180   0.91120   0.01267  Uiso   1.00
H6     H     0.07750   0.05410   0.43640   0.01267  Uiso   1.00
H7     H     0.25870   0.22210   0.50300   0.01267  Uiso   1.00
H8     H     0.70220   0.11520   0.74560   0.01267  Uiso   1.00
H9     H     0.55510   0.26810   0.77090   0.01267  Uiso   1.00
H10    H     0.84510   0.13690   0.39640   0.01267  Uiso   1.00
H11    H     0.55300   0.26820   0.26970   0.01267  Uiso   1.00
H12    H     0.69570   0.11290   0.24440   0.01267  Uiso   1.00
H13    H     0.78000   0.75820   0.18900   0.01267  Uiso   1.00
H14    H     0.88820   0.17800   0.58880   0.01267  Uiso   1.00
H15    H     0.94590   0.92250   0.06360   0.01267  Uiso   1.00
H16    H     0.77790   0.74130   0.99700   0.01267  Uiso   1.00
H17    H     0.88480   0.29780   0.75440   0.01267  Uiso   1.00
H18    H     0.73190   0.44490   0.72910   0.01267  Uiso   1.00
H19    H     0.13690   0.84510   0.89640   0.01267  Uiso   1.00
H20    H     0.26820   0.55300   0.76970   0.01267  Uiso   1.00
H21    H     0.11290   0.69570   0.74440   0.01267  Uiso   1.00
H22    H     0.75820   0.78000   0.68900   0.01267  Uiso   1.00
H23    H     0.17800   0.88820   0.08880   0.01267  Uiso   1.00
H24    H     0.92250   0.94590   0.56360   0.01267  Uiso   1.00
H25    H     0.74130   0.77790   0.49700   0.01267  Uiso   1.00
H26    H     0.29780   0.88480   0.25440   0.01267  Uiso   1.00
H27    H     0.44490   0.73190   0.22910   0.01267  Uiso   1.00
H28    H     0.15490   0.86310   0.60360   0.01267  Uiso   1.00
H29    H     0.44700   0.73180   0.73030   0.01267  Uiso   1.00
H30    H     0.30430   0.88710   0.75560   0.01267  Uiso   1.00
H31    H     0.22000   0.24180   0.81100   0.01267  Uiso   1.00
H32    H     0.11180   0.82200   0.41120   0.01267  Uiso   1.00
H33    H     0.05410   0.07750   0.93640   0.01267  Uiso   1.00
H34    H     0.22210   0.25870   0.00300   0.01267  Uiso   1.00
H35    H     0.11520   0.70220   0.24560   0.01267  Uiso   1.00
H36    H     0.26810   0.55510   0.27090   0.01267  Uiso   1.00
C1     C     0.83860   0.21540   0.12930   0.01267  Uiso   1.00
C2     C     0.75870   0.38850   0.20320   0.01267  Uiso   1.00
C3     C     0.85150   0.30250   0.21890   0.01267  Uiso   1.00
C4     C     0.74600   0.30560   0.11260   0.01267  Uiso   1.00
C5     C     0.69550   0.31170   0.05280   0.01267  Uiso   1.00
C6     C     0.22260   0.19800   0.35350   0.01267  Uiso   1.00
C7     C     0.11040   0.09780   0.30680   0.01267  Uiso   1.00
C8     C     0.15330   0.13030   0.36530   0.01267  Uiso   1.00
C9     C     0.76690   0.14130   0.88190   0.01267  Uiso   1.00
C10    C     0.67710   0.23250   0.89800   0.01267  Uiso   1.00
C11    C     0.66770   0.28010   0.96070   0.01267  Uiso   1.00
C12    C     0.33210   0.30890   0.39370   0.01267  Uiso   1.00
C13    C     0.16280   0.13280   0.48080   0.01267  Uiso   1.00
C14    C     0.12350   0.09830   0.42860   0.01267  Uiso   1.00
C15    C     0.23230   0.19950   0.46840   0.01267  Uiso   1.00
C16    C     0.26220   0.23180   0.40490   0.01267  Uiso   1.00
C17    C     0.69740   0.14420   0.78560   0.01267  Uiso   1.00
C18    C     0.60870   0.23670   0.80080   0.01267  Uiso   1.00
C19    C     0.12850   0.10330   0.55040   0.01267  Uiso   1.00
C20    C     0.78460   0.16140   0.37070   0.01267  Uiso   1.00
C21    C     0.61150   0.24130   0.29680   0.01267  Uiso   1.00
C22    C     0.69750   0.14850   0.28110   0.01267  Uiso   1.00
C23    C     0.69440   0.25400   0.38740   0.01267  Uiso   1.00
C24    C     0.68830   0.30450   0.44720   0.01267  Uiso   1.00
C25    C     0.80200   0.77740   0.14650   0.01267  Uiso   1.00
C26    C     0.90220   0.88960   0.19320   0.01267  Uiso   1.00
C27    C     0.86970   0.84670   0.13470   0.01267  Uiso   1.00
C28    C     0.85870   0.23310   0.61810   0.01267  Uiso   1.00
C29    C     0.76750   0.32290   0.60200   0.01267  Uiso   1.00
C30    C     0.71990   0.33230   0.53930   0.01267  Uiso   1.00
C31    C     0.69110   0.66790   0.10630   0.01267  Uiso   1.00
C32    C     0.86720   0.83720   0.01920   0.01267  Uiso   1.00
C33    C     0.90170   0.87650   0.07140   0.01267  Uiso   1.00
C34    C     0.80050   0.76770   0.03160   0.01267  Uiso   1.00
C35    C     0.76820   0.73780   0.09510   0.01267  Uiso   1.00
C36    C     0.85580   0.30260   0.71440   0.01267  Uiso   1.00
C37    C     0.76330   0.39130   0.69920   0.01267  Uiso   1.00
C38    C     0.89670   0.87150   0.94960   0.01267  Uiso   1.00
C39    C     0.16140   0.78460   0.87070   0.01267  Uiso   1.00
C40    C     0.24130   0.61150   0.79680   0.01267  Uiso   1.00
C41    C     0.14850   0.69750   0.78110   0.01267  Uiso   1.00
C42    C     0.25400   0.69440   0.88740   0.01267  Uiso   1.00
C43    C     0.30450   0.68830   0.94720   0.01267  Uiso   1.00
C44    C     0.77740   0.80200   0.64650   0.01267  Uiso   1.00
C45    C     0.88960   0.90220   0.69320   0.01267  Uiso   1.00
C46    C     0.84670   0.86970   0.63470   0.01267  Uiso   1.00
C47    C     0.23310   0.85870   0.11810   0.01267  Uiso   1.00
C48    C     0.32290   0.76750   0.10200   0.01267  Uiso   1.00
C49    C     0.33230   0.71990   0.03930   0.01267  Uiso   1.00
C50    C     0.66790   0.69110   0.60630   0.01267  Uiso   1.00
C51    C     0.83720   0.86720   0.51920   0.01267  Uiso   1.00
C52    C     0.87650   0.90170   0.57140   0.01267  Uiso   1.00
C53    C     0.76770   0.80050   0.53160   0.01267  Uiso   1.00
C54    C     0.73780   0.76820   0.59510   0.01267  Uiso   1.00
C55    C     0.30260   0.85580   0.21440   0.01267  Uiso   1.00
C56    C     0.39130   0.76330   0.19920   0.01267  Uiso   1.00
C57    C     0.87150   0.89670   0.44960   0.01267  Uiso   1.00
C58    C     0.21540   0.83860   0.62930   0.01267  Uiso   1.00
C59    C     0.38850   0.75870   0.70320   0.01267  Uiso   1.00
C60    C     0.30250   0.85150   0.71890   0.01267  Uiso   1.00
C61    C     0.30560   0.74600   0.61260   0.01267  Uiso   1.00
C62    C     0.31170   0.69550   0.55280   0.01267  Uiso   1.00
C63    C     0.19800   0.22260   0.85350   0.01267  Uiso   1.00
C64    C     0.09780   0.11040   0.80680   0.01267  Uiso   1.00
C65    C     0.13030   0.15330   0.86530   0.01267  Uiso   1.00
C66    C     0.14130   0.76690   0.38190   0.01267  Uiso   1.00
C67    C     0.23250   0.67710   0.39800   0.01267  Uiso   1.00
C68    C     0.28010   0.66770   0.46070   0.01267  Uiso   1.00
C69    C     0.30890   0.33210   0.89370   0.01267  Uiso   1.00
C70    C     0.13280   0.16280   0.98080   0.01267  Uiso   1.00
C71    C     0.09830   0.12350   0.92860   0.01267  Uiso   1.00
C72    C     0.19950   0.23230   0.96840   0.01267  Uiso   1.00
C73    C     0.23180   0.26220   0.90490   0.01267  Uiso   1.00
C74    C     0.14420   0.69740   0.28560   0.01267  Uiso   1.00
C75    C     0.23670   0.60870   0.30080   0.01267  Uiso   1.00
C76    C     0.10330   0.12850   0.05040   0.01267  Uiso   1.00
N1     N     0.89290   0.21410   0.18140   0.01267  Uiso   1.00
N2     N     0.70470   0.39230   0.15060   0.01267  Uiso   1.00
N3     N     0.60600   0.39560   0.03520   0.01267  Uiso   1.00
N4     N     0.73780   0.23520   0.00830   0.01267  Uiso   1.00
N5     N     0.58880   0.37660   0.97450   0.01267  Uiso   1.00
N6     N     0.77810   0.09410   0.82700   0.01267  Uiso   1.00
N7     N     0.59730   0.28250   0.85750   0.01267  Uiso   1.00
N8     N     0.78590   0.10710   0.31860   0.01267  Uiso   1.00
N9     N     0.60770   0.29530   0.34940   0.01267  Uiso   1.00
N10    N     0.60440   0.39400   0.46480   0.01267  Uiso   1.00
N11    N     0.76480   0.26220   0.49170   0.01267  Uiso   1.00
N12    N     0.62340   0.41120   0.52550   0.01267  Uiso   1.00
N13    N     0.90590   0.22190   0.67300   0.01267  Uiso   1.00
N14    N     0.71750   0.40270   0.64250   0.01267  Uiso   1.00
N15    N     0.10710   0.78590   0.81860   0.01267  Uiso   1.00
N16    N     0.29530   0.60770   0.84940   0.01267  Uiso   1.00
N17    N     0.39400   0.60440   0.96480   0.01267  Uiso   1.00
N18    N     0.26220   0.76480   0.99170   0.01267  Uiso   1.00
N19    N     0.41120   0.62340   0.02550   0.01267  Uiso   1.00
N20    N     0.22190   0.90590   0.17300   0.01267  Uiso   1.00
N21    N     0.40270   0.71750   0.14250   0.01267  Uiso   1.00
N22    N     0.21410   0.89290   0.68140   0.01267  Uiso   1.00
N23    N     0.39230   0.70470   0.65060   0.01267  Uiso   1.00
N24    N     0.39560   0.60600   0.53520   0.01267  Uiso   1.00
N25    N     0.23520   0.73780   0.50830   0.01267  Uiso   1.00
N26    N     0.37660   0.58880   0.47450   0.01267  Uiso   1.00
N27    N     0.09410   0.77810   0.32700   0.01267  Uiso   1.00
N28    N     0.28250   0.59730   0.35750   0.01267  Uiso   1.00
O1     O     0.13640   0.13940   0.25250   0.01267  Uiso   1.00
O2     O     0.05330   0.03550   0.31410   0.01267  Uiso   1.00
O3     O     0.06210   0.04970   0.56330   0.01267  Uiso   1.00
O4     O     0.35280   0.34440   0.33660   0.01267  Uiso   1.00
O5     O     0.36660   0.33420   0.44280   0.01267  Uiso   1.00
O6     O     0.17020   0.13600   0.59520   0.01267  Uiso   1.00
O7     O     0.86060   0.86360   0.24750   0.01267  Uiso   1.00
O8     O     0.96450   0.94670   0.18590   0.01267  Uiso   1.00
O9     O     0.95030   0.93790   0.93670   0.01267  Uiso   1.00
O10    O     0.65560   0.64720   0.16340   0.01267  Uiso   1.00
O11    O     0.66580   0.63340   0.05720   0.01267  Uiso   1.00
O12    O     0.86400   0.82980   0.90480   0.01267  Uiso   1.00
O13    O     0.86360   0.86060   0.74750   0.01267  Uiso   1.00
O14    O     0.94670   0.96450   0.68590   0.01267  Uiso   1.00
O15    O     0.93790   0.95030   0.43670   0.01267  Uiso   1.00
O16    O     0.64720   0.65560   0.66340   0.01267  Uiso   1.00
O17    O     0.63340   0.66580   0.55720   0.01267  Uiso   1.00
O18    O     0.82980   0.86400   0.40480   0.01267  Uiso   1.00
O19    O     0.13940   0.13640   0.75250   0.01267  Uiso   1.00
O20    O     0.03550   0.05330   0.81410   0.01267  Uiso   1.00
O21    O     0.04970   0.06210   0.06330   0.01267  Uiso   1.00
O22    O     0.34440   0.35280   0.83660   0.01267  Uiso   1.00
O23    O     0.33420   0.36660   0.94280   0.01267  Uiso   1.00
O24    O     0.13600   0.17020   0.09520   0.01267  Uiso   1.00
