data_image0
_cell_length_a       18.408
_cell_length_b       9.3923
_cell_length_c       10.07
_cell_angle_alpha    90
_cell_angle_beta     90
_cell_angle_gamma    90

_symmetry_space_group_name_H-M    "P 1"
_symmetry_int_tables_number       1

loop_
  _symmetry_equiv_pos_as_xyz
  'x, y, z'

loop_
  _atom_site_label
  _atom_site_occupancy
  _atom_site_fract_x
  _atom_site_fract_y
  _atom_site_fract_z
  _atom_site_thermal_displace_type
  _atom_site_B_iso_or_equiv
  _atom_site_type_symbol
  O1       1.0000 0.62000  0.00170  0.42770  Biso   1.000  O
  O2       1.0000 0.53490  0.76540  0.51550  Biso   1.000  O
  O3       1.0000 0.54510  0.65820  0.70850  Biso   1.000  O
  Ru1      1.0000 0.48527  0.05914  0.59396  Biso   1.000  Ru
  O4       1.0000 0.50490  0.88020  0.70380  Biso   1.000  O
  O5       1.0000 0.70370  0.11940  0.53970  Biso   1.000  O
  O6       1.0000 0.59030  0.11870  0.61570  Biso   1.000  O
  O7       1.0000 0.70850  0.11410  0.82990  Biso   1.000  O
  H1       1.0000 0.69870  0.16200  0.89930  Biso   1.000  H
  H2       1.0000 0.67000  0.07490  0.80090  Biso   1.000  H
  C1       1.0000 0.52790  0.76770  0.64410  Biso   1.000  C
  C2       1.0000 0.63840  0.08130  0.52890  Biso   1.000  C
  K1       1.0000 0.43060  0.50360  0.55210  Biso   1.000  K
  O8       1.0000 0.88000  0.49830  0.42770  Biso   1.000  O
  O9       1.0000 0.96510  0.73460  0.51550  Biso   1.000  O
  O10      1.0000 0.95490  0.84180  0.70850  Biso   1.000  O
  Ru2      1.0000 0.01473  0.44086  0.59396  Biso   1.000  Ru
  O11      1.0000 0.99510  0.61980  0.70380  Biso   1.000  O
  O12      1.0000 0.79630  0.38060  0.53970  Biso   1.000  O
  O13      1.0000 0.90970  0.38130  0.61570  Biso   1.000  O
  O14      1.0000 0.79150  0.38590  0.82990  Biso   1.000  O
  H3       1.0000 0.80130  0.33800  0.89930  Biso   1.000  H
  H4       1.0000 0.83000  0.42510  0.80090  Biso   1.000  H
  C3       1.0000 0.97210  0.73230  0.64410  Biso   1.000  C
  C4       1.0000 0.86160  0.41870  0.52890  Biso   1.000  C
  K2       1.0000 0.06940  0.99640  0.55210  Biso   1.000  K
  O15      1.0000 0.38000  0.50170  0.07230  Biso   1.000  O
  O16      1.0000 0.46510  0.26540  0.98450  Biso   1.000  O
  O17      1.0000 0.45490  0.15820  0.79150  Biso   1.000  O
  Ru3      1.0000 0.51473  0.55914  0.90604  Biso   1.000  Ru
  O18      1.0000 0.49510  0.38020  0.79620  Biso   1.000  O
  O19      1.0000 0.29630  0.61940  0.96030  Biso   1.000  O
  O20      1.0000 0.40970  0.61870  0.88430  Biso   1.000  O
  O21      1.0000 0.29150  0.61410  0.67010  Biso   1.000  O
  H5       1.0000 0.30130  0.66200  0.60070  Biso   1.000  H
  H6       1.0000 0.33000  0.57490  0.69910  Biso   1.000  H
  C5       1.0000 0.47210  0.26770  0.85590  Biso   1.000  C
  C6       1.0000 0.36160  0.58130  0.97110  Biso   1.000  C
  K3       1.0000 0.56940  0.00360  0.94790  Biso   1.000  K
  O22      1.0000 0.12000  0.99830  0.07230  Biso   1.000  O
  O23      1.0000 0.03490  0.23460  0.98450  Biso   1.000  O
  O24      1.0000 0.04510  0.34180  0.79150  Biso   1.000  O
  Ru4      1.0000 0.98527  0.94086  0.90604  Biso   1.000  Ru
  O25      1.0000 0.00490  0.11980  0.79620  Biso   1.000  O
  O26      1.0000 0.20370  0.88060  0.96030  Biso   1.000  O
  O27      1.0000 0.09030  0.88130  0.88430  Biso   1.000  O
  O28      1.0000 0.20850  0.88590  0.67010  Biso   1.000  O
  H7       1.0000 0.19870  0.83800  0.60070  Biso   1.000  H
  H8       1.0000 0.17000  0.92510  0.69910  Biso   1.000  H
  C7       1.0000 0.02790  0.23230  0.85590  Biso   1.000  C
  C8       1.0000 0.13840  0.91870  0.97110  Biso   1.000  C
  K4       1.0000 0.93060  0.49640  0.94790  Biso   1.000  K
  O29      1.0000 0.38000  0.99830  0.57230  Biso   1.000  O
  O30      1.0000 0.46510  0.23460  0.48450  Biso   1.000  O
  O31      1.0000 0.45490  0.34180  0.29150  Biso   1.000  O
  Ru5      1.0000 0.51473  0.94086  0.40604  Biso   1.000  Ru
  O32      1.0000 0.49510  0.11980  0.29620  Biso   1.000  O
  O33      1.0000 0.29630  0.88060  0.46030  Biso   1.000  O
  O34      1.0000 0.40970  0.88130  0.38430  Biso   1.000  O
  O35      1.0000 0.29150  0.88590  0.17010  Biso   1.000  O
  H9       1.0000 0.30130  0.83800  0.10070  Biso   1.000  H
  H10      1.0000 0.33000  0.92510  0.19910  Biso   1.000  H
  C9       1.0000 0.47210  0.23230  0.35590  Biso   1.000  C
  C10      1.0000 0.36160  0.91870  0.47110  Biso   1.000  C
  K5       1.0000 0.56940  0.49640  0.44790  Biso   1.000  K
  O36      1.0000 0.12000  0.50170  0.57230  Biso   1.000  O
  O37      1.0000 0.03490  0.26540  0.48450  Biso   1.000  O
  O38      1.0000 0.04510  0.15820  0.29150  Biso   1.000  O
  Ru6      1.0000 0.98527  0.55914  0.40604  Biso   1.000  Ru
  O39      1.0000 0.00490  0.38020  0.29620  Biso   1.000  O
  O40      1.0000 0.20370  0.61940  0.46030  Biso   1.000  O
  O41      1.0000 0.09030  0.61870  0.38430  Biso   1.000  O
  O42      1.0000 0.20850  0.61410  0.17010  Biso   1.000  O
  H11      1.0000 0.19870  0.66200  0.10070  Biso   1.000  H
  H12      1.0000 0.17000  0.57490  0.19910  Biso   1.000  H
  C11      1.0000 0.02790  0.26770  0.35590  Biso   1.000  C
  C12      1.0000 0.13840  0.58130  0.47110  Biso   1.000  C
  K6       1.0000 0.93060  0.00360  0.44790  Biso   1.000  K
  O43      1.0000 0.62000  0.49830  0.92770  Biso   1.000  O
  O44      1.0000 0.53490  0.73460  0.01550  Biso   1.000  O
  O45      1.0000 0.54510  0.84180  0.20850  Biso   1.000  O
  Ru7      1.0000 0.48527  0.44086  0.09396  Biso   1.000  Ru
  O46      1.0000 0.50490  0.61980  0.20380  Biso   1.000  O
  O47      1.0000 0.70370  0.38060  0.03970  Biso   1.000  O
  O48      1.0000 0.59030  0.38130  0.11570  Biso   1.000  O
  O49      1.0000 0.70850  0.38590  0.32990  Biso   1.000  O
  H13      1.0000 0.69870  0.33800  0.39930  Biso   1.000  H
  H14      1.0000 0.67000  0.42510  0.30090  Biso   1.000  H
  C13      1.0000 0.52790  0.73230  0.14410  Biso   1.000  C
  C14      1.0000 0.63840  0.41870  0.02890  Biso   1.000  C
  K7       1.0000 0.43060  0.99640  0.05210  Biso   1.000  K
  O50      1.0000 0.88000  0.00170  0.92770  Biso   1.000  O
  O51      1.0000 0.96510  0.76540  0.01550  Biso   1.000  O
  O52      1.0000 0.95490  0.65820  0.20850  Biso   1.000  O
  Ru8      1.0000 0.01473  0.05914  0.09396  Biso   1.000  Ru
  O53      1.0000 0.99510  0.88020  0.20380  Biso   1.000  O
  O54      1.0000 0.79630  0.11940  0.03970  Biso   1.000  O
  O55      1.0000 0.90970  0.11870  0.11570  Biso   1.000  O
  O56      1.0000 0.79150  0.11410  0.32990  Biso   1.000  O
  H15      1.0000 0.80130  0.16200  0.39930  Biso   1.000  H
  H16      1.0000 0.83000  0.07490  0.30090  Biso   1.000  H
  C15      1.0000 0.97210  0.76770  0.14410  Biso   1.000  C
  C16      1.0000 0.86160  0.08130  0.02890  Biso   1.000  C
  K8       1.0000 0.06940  0.50360  0.05210  Biso   1.000  K
  Co1      1.0000 0.75000  0.25000  0.68458  Biso   1.000  Co
  Co2      1.0000 0.25000  0.75000  0.81542  Biso   1.000  Co
  Co3      1.0000 0.25000  0.75000  0.31542  Biso   1.000  Co
  Co4      1.0000 0.75000  0.25000  0.18458  Biso   1.000  Co
