data_image0
_cell_length_a       14.665
_cell_length_b       16.7949
_cell_length_c       16.7292
_cell_angle_alpha    90
_cell_angle_beta     90
_cell_angle_gamma    90

_symmetry_space_group_name_H-M    "P 1"
_symmetry_int_tables_number       1

loop_
  _symmetry_equiv_pos_as_xyz
  'x, y, z'

loop_
  _atom_site_label
  _atom_site_occupancy
  _atom_site_fract_x
  _atom_site_fract_y
  _atom_site_fract_z
  _atom_site_thermal_displace_type
  _atom_site_B_iso_or_equiv
  _atom_site_type_symbol
  O1       1.0000 0.94860  0.40160  0.02260  Biso   1.000  O
  O2       1.0000 0.04600  0.35450  0.11290  Biso   1.000  O
  O3       1.0000 0.22920  0.11470  0.03320  Biso   1.000  O
  O4       1.0000 0.22320  0.07450  0.91430  Biso   1.000  O
  C1       1.0000 0.03920  0.27120  0.76100  Biso   1.000  C
  H1       1.0000 0.06120  0.23560  0.74200  Biso   1.000  H
  H2       1.0000 0.06710  0.31740  0.73760  Biso   1.000  H
  O5       1.0000 0.86850  0.53510  0.13790  Biso   1.000  O
  O6       1.0000 0.89500  0.43560  0.22190  Biso   1.000  O
  O7       1.0000 0.57010  0.72100  0.33470  Biso   1.000  O
  O8       1.0000 0.64510  0.75060  0.22590  Biso   1.000  O
  C2       1.0000 0.77710  0.53550  0.48800  Biso   1.000  C
  H3       1.0000 0.73500  0.55620  0.51020  Biso   1.000  H
  H4       1.0000 0.83130  0.55890  0.51000  Biso   1.000  H
  C3       1.0000 0.01070  0.35690  0.04340  Biso   1.000  C
  C4       1.0000 0.20040  0.12330  0.96340  Biso   1.000  C
  C5       1.0000 0.05010  0.30640  0.98080  Biso   1.000  C
  C6       1.0000 0.10850  0.24280  0.00280  Biso   1.000  C
  H5       1.0000 0.12380  0.23510  0.05620  Biso   1.000  H
  C7       1.0000 0.14270  0.19220  0.94450  Biso   1.000  C
  C8       1.0000 0.11820  0.20710  0.86440  Biso   1.000  C
  H6       1.0000 0.13710  0.17160  0.82520  Biso   1.000  H
  C9       1.0000 0.06640  0.27330  0.84180  Biso   1.000  C
  C10      1.0000 0.02550  0.31550  0.90320  Biso   1.000  C
  H7       1.0000 0.97940  0.35150  0.89070  Biso   1.000  H
  C11      1.0000 0.86250  0.50330  0.20570  Biso   1.000  C
  C12      1.0000 0.63340  0.70650  0.28780  Biso   1.000  C
  C13      1.0000 0.81290  0.54590  0.26860  Biso   1.000  C
  C14      1.0000 0.75420  0.60670  0.24900  Biso   1.000  C
  H8       1.0000 0.75000  0.62380  0.19630  Biso   1.000  H
  C15      1.0000 0.70100  0.64300  0.30780  Biso   1.000  C
  C16      1.0000 0.71380  0.61900  0.38880  Biso   1.000  C
  H9       1.0000 0.68190  0.64060  0.42530  Biso   1.000  H
  C17      1.0000 0.77630  0.56220  0.40900  Biso   1.000  C
  C18      1.0000 0.82290  0.51970  0.34820  Biso   1.000  C
  H10      1.0000 0.85900  0.47580  0.36040  Biso   1.000  H
  O9       1.0000 0.44860  0.90160  0.02260  Biso   1.000  O
  O10      1.0000 0.54600  0.85450  0.11290  Biso   1.000  O
  O11      1.0000 0.72920  0.61470  0.03320  Biso   1.000  O
  O12      1.0000 0.72320  0.57450  0.91430  Biso   1.000  O
  C19      1.0000 0.53920  0.77120  0.76100  Biso   1.000  C
  H11      1.0000 0.56120  0.73560  0.74200  Biso   1.000  H
  H12      1.0000 0.56710  0.81740  0.73760  Biso   1.000  H
  O13      1.0000 0.36850  0.03510  0.13790  Biso   1.000  O
  O14      1.0000 0.39500  0.93560  0.22190  Biso   1.000  O
  O15      1.0000 0.07010  0.22100  0.33470  Biso   1.000  O
  O16      1.0000 0.14510  0.25060  0.22590  Biso   1.000  O
  C20      1.0000 0.27710  0.03550  0.48800  Biso   1.000  C
  H13      1.0000 0.23500  0.05620  0.51020  Biso   1.000  H
  H14      1.0000 0.33130  0.05890  0.51000  Biso   1.000  H
  C21      1.0000 0.51070  0.85690  0.04340  Biso   1.000  C
  C22      1.0000 0.70040  0.62330  0.96340  Biso   1.000  C
  C23      1.0000 0.55010  0.80640  0.98080  Biso   1.000  C
  C24      1.0000 0.60850  0.74280  0.00280  Biso   1.000  C
  H15      1.0000 0.62380  0.73510  0.05620  Biso   1.000  H
  C25      1.0000 0.64270  0.69220  0.94450  Biso   1.000  C
  C26      1.0000 0.61820  0.70710  0.86440  Biso   1.000  C
  H16      1.0000 0.63710  0.67160  0.82520  Biso   1.000  H
  C27      1.0000 0.56640  0.77330  0.84180  Biso   1.000  C
  C28      1.0000 0.52550  0.81550  0.90320  Biso   1.000  C
  H17      1.0000 0.47940  0.85150  0.89070  Biso   1.000  H
  C29      1.0000 0.36250  0.00330  0.20570  Biso   1.000  C
  C30      1.0000 0.13340  0.20650  0.28780  Biso   1.000  C
  C31      1.0000 0.31290  0.04590  0.26860  Biso   1.000  C
  C32      1.0000 0.25420  0.10670  0.24900  Biso   1.000  C
  H18      1.0000 0.25000  0.12380  0.19630  Biso   1.000  H
  C33      1.0000 0.20100  0.14300  0.30780  Biso   1.000  C
  C34      1.0000 0.21380  0.11900  0.38880  Biso   1.000  C
  H19      1.0000 0.18190  0.14060  0.42530  Biso   1.000  H
  C35      1.0000 0.27630  0.06220  0.40900  Biso   1.000  C
  C36      1.0000 0.32290  0.01970  0.34820  Biso   1.000  C
  H20      1.0000 0.35900  0.97580  0.36040  Biso   1.000  H
  O17      1.0000 0.05140  0.59840  0.52260  Biso   1.000  O
  O18      1.0000 0.95400  0.64550  0.61290  Biso   1.000  O
  O19      1.0000 0.77080  0.88530  0.53320  Biso   1.000  O
  O20      1.0000 0.77680  0.92550  0.41430  Biso   1.000  O
  C37      1.0000 0.96080  0.72880  0.26100  Biso   1.000  C
  H21      1.0000 0.93880  0.76440  0.24200  Biso   1.000  H
  H22      1.0000 0.93290  0.68260  0.23760  Biso   1.000  H
  O21      1.0000 0.13150  0.46490  0.63790  Biso   1.000  O
  O22      1.0000 0.10500  0.56440  0.72190  Biso   1.000  O
  O23      1.0000 0.42990  0.27900  0.83470  Biso   1.000  O
  O24      1.0000 0.35490  0.24940  0.72590  Biso   1.000  O
  C38      1.0000 0.22290  0.46450  0.98800  Biso   1.000  C
  H23      1.0000 0.26500  0.44380  0.01020  Biso   1.000  H
  H24      1.0000 0.16870  0.44110  0.01000  Biso   1.000  H
  C39      1.0000 0.98930  0.64310  0.54340  Biso   1.000  C
  C40      1.0000 0.79960  0.87670  0.46340  Biso   1.000  C
  C41      1.0000 0.94990  0.69360  0.48080  Biso   1.000  C
  C42      1.0000 0.89150  0.75720  0.50280  Biso   1.000  C
  H25      1.0000 0.87620  0.76490  0.55620  Biso   1.000  H
  C43      1.0000 0.85730  0.80780  0.44450  Biso   1.000  C
  C44      1.0000 0.88180  0.79290  0.36440  Biso   1.000  C
  H26      1.0000 0.86290  0.82840  0.32520  Biso   1.000  H
  C45      1.0000 0.93360  0.72670  0.34180  Biso   1.000  C
  C46      1.0000 0.97450  0.68450  0.40320  Biso   1.000  C
  H27      1.0000 0.02060  0.64850  0.39070  Biso   1.000  H
  C47      1.0000 0.13750  0.49670  0.70570  Biso   1.000  C
  C48      1.0000 0.36660  0.29350  0.78780  Biso   1.000  C
  C49      1.0000 0.18710  0.45410  0.76860  Biso   1.000  C
  C50      1.0000 0.24580  0.39330  0.74900  Biso   1.000  C
  H28      1.0000 0.25000  0.37620  0.69630  Biso   1.000  H
  C51      1.0000 0.29900  0.35700  0.80780  Biso   1.000  C
  C52      1.0000 0.28620  0.38100  0.88880  Biso   1.000  C
  H29      1.0000 0.31810  0.35940  0.92530  Biso   1.000  H
  C53      1.0000 0.22370  0.43780  0.90900  Biso   1.000  C
  C54      1.0000 0.17710  0.48030  0.84820  Biso   1.000  C
  H30      1.0000 0.14100  0.52420  0.86040  Biso   1.000  H
  O25      1.0000 0.55140  0.09840  0.52260  Biso   1.000  O
  O26      1.0000 0.45400  0.14550  0.61290  Biso   1.000  O
  O27      1.0000 0.27080  0.38530  0.53320  Biso   1.000  O
  O28      1.0000 0.27680  0.42550  0.41430  Biso   1.000  O
  C55      1.0000 0.46080  0.22880  0.26100  Biso   1.000  C
  H31      1.0000 0.43880  0.26440  0.24200  Biso   1.000  H
  H32      1.0000 0.43290  0.18260  0.23760  Biso   1.000  H
  O29      1.0000 0.63150  0.96490  0.63790  Biso   1.000  O
  O30      1.0000 0.60500  0.06440  0.72190  Biso   1.000  O
  O31      1.0000 0.92990  0.77900  0.83470  Biso   1.000  O
  O32      1.0000 0.85490  0.74940  0.72590  Biso   1.000  O
  C56      1.0000 0.72290  0.96450  0.98800  Biso   1.000  C
  H33      1.0000 0.76500  0.94380  0.01020  Biso   1.000  H
  H34      1.0000 0.66870  0.94110  0.01000  Biso   1.000  H
  C57      1.0000 0.48930  0.14310  0.54340  Biso   1.000  C
  C58      1.0000 0.29960  0.37670  0.46340  Biso   1.000  C
  C59      1.0000 0.44990  0.19360  0.48080  Biso   1.000  C
  C60      1.0000 0.39150  0.25720  0.50280  Biso   1.000  C
  H35      1.0000 0.37620  0.26490  0.55620  Biso   1.000  H
  C61      1.0000 0.35730  0.30780  0.44450  Biso   1.000  C
  C62      1.0000 0.38180  0.29290  0.36440  Biso   1.000  C
  H36      1.0000 0.36290  0.32840  0.32520  Biso   1.000  H
  C63      1.0000 0.43360  0.22670  0.34180  Biso   1.000  C
  C64      1.0000 0.47450  0.18450  0.40320  Biso   1.000  C
  H37      1.0000 0.52060  0.14850  0.39070  Biso   1.000  H
  C65      1.0000 0.63750  0.99670  0.70570  Biso   1.000  C
  C66      1.0000 0.86660  0.79350  0.78780  Biso   1.000  C
  C67      1.0000 0.68710  0.95410  0.76860  Biso   1.000  C
  C68      1.0000 0.74580  0.89330  0.74900  Biso   1.000  C
  H38      1.0000 0.75000  0.87620  0.69630  Biso   1.000  H
  C69      1.0000 0.79900  0.85700  0.80780  Biso   1.000  C
  C70      1.0000 0.78620  0.88100  0.88880  Biso   1.000  C
  H39      1.0000 0.81810  0.85940  0.92530  Biso   1.000  H
  C71      1.0000 0.72370  0.93780  0.90900  Biso   1.000  C
  C72      1.0000 0.67710  0.98030  0.84820  Biso   1.000  C
  H40      1.0000 0.64100  0.02420  0.86040  Biso   1.000  H
  O33      1.0000 0.05140  0.40160  0.47740  Biso   1.000  O
  O34      1.0000 0.95400  0.35450  0.38710  Biso   1.000  O
  O35      1.0000 0.77080  0.11470  0.46680  Biso   1.000  O
  O36      1.0000 0.77680  0.07450  0.58570  Biso   1.000  O
  C73      1.0000 0.96080  0.27120  0.73900  Biso   1.000  C
  H41      1.0000 0.93880  0.23560  0.75800  Biso   1.000  H
  H42      1.0000 0.93290  0.31740  0.76240  Biso   1.000  H
  O37      1.0000 0.13150  0.53510  0.36210  Biso   1.000  O
  O38      1.0000 0.10500  0.43560  0.27810  Biso   1.000  O
  O39      1.0000 0.42990  0.72100  0.16530  Biso   1.000  O
  O40      1.0000 0.35490  0.75060  0.27410  Biso   1.000  O
  C74      1.0000 0.22290  0.53550  0.01200  Biso   1.000  C
  H43      1.0000 0.26500  0.55620  0.98980  Biso   1.000  H
  H44      1.0000 0.16870  0.55890  0.99000  Biso   1.000  H
  C75      1.0000 0.98930  0.35690  0.45660  Biso   1.000  C
  C76      1.0000 0.79960  0.12330  0.53660  Biso   1.000  C
  C77      1.0000 0.94990  0.30640  0.51920  Biso   1.000  C
  C78      1.0000 0.89150  0.24280  0.49720  Biso   1.000  C
  H45      1.0000 0.87620  0.23510  0.44380  Biso   1.000  H
  C79      1.0000 0.85730  0.19220  0.55550  Biso   1.000  C
  C80      1.0000 0.88180  0.20710  0.63560  Biso   1.000  C
  H46      1.0000 0.86290  0.17160  0.67480  Biso   1.000  H
  C81      1.0000 0.93360  0.27330  0.65820  Biso   1.000  C
  C82      1.0000 0.97450  0.31550  0.59680  Biso   1.000  C
  H47      1.0000 0.02060  0.35150  0.60930  Biso   1.000  H
  C83      1.0000 0.13750  0.50330  0.29430  Biso   1.000  C
  C84      1.0000 0.36660  0.70650  0.21220  Biso   1.000  C
  C85      1.0000 0.18710  0.54590  0.23140  Biso   1.000  C
  C86      1.0000 0.24580  0.60670  0.25100  Biso   1.000  C
  H48      1.0000 0.25000  0.62380  0.30370  Biso   1.000  H
  C87      1.0000 0.29900  0.64300  0.19220  Biso   1.000  C
  C88      1.0000 0.28620  0.61900  0.11120  Biso   1.000  C
  H49      1.0000 0.31810  0.64060  0.07470  Biso   1.000  H
  C89      1.0000 0.22370  0.56220  0.09100  Biso   1.000  C
  C90      1.0000 0.17710  0.51970  0.15180  Biso   1.000  C
  H50      1.0000 0.14100  0.47580  0.13960  Biso   1.000  H
  O41      1.0000 0.55140  0.90160  0.47740  Biso   1.000  O
  O42      1.0000 0.45400  0.85450  0.38710  Biso   1.000  O
  O43      1.0000 0.27080  0.61470  0.46680  Biso   1.000  O
  O44      1.0000 0.27680  0.57450  0.58570  Biso   1.000  O
  C91      1.0000 0.46080  0.77120  0.73900  Biso   1.000  C
  H51      1.0000 0.43880  0.73560  0.75800  Biso   1.000  H
  H52      1.0000 0.43290  0.81740  0.76240  Biso   1.000  H
  O45      1.0000 0.63150  0.03510  0.36210  Biso   1.000  O
  O46      1.0000 0.60500  0.93560  0.27810  Biso   1.000  O
  O47      1.0000 0.92990  0.22100  0.16530  Biso   1.000  O
  O48      1.0000 0.85490  0.25060  0.27410  Biso   1.000  O
  C92      1.0000 0.72290  0.03550  0.01200  Biso   1.000  C
  H53      1.0000 0.76500  0.05620  0.98980  Biso   1.000  H
  H54      1.0000 0.66870  0.05890  0.99000  Biso   1.000  H
  C93      1.0000 0.48930  0.85690  0.45660  Biso   1.000  C
  C94      1.0000 0.29960  0.62330  0.53660  Biso   1.000  C
  C95      1.0000 0.44990  0.80640  0.51920  Biso   1.000  C
  C96      1.0000 0.39150  0.74280  0.49720  Biso   1.000  C
  H55      1.0000 0.37620  0.73510  0.44380  Biso   1.000  H
  C97      1.0000 0.35730  0.69220  0.55550  Biso   1.000  C
  C98      1.0000 0.38180  0.70710  0.63560  Biso   1.000  C
  H56      1.0000 0.36290  0.67160  0.67480  Biso   1.000  H
  C99      1.0000 0.43360  0.77330  0.65820  Biso   1.000  C
  C100     1.0000 0.47450  0.81550  0.59680  Biso   1.000  C
  H57      1.0000 0.52060  0.85150  0.60930  Biso   1.000  H
  C101     1.0000 0.63750  0.00330  0.29430  Biso   1.000  C
  C102     1.0000 0.86660  0.20650  0.21220  Biso   1.000  C
  C103     1.0000 0.68710  0.04590  0.23140  Biso   1.000  C
  C104     1.0000 0.74580  0.10670  0.25100  Biso   1.000  C
  H58      1.0000 0.75000  0.12380  0.30370  Biso   1.000  H
  C105     1.0000 0.79900  0.14300  0.19220  Biso   1.000  C
  C106     1.0000 0.78620  0.11900  0.11120  Biso   1.000  C
  H59      1.0000 0.81810  0.14060  0.07470  Biso   1.000  H
  C107     1.0000 0.72370  0.06220  0.09100  Biso   1.000  C
  C108     1.0000 0.67710  0.01970  0.15180  Biso   1.000  C
  H60      1.0000 0.64100  0.97580  0.13960  Biso   1.000  H
  O49      1.0000 0.94860  0.59840  0.97740  Biso   1.000  O
  O50      1.0000 0.04600  0.64550  0.88710  Biso   1.000  O
  O51      1.0000 0.22920  0.88530  0.96680  Biso   1.000  O
  O52      1.0000 0.22320  0.92550  0.08570  Biso   1.000  O
  C109     1.0000 0.03920  0.72880  0.23900  Biso   1.000  C
  H61      1.0000 0.06120  0.76440  0.25800  Biso   1.000  H
  H62      1.0000 0.06710  0.68260  0.26240  Biso   1.000  H
  O53      1.0000 0.86850  0.46490  0.86210  Biso   1.000  O
  O54      1.0000 0.89500  0.56440  0.77810  Biso   1.000  O
  O55      1.0000 0.57010  0.27900  0.66530  Biso   1.000  O
  O56      1.0000 0.64510  0.24940  0.77410  Biso   1.000  O
  C110     1.0000 0.77710  0.46450  0.51200  Biso   1.000  C
  H63      1.0000 0.73500  0.44380  0.48980  Biso   1.000  H
  H64      1.0000 0.83130  0.44110  0.49000  Biso   1.000  H
  C111     1.0000 0.01070  0.64310  0.95660  Biso   1.000  C
  C112     1.0000 0.20040  0.87670  0.03660  Biso   1.000  C
  C113     1.0000 0.05010  0.69360  0.01920  Biso   1.000  C
  C114     1.0000 0.10850  0.75720  0.99720  Biso   1.000  C
  H65      1.0000 0.12380  0.76490  0.94380  Biso   1.000  H
  C115     1.0000 0.14270  0.80780  0.05550  Biso   1.000  C
  C116     1.0000 0.11820  0.79290  0.13560  Biso   1.000  C
  H66      1.0000 0.13710  0.82840  0.17480  Biso   1.000  H
  C117     1.0000 0.06640  0.72670  0.15820  Biso   1.000  C
  C118     1.0000 0.02550  0.68450  0.09680  Biso   1.000  C
  H67      1.0000 0.97940  0.64850  0.10930  Biso   1.000  H
  C119     1.0000 0.86250  0.49670  0.79430  Biso   1.000  C
  C120     1.0000 0.63340  0.29350  0.71220  Biso   1.000  C
  C121     1.0000 0.81290  0.45410  0.73140  Biso   1.000  C
  C122     1.0000 0.75420  0.39330  0.75100  Biso   1.000  C
  H68      1.0000 0.75000  0.37620  0.80370  Biso   1.000  H
  C123     1.0000 0.70100  0.35700  0.69220  Biso   1.000  C
  C124     1.0000 0.71380  0.38100  0.61120  Biso   1.000  C
  H69      1.0000 0.68190  0.35940  0.57470  Biso   1.000  H
  C125     1.0000 0.77630  0.43780  0.59100  Biso   1.000  C
  C126     1.0000 0.82290  0.48030  0.65180  Biso   1.000  C
  H70      1.0000 0.85900  0.52420  0.63960  Biso   1.000  H
  O57      1.0000 0.44860  0.09840  0.97740  Biso   1.000  O
  O58      1.0000 0.54600  0.14550  0.88710  Biso   1.000  O
  O59      1.0000 0.72920  0.38530  0.96680  Biso   1.000  O
  O60      1.0000 0.72320  0.42550  0.08570  Biso   1.000  O
  C127     1.0000 0.53920  0.22880  0.23900  Biso   1.000  C
  H71      1.0000 0.56120  0.26440  0.25800  Biso   1.000  H
  H72      1.0000 0.56710  0.18260  0.26240  Biso   1.000  H
  O61      1.0000 0.36850  0.96490  0.86210  Biso   1.000  O
  O62      1.0000 0.39500  0.06440  0.77810  Biso   1.000  O
  O63      1.0000 0.07010  0.77900  0.66530  Biso   1.000  O
  O64      1.0000 0.14510  0.74940  0.77410  Biso   1.000  O
  C128     1.0000 0.27710  0.96450  0.51200  Biso   1.000  C
  H73      1.0000 0.23500  0.94380  0.48980  Biso   1.000  H
  H74      1.0000 0.33130  0.94110  0.49000  Biso   1.000  H
  C129     1.0000 0.51070  0.14310  0.95660  Biso   1.000  C
  C130     1.0000 0.70040  0.37670  0.03660  Biso   1.000  C
  C131     1.0000 0.55010  0.19360  0.01920  Biso   1.000  C
  C132     1.0000 0.60850  0.25720  0.99720  Biso   1.000  C
  H75      1.0000 0.62380  0.26490  0.94380  Biso   1.000  H
  C133     1.0000 0.64270  0.30780  0.05550  Biso   1.000  C
  C134     1.0000 0.61820  0.29290  0.13560  Biso   1.000  C
  H76      1.0000 0.63710  0.32840  0.17480  Biso   1.000  H
  C135     1.0000 0.56640  0.22670  0.15820  Biso   1.000  C
  C136     1.0000 0.52550  0.18450  0.09680  Biso   1.000  C
  H77      1.0000 0.47940  0.14850  0.10930  Biso   1.000  H
  C137     1.0000 0.36250  0.99670  0.79430  Biso   1.000  C
  C138     1.0000 0.13340  0.79350  0.71220  Biso   1.000  C
  C139     1.0000 0.31290  0.95410  0.73140  Biso   1.000  C
  C140     1.0000 0.25420  0.89330  0.75100  Biso   1.000  C
  H78      1.0000 0.25000  0.87620  0.80370  Biso   1.000  H
  C141     1.0000 0.20100  0.85700  0.69220  Biso   1.000  C
  C142     1.0000 0.21380  0.88100  0.61120  Biso   1.000  C
  H79      1.0000 0.18190  0.85940  0.57470  Biso   1.000  H
  C143     1.0000 0.27630  0.93780  0.59100  Biso   1.000  C
  C144     1.0000 0.32290  0.98030  0.65180  Biso   1.000  C
  H80      1.0000 0.35900  0.02420  0.63960  Biso   1.000  H
  Pr1      1.0000 0.00000  0.33163  0.25000  Biso   1.000  Pr
  Pr2      1.0000 0.50000  0.83163  0.25000  Biso   1.000  Pr
  Pr3      1.0000 0.00000  0.66837  0.75000  Biso   1.000  Pr
  Pr4      1.0000 0.50000  0.16837  0.75000  Biso   1.000  Pr
  Pr5      1.0000 0.83765  0.50000  0.00000  Biso   1.000  Pr
  Pr6      1.0000 0.33765  0.00000  0.00000  Biso   1.000  Pr
  Pr7      1.0000 0.16235  0.50000  0.50000  Biso   1.000  Pr
  Pr8      1.0000 0.66235  0.00000  0.50000  Biso   1.000  Pr
