data_image0
_cell_length_a       23.6066
_cell_length_b       10.0599
_cell_length_c       17.7135
_cell_angle_alpha    90
_cell_angle_beta     124.836
_cell_angle_gamma    90

_symmetry_space_group_name_H-M    "P 1"
_symmetry_int_tables_number       1

loop_
  _symmetry_equiv_pos_as_xyz
  'x, y, z'

loop_
  _atom_site_label
  _atom_site_occupancy
  _atom_site_fract_x
  _atom_site_fract_y
  _atom_site_fract_z
  _atom_site_thermal_displace_type
  _atom_site_B_iso_or_equiv
  _atom_site_type_symbol
  Cd1      1.0000 0.36431  0.40064  0.37367  Biso   1.000  Cd
  C1       1.0000 0.47221  0.75860  0.28970  Biso   1.000  C
  H1       1.0000 0.45390  0.80470  0.31660  Biso   1.000  H
  C2       1.0000 0.47188  0.62170  0.28920  Biso   1.000  C
  C3       1.0000 0.43980  0.54690  0.32939  Biso   1.000  C
  O1       1.0000 0.43057  0.60550  0.38470  Biso   1.000  O
  O2       1.0000 0.42023  0.42980  0.30396  Biso   1.000  O
  C4       1.0000 0.70208  0.12680  0.31425  Biso   1.000  C
  C5       1.0000 0.69133  0.24530  0.34530  Biso   1.000  C
  H2       1.0000 0.70020  0.32590  0.32830  Biso   1.000  H
  C6       1.0000 0.66744  0.24450  0.40163  Biso   1.000  C
  C7       1.0000 0.65564  0.12290  0.42720  Biso   1.000  C
  H3       1.0000 0.64030  0.12040  0.46530  Biso   1.000  H
  C8       1.0000 0.66640  0.00460  0.39650  Biso   1.000  C
  H4       1.0000 0.65800  0.92400  0.41400  Biso   1.000  H
  C9       1.0000 0.68964  0.00570  0.34030  Biso   1.000  C
  H5       1.0000 0.69690  0.92620  0.32010  Biso   1.000  H
  C10      1.0000 0.72583  0.12870  0.25318  Biso   1.000  C
  C11      1.0000 0.65617  0.36730  0.43497  Biso   1.000  C
  C12      1.0000 0.63683  0.38720  0.49390  Biso   1.000  C
  H6       1.0000 0.62510  0.32020  0.51880  Biso   1.000  H
  C13      1.0000 0.65679  0.58150  0.46220  Biso   1.000  C
  H7       1.0000 0.66160  0.67300  0.46060  Biso   1.000  H
  N1       1.0000 0.76972  0.04270  0.25499  Biso   1.000  N
  N2       1.0000 0.77484  0.08050  0.18630  Biso   1.000  N
  N3       1.0000 0.73640  0.18430  0.14457  Biso   1.000  N
  N4       1.0000 0.70467  0.21810  0.18633  Biso   1.000  N
  N5       1.0000 0.66839  0.49290  0.41569  Biso   1.000  N
  H8       1.0000 0.68120  0.51120  0.38010  Biso   1.000  H
  N6       1.0000 0.63740  0.52080  0.51080  Biso   1.000  N
  Cd2      1.0000 0.63569  0.40064  0.12633  Biso   1.000  Cd
  C14      1.0000 0.52779  0.75860  0.21030  Biso   1.000  C
  H9       1.0000 0.54610  0.80470  0.18340  Biso   1.000  H
  C15      1.0000 0.52812  0.62170  0.21080  Biso   1.000  C
  C16      1.0000 0.56020  0.54690  0.17061  Biso   1.000  C
  O3       1.0000 0.56943  0.60550  0.11530  Biso   1.000  O
  O4       1.0000 0.57977  0.42980  0.19604  Biso   1.000  O
  C17      1.0000 0.29792  0.12680  0.18575  Biso   1.000  C
  C18      1.0000 0.30867  0.24530  0.15470  Biso   1.000  C
  H10      1.0000 0.29980  0.32590  0.17170  Biso   1.000  H
  C19      1.0000 0.33256  0.24450  0.09837  Biso   1.000  C
  C20      1.0000 0.34436  0.12290  0.07280  Biso   1.000  C
  H11      1.0000 0.35970  0.12040  0.03470  Biso   1.000  H
  C21      1.0000 0.33360  0.00460  0.10350  Biso   1.000  C
  H12      1.0000 0.34200  0.92400  0.08600  Biso   1.000  H
  C22      1.0000 0.31036  0.00570  0.15970  Biso   1.000  C
  H13      1.0000 0.30310  0.92620  0.17990  Biso   1.000  H
  C23      1.0000 0.27417  0.12870  0.24682  Biso   1.000  C
  C24      1.0000 0.34383  0.36730  0.06503  Biso   1.000  C
  C25      1.0000 0.36317  0.38720  0.00610  Biso   1.000  C
  H14      1.0000 0.37490  0.32020  0.98120  Biso   1.000  H
  C26      1.0000 0.34321  0.58150  0.03780  Biso   1.000  C
  H15      1.0000 0.33840  0.67300  0.03940  Biso   1.000  H
  N7       1.0000 0.23028  0.04270  0.24501  Biso   1.000  N
  N8       1.0000 0.22516  0.08050  0.31370  Biso   1.000  N
  N9       1.0000 0.26360  0.18430  0.35543  Biso   1.000  N
  N10      1.0000 0.29533  0.21810  0.31367  Biso   1.000  N
  N11      1.0000 0.33161  0.49290  0.08431  Biso   1.000  N
  H16      1.0000 0.31880  0.51120  0.11990  Biso   1.000  H
  N12      1.0000 0.36260  0.52080  0.98920  Biso   1.000  N
  Cd3      1.0000 0.63569  0.59936  0.62633  Biso   1.000  Cd
  C27      1.0000 0.52779  0.24140  0.71030  Biso   1.000  C
  H17      1.0000 0.54610  0.19530  0.68340  Biso   1.000  H
  C28      1.0000 0.52812  0.37830  0.71080  Biso   1.000  C
  C29      1.0000 0.56020  0.45310  0.67061  Biso   1.000  C
  O5       1.0000 0.56943  0.39450  0.61530  Biso   1.000  O
  O6       1.0000 0.57977  0.57020  0.69604  Biso   1.000  O
  C30      1.0000 0.29792  0.87320  0.68575  Biso   1.000  C
  C31      1.0000 0.30867  0.75470  0.65470  Biso   1.000  C
  H18      1.0000 0.29980  0.67410  0.67170  Biso   1.000  H
  C32      1.0000 0.33256  0.75550  0.59837  Biso   1.000  C
  C33      1.0000 0.34436  0.87710  0.57280  Biso   1.000  C
  H19      1.0000 0.35970  0.87960  0.53470  Biso   1.000  H
  C34      1.0000 0.33360  0.99540  0.60350  Biso   1.000  C
  H20      1.0000 0.34200  0.07600  0.58600  Biso   1.000  H
  C35      1.0000 0.31036  0.99430  0.65970  Biso   1.000  C
  H21      1.0000 0.30310  0.07380  0.67990  Biso   1.000  H
  C36      1.0000 0.27417  0.87130  0.74682  Biso   1.000  C
  C37      1.0000 0.34383  0.63270  0.56503  Biso   1.000  C
  C38      1.0000 0.36317  0.61280  0.50610  Biso   1.000  C
  H22      1.0000 0.37490  0.67980  0.48120  Biso   1.000  H
  C39      1.0000 0.34321  0.41850  0.53780  Biso   1.000  C
  H23      1.0000 0.33840  0.32700  0.53940  Biso   1.000  H
  N13      1.0000 0.23028  0.95730  0.74501  Biso   1.000  N
  N14      1.0000 0.22516  0.91950  0.81370  Biso   1.000  N
  N15      1.0000 0.26360  0.81570  0.85543  Biso   1.000  N
  N16      1.0000 0.29533  0.78190  0.81367  Biso   1.000  N
  N17      1.0000 0.33161  0.50710  0.58431  Biso   1.000  N
  H24      1.0000 0.31880  0.48880  0.61990  Biso   1.000  H
  N18      1.0000 0.36260  0.47920  0.48920  Biso   1.000  N
  Cd4      1.0000 0.36431  0.59936  0.87367  Biso   1.000  Cd
  C40      1.0000 0.47221  0.24140  0.78970  Biso   1.000  C
  H25      1.0000 0.45390  0.19530  0.81660  Biso   1.000  H
  C41      1.0000 0.47188  0.37830  0.78920  Biso   1.000  C
  C42      1.0000 0.43980  0.45310  0.82939  Biso   1.000  C
  O7       1.0000 0.43057  0.39450  0.88470  Biso   1.000  O
  O8       1.0000 0.42023  0.57020  0.80396  Biso   1.000  O
  C43      1.0000 0.70208  0.87320  0.81425  Biso   1.000  C
  C44      1.0000 0.69133  0.75470  0.84530  Biso   1.000  C
  H26      1.0000 0.70020  0.67410  0.82830  Biso   1.000  H
  C45      1.0000 0.66744  0.75550  0.90163  Biso   1.000  C
  C46      1.0000 0.65564  0.87710  0.92720  Biso   1.000  C
  H27      1.0000 0.64030  0.87960  0.96530  Biso   1.000  H
  C47      1.0000 0.66640  0.99540  0.89650  Biso   1.000  C
  H28      1.0000 0.65800  0.07600  0.91400  Biso   1.000  H
  C48      1.0000 0.68964  0.99430  0.84030  Biso   1.000  C
  H29      1.0000 0.69690  0.07380  0.82010  Biso   1.000  H
  C49      1.0000 0.72583  0.87130  0.75318  Biso   1.000  C
  C50      1.0000 0.65617  0.63270  0.93497  Biso   1.000  C
  C51      1.0000 0.63683  0.61280  0.99390  Biso   1.000  C
  H30      1.0000 0.62510  0.67980  0.01880  Biso   1.000  H
  C52      1.0000 0.65679  0.41850  0.96220  Biso   1.000  C
  H31      1.0000 0.66160  0.32700  0.96060  Biso   1.000  H
  N19      1.0000 0.76972  0.95730  0.75499  Biso   1.000  N
  N20      1.0000 0.77484  0.91950  0.68630  Biso   1.000  N
  N21      1.0000 0.73640  0.81570  0.64457  Biso   1.000  N
  N22      1.0000 0.70467  0.78190  0.68633  Biso   1.000  N
  N23      1.0000 0.66839  0.50710  0.91569  Biso   1.000  N
  H32      1.0000 0.68120  0.48880  0.88010  Biso   1.000  H
  N24      1.0000 0.63740  0.47920  0.01080  Biso   1.000  N
  C53      1.0000 0.50000  0.82810  0.25000  Biso   1.000  C
  H33      1.0000 0.50000  0.92050  0.25000  Biso   1.000  H
  C54      1.0000 0.50000  0.55190  0.25000  Biso   1.000  C
  H34      1.0000 0.50000  0.45940  0.25000  Biso   1.000  H
  C55      1.0000 0.50000  0.17190  0.75000  Biso   1.000  C
  H35      1.0000 0.50000  0.07950  0.75000  Biso   1.000  H
  C56      1.0000 0.50000  0.44810  0.75000  Biso   1.000  C
  H36      1.0000 0.50000  0.54060  0.75000  Biso   1.000  H
  C57      1.0000 0.20208  0.62680  0.31425  Biso   1.000  C
  C58      1.0000 0.19133  0.74530  0.34530  Biso   1.000  C
  H37      1.0000 0.20020  0.82590  0.32830  Biso   1.000  H
  C59      1.0000 0.16744  0.74450  0.40163  Biso   1.000  C
  C60      1.0000 0.15564  0.62290  0.42720  Biso   1.000  C
  H38      1.0000 0.14030  0.62040  0.46530  Biso   1.000  H
  C61      1.0000 0.16640  0.50460  0.39650  Biso   1.000  C
  H39      1.0000 0.15800  0.42400  0.41400  Biso   1.000  H
  C62      1.0000 0.18964  0.50570  0.34030  Biso   1.000  C
  H40      1.0000 0.19690  0.42620  0.32010  Biso   1.000  H
  C63      1.0000 0.22583  0.62870  0.25318  Biso   1.000  C
  C64      1.0000 0.15617  0.86730  0.43497  Biso   1.000  C
  C65      1.0000 0.13683  0.88720  0.49390  Biso   1.000  C
  H41      1.0000 0.12510  0.82020  0.51880  Biso   1.000  H
  C66      1.0000 0.15679  0.08150  0.46220  Biso   1.000  C
  H42      1.0000 0.16160  0.17300  0.46060  Biso   1.000  H
  N25      1.0000 0.26972  0.54270  0.25499  Biso   1.000  N
  N26      1.0000 0.27484  0.58050  0.18630  Biso   1.000  N
  N27      1.0000 0.23640  0.68430  0.14457  Biso   1.000  N
  N28      1.0000 0.20467  0.71810  0.18633  Biso   1.000  N
  N29      1.0000 0.16839  0.99290  0.41569  Biso   1.000  N
  H43      1.0000 0.18120  0.01120  0.38010  Biso   1.000  H
  N30      1.0000 0.13740  0.02080  0.51080  Biso   1.000  N
  Cd5      1.0000 0.86431  0.90064  0.37367  Biso   1.000  Cd
  C67      1.0000 0.97221  0.25860  0.28970  Biso   1.000  C
  H44      1.0000 0.95390  0.30470  0.31660  Biso   1.000  H
  C68      1.0000 0.97188  0.12170  0.28920  Biso   1.000  C
  C69      1.0000 0.93980  0.04690  0.32939  Biso   1.000  C
  O9       1.0000 0.93057  0.10550  0.38470  Biso   1.000  O
  O10      1.0000 0.92023  0.92980  0.30396  Biso   1.000  O
  C70      1.0000 0.79792  0.62680  0.18575  Biso   1.000  C
  C71      1.0000 0.80867  0.74530  0.15470  Biso   1.000  C
  H45      1.0000 0.79980  0.82590  0.17170  Biso   1.000  H
  C72      1.0000 0.83256  0.74450  0.09837  Biso   1.000  C
  C73      1.0000 0.84436  0.62290  0.07280  Biso   1.000  C
  H46      1.0000 0.85970  0.62040  0.03470  Biso   1.000  H
  C74      1.0000 0.83360  0.50460  0.10350  Biso   1.000  C
  H47      1.0000 0.84200  0.42400  0.08600  Biso   1.000  H
  C75      1.0000 0.81036  0.50570  0.15970  Biso   1.000  C
  H48      1.0000 0.80310  0.42620  0.17990  Biso   1.000  H
  C76      1.0000 0.77417  0.62870  0.24682  Biso   1.000  C
  C77      1.0000 0.84383  0.86730  0.06503  Biso   1.000  C
  C78      1.0000 0.86317  0.88720  0.00610  Biso   1.000  C
  H49      1.0000 0.87490  0.82020  0.98120  Biso   1.000  H
  C79      1.0000 0.84321  0.08150  0.03780  Biso   1.000  C
  H50      1.0000 0.83840  0.17300  0.03940  Biso   1.000  H
  N31      1.0000 0.73028  0.54270  0.24501  Biso   1.000  N
  N32      1.0000 0.72516  0.58050  0.31370  Biso   1.000  N
  N33      1.0000 0.76360  0.68430  0.35543  Biso   1.000  N
  N34      1.0000 0.79533  0.71810  0.31367  Biso   1.000  N
  N35      1.0000 0.83161  0.99290  0.08431  Biso   1.000  N
  H51      1.0000 0.81880  0.01120  0.11990  Biso   1.000  H
  N36      1.0000 0.86260  0.02080  0.98920  Biso   1.000  N
  Cd6      1.0000 0.13569  0.90064  0.12633  Biso   1.000  Cd
  C80      1.0000 0.02779  0.25860  0.21030  Biso   1.000  C
  H52      1.0000 0.04610  0.30470  0.18340  Biso   1.000  H
  C81      1.0000 0.02812  0.12170  0.21080  Biso   1.000  C
  C82      1.0000 0.06020  0.04690  0.17061  Biso   1.000  C
  O11      1.0000 0.06943  0.10550  0.11530  Biso   1.000  O
  O12      1.0000 0.07977  0.92980  0.19604  Biso   1.000  O
  C83      1.0000 0.79792  0.37320  0.68575  Biso   1.000  C
  C84      1.0000 0.80867  0.25470  0.65470  Biso   1.000  C
  H53      1.0000 0.79980  0.17410  0.67170  Biso   1.000  H
  C85      1.0000 0.83256  0.25550  0.59837  Biso   1.000  C
  C86      1.0000 0.84436  0.37710  0.57280  Biso   1.000  C
  H54      1.0000 0.85970  0.37960  0.53470  Biso   1.000  H
  C87      1.0000 0.83360  0.49540  0.60350  Biso   1.000  C
  H55      1.0000 0.84200  0.57600  0.58600  Biso   1.000  H
  C88      1.0000 0.81036  0.49430  0.65970  Biso   1.000  C
  H56      1.0000 0.80310  0.57380  0.67990  Biso   1.000  H
  C89      1.0000 0.77417  0.37130  0.74682  Biso   1.000  C
  C90      1.0000 0.84383  0.13270  0.56503  Biso   1.000  C
  C91      1.0000 0.86317  0.11280  0.50610  Biso   1.000  C
  H57      1.0000 0.87490  0.17980  0.48120  Biso   1.000  H
  C92      1.0000 0.84321  0.91850  0.53780  Biso   1.000  C
  H58      1.0000 0.83840  0.82700  0.53940  Biso   1.000  H
  N37      1.0000 0.73028  0.45730  0.74501  Biso   1.000  N
  N38      1.0000 0.72516  0.41950  0.81370  Biso   1.000  N
  N39      1.0000 0.76360  0.31570  0.85543  Biso   1.000  N
  N40      1.0000 0.79533  0.28190  0.81367  Biso   1.000  N
  N41      1.0000 0.83161  0.00710  0.58431  Biso   1.000  N
  H59      1.0000 0.81880  0.98880  0.61990  Biso   1.000  H
  N42      1.0000 0.86260  0.97920  0.48920  Biso   1.000  N
  Cd7      1.0000 0.13569  0.09936  0.62633  Biso   1.000  Cd
  C93      1.0000 0.02779  0.74140  0.71030  Biso   1.000  C
  H60      1.0000 0.04610  0.69530  0.68340  Biso   1.000  H
  C94      1.0000 0.02812  0.87830  0.71080  Biso   1.000  C
  C95      1.0000 0.06020  0.95310  0.67061  Biso   1.000  C
  O13      1.0000 0.06943  0.89450  0.61530  Biso   1.000  O
  O14      1.0000 0.07977  0.07020  0.69604  Biso   1.000  O
  C96      1.0000 0.20208  0.37320  0.81425  Biso   1.000  C
  C97      1.0000 0.19133  0.25470  0.84530  Biso   1.000  C
  H61      1.0000 0.20020  0.17410  0.82830  Biso   1.000  H
  C98      1.0000 0.16744  0.25550  0.90163  Biso   1.000  C
  C99      1.0000 0.15564  0.37710  0.92720  Biso   1.000  C
  H62      1.0000 0.14030  0.37960  0.96530  Biso   1.000  H
  C100     1.0000 0.16640  0.49540  0.89650  Biso   1.000  C
  H63      1.0000 0.15800  0.57600  0.91400  Biso   1.000  H
  C101     1.0000 0.18964  0.49430  0.84030  Biso   1.000  C
  H64      1.0000 0.19690  0.57380  0.82010  Biso   1.000  H
  C102     1.0000 0.22583  0.37130  0.75318  Biso   1.000  C
  C103     1.0000 0.15617  0.13270  0.93497  Biso   1.000  C
  C104     1.0000 0.13683  0.11280  0.99390  Biso   1.000  C
  H65      1.0000 0.12510  0.17980  0.01880  Biso   1.000  H
  C105     1.0000 0.15679  0.91850  0.96220  Biso   1.000  C
  H66      1.0000 0.16160  0.82700  0.96060  Biso   1.000  H
  N43      1.0000 0.26972  0.45730  0.75499  Biso   1.000  N
  N44      1.0000 0.27484  0.41950  0.68630  Biso   1.000  N
  N45      1.0000 0.23640  0.31570  0.64457  Biso   1.000  N
  N46      1.0000 0.20467  0.28190  0.68633  Biso   1.000  N
  N47      1.0000 0.16839  0.00710  0.91569  Biso   1.000  N
  H67      1.0000 0.18120  0.98880  0.88010  Biso   1.000  H
  N48      1.0000 0.13740  0.97920  0.01080  Biso   1.000  N
  Cd8      1.0000 0.86431  0.09936  0.87367  Biso   1.000  Cd
  C106     1.0000 0.97221  0.74140  0.78970  Biso   1.000  C
  H68      1.0000 0.95390  0.69530  0.81660  Biso   1.000  H
  C107     1.0000 0.97188  0.87830  0.78920  Biso   1.000  C
  C108     1.0000 0.93980  0.95310  0.82939  Biso   1.000  C
  O15      1.0000 0.93057  0.89450  0.88470  Biso   1.000  O
  O16      1.0000 0.92023  0.07020  0.80396  Biso   1.000  O
  C109     1.0000 0.00000  0.32810  0.25000  Biso   1.000  C
  H69      1.0000 0.00000  0.42050  0.25000  Biso   1.000  H
  C110     1.0000 0.00000  0.05190  0.25000  Biso   1.000  C
  H70      1.0000 0.00000  0.95940  0.25000  Biso   1.000  H
  C111     1.0000 0.00000  0.67190  0.75000  Biso   1.000  C
  H71      1.0000 0.00000  0.57950  0.75000  Biso   1.000  H
  C112     1.0000 0.00000  0.94810  0.75000  Biso   1.000  C
  H72      1.0000 0.00000  0.04060  0.75000  Biso   1.000  H
