data_HIDMEO_clean
_audit_creation_date              2014-07-02
_audit_creation_method            'Materials Studio'
_symmetry_space_group_name_H-M    'P1'
_symmetry_Int_Tables_number       1
_symmetry_cell_setting            triclinic
loop_
_symmetry_equiv_pos_as_xyz
  x,y,z
_cell_length_a                    10.2304
_cell_length_b                    10.5293
_cell_length_c                    13.0853
_cell_angle_alpha                 100.8360
_cell_angle_beta                  90.7360
_cell_angle_gamma                 113.4200
loop_
_atom_site_label
_atom_site_type_symbol
_atom_site_fract_x
_atom_site_fract_y
_atom_site_fract_z
_atom_site_U_iso_or_equiv
_atom_site_adp_type
_atom_site_occupancy
Zn1    Zn    0.34190   0.19524   0.43893   0.01267  Uiso   1.00
Zn2    Zn    0.65810   0.80476   0.56107   0.01267  Uiso   1.00
Zn3    Zn    0.50000   0.00000   0.50000   0.01267  Uiso   1.00
H1     H     0.57950   0.54890   0.71730   0.01267  Uiso   1.00
H2     H     0.81260   0.32160   0.71810   0.01267  Uiso   1.00
H3     H     0.71460   0.70170   0.87020   0.01267  Uiso   1.00
H4     H     0.35700   0.47560   0.55280   0.01267  Uiso   1.00
H5     H     0.73840   0.64450   0.06470   0.01267  Uiso   1.00
H6     H     0.22600   0.90490   0.11520   0.01267  Uiso   1.00
H7     H     0.13170   0.94050   0.87330   0.01267  Uiso   1.00
H8     H     0.30000   0.97960   0.75450   0.01267  Uiso   1.00
H9     H     0.38040   0.65940   0.80920   0.01267  Uiso   1.00
H10    H     0.22140   0.62830   0.93780   0.01267  Uiso   1.00
H11    H     0.21890   0.60210   0.58230   0.01267  Uiso   1.00
H12    H     0.90310   0.28150   0.39970   0.01267  Uiso   1.00
H13    H     0.05280   0.16420   0.37170   0.01267  Uiso   1.00
H14    H     0.94060   0.46890   0.86900   0.01267  Uiso   1.00
H15    H     0.65230   0.67270   0.30860   0.01267  Uiso   1.00
H16    H     0.42050   0.45110   0.28270   0.01267  Uiso   1.00
H17    H     0.18740   0.67840   0.28190   0.01267  Uiso   1.00
H18    H     0.28540   0.29830   0.12980   0.01267  Uiso   1.00
H19    H     0.64300   0.52440   0.44720   0.01267  Uiso   1.00
H20    H     0.26160   0.35550   0.93530   0.01267  Uiso   1.00
H21    H     0.77400   0.09510   0.88480   0.01267  Uiso   1.00
H22    H     0.86830   0.05950   0.12670   0.01267  Uiso   1.00
H23    H     0.70000   0.02040   0.24550   0.01267  Uiso   1.00
H24    H     0.61960   0.34060   0.19080   0.01267  Uiso   1.00
H25    H     0.77860   0.37170   0.06220   0.01267  Uiso   1.00
H26    H     0.78110   0.39790   0.41770   0.01267  Uiso   1.00
H27    H     0.09690   0.71850   0.60030   0.01267  Uiso   1.00
H28    H     0.94720   0.83580   0.62830   0.01267  Uiso   1.00
H29    H     0.05940   0.53110   0.13100   0.01267  Uiso   1.00
H30    H     0.34770   0.32730   0.69140   0.01267  Uiso   1.00
C1     C     0.58020   0.30690   0.61420   0.01267  Uiso   1.00
C2     C     0.67310   0.41070   0.70700   0.01267  Uiso   1.00
C3     C     0.64990   0.53040   0.74920   0.01267  Uiso   1.00
C4     C     0.78840   0.39490   0.75010   0.01267  Uiso   1.00
C5     C     0.73330   0.62390   0.84060   0.01267  Uiso   1.00
C6     C     0.84360   0.60130   0.88730   0.01267  Uiso   1.00
C7     C     0.26350   0.43530   0.52150   0.01267  Uiso   1.00
C8     C     0.91850   0.69020   0.98960   0.01267  Uiso   1.00
C9     C     0.83720   0.69500   0.07490   0.01267  Uiso   1.00
C10    C     0.90100   0.77360   0.17470   0.01267  Uiso   1.00
C11    C     0.80500   0.78130   0.25800   0.01267  Uiso   1.00
C12    C     0.04770   0.85290   0.19130   0.01267  Uiso   1.00
C13    C     0.12330   0.93300   0.29660   0.01267  Uiso   1.00
C14    C     0.12770   0.85120   0.10590   0.01267  Uiso   1.00
C15    C     0.06400   0.77090   0.00680   0.01267  Uiso   1.00
C16    C     0.45610   0.84260   0.68080   0.01267  Uiso   1.00
C17    C     0.18340   0.88450   0.86260   0.01267  Uiso   1.00
C18    C     0.28220   0.90580   0.78910   0.01267  Uiso   1.00
C19    C     0.35390   0.81990   0.76650   0.01267  Uiso   1.00
C20    C     0.33130   0.71760   0.82240   0.01267  Uiso   1.00
C21    C     0.23520   0.69810   0.89970   0.01267  Uiso   1.00
C22    C     0.16120   0.78410   0.91860   0.01267  Uiso   1.00
C23    C     0.18130   0.51280   0.53840   0.01267  Uiso   1.00
C24    C     0.04650   0.45980   0.49170   0.01267  Uiso   1.00
C25    C     0.99670   0.32490   0.43100   0.01267  Uiso   1.00
C26    C     0.08620   0.25300   0.41610   0.01267  Uiso   1.00
C27    C     0.86760   0.48610   0.83950   0.01267  Uiso   1.00
C28    C     0.41980   0.69310   0.38580   0.01267  Uiso   1.00
C29    C     0.32690   0.58930   0.29300   0.01267  Uiso   1.00
C30    C     0.35010   0.46960   0.25080   0.01267  Uiso   1.00
C31    C     0.21160   0.60510   0.24990   0.01267  Uiso   1.00
C32    C     0.26670   0.37610   0.15940   0.01267  Uiso   1.00
C33    C     0.15640   0.39870   0.11270   0.01267  Uiso   1.00
C34    C     0.73650   0.56470   0.47850   0.01267  Uiso   1.00
C35    C     0.08150   0.30980   0.01040   0.01267  Uiso   1.00
C36    C     0.16280   0.30500   0.92510   0.01267  Uiso   1.00
C37    C     0.09900   0.22640   0.82530   0.01267  Uiso   1.00
C38    C     0.19500   0.21870   0.74200   0.01267  Uiso   1.00
C39    C     0.95230   0.14710   0.80870   0.01267  Uiso   1.00
C40    C     0.87670   0.06700   0.70340   0.01267  Uiso   1.00
C41    C     0.87230   0.14880   0.89410   0.01267  Uiso   1.00
C42    C     0.93600   0.22910   0.99320   0.01267  Uiso   1.00
C43    C     0.54390   0.15740   0.31920   0.01267  Uiso   1.00
C44    C     0.81660   0.11550   0.13740   0.01267  Uiso   1.00
C45    C     0.71780   0.09420   0.21090   0.01267  Uiso   1.00
C46    C     0.64610   0.18010   0.23350   0.01267  Uiso   1.00
C47    C     0.66870   0.28240   0.17760   0.01267  Uiso   1.00
C48    C     0.76480   0.30190   0.10030   0.01267  Uiso   1.00
C49    C     0.83880   0.21590   0.08140   0.01267  Uiso   1.00
C50    C     0.81870   0.48720   0.46160   0.01267  Uiso   1.00
C51    C     0.95350   0.54020   0.50830   0.01267  Uiso   1.00
C52    C     0.00330   0.67510   0.56900   0.01267  Uiso   1.00
C53    C     0.91380   0.74700   0.58390   0.01267  Uiso   1.00
C54    C     0.13240   0.51390   0.16050   0.01267  Uiso   1.00
N1     N     0.21560   0.30750   0.46330   0.01267  Uiso   1.00
N2     N     0.78440   0.69250   0.53670   0.01267  Uiso   1.00
O1     O     0.82880   0.88920   0.32250   0.01267  Uiso   1.00
O2     O     0.69630   0.66250   0.25800   0.01267  Uiso   1.00
O3     O     0.20770   0.05870   0.30540   0.01267  Uiso   1.00
O4     O     0.10030   0.86220   0.36850   0.01267  Uiso   1.00
O5     O     0.46660   0.31570   0.58370   0.01267  Uiso   1.00
O6     O     0.61850   0.20970   0.57140   0.01267  Uiso   1.00
O7     O     0.50370   0.74870   0.65100   0.01267  Uiso   1.00
O8     O     0.48480   0.95240   0.64590   0.01267  Uiso   1.00
O9     O     0.17120   0.11080   0.67750   0.01267  Uiso   1.00
O10    O     0.30370   0.33750   0.74200   0.01267  Uiso   1.00
O11    O     0.79230   0.94130   0.69460   0.01267  Uiso   1.00
O12    O     0.89970   0.13780   0.63150   0.01267  Uiso   1.00
O13    O     0.53340   0.68430   0.41630   0.01267  Uiso   1.00
O14    O     0.38150   0.79030   0.42860   0.01267  Uiso   1.00
O15    O     0.49630   0.25130   0.34900   0.01267  Uiso   1.00
O16    O     0.51520   0.04760   0.35410   0.01267  Uiso   1.00
