data_HIFGIO_clean
_audit_creation_date              2015-05-14
_audit_creation_method            'Materials Studio'
_symmetry_space_group_name_H-M    'P1'
_symmetry_Int_Tables_number       1
_symmetry_cell_setting            triclinic
loop_
_symmetry_equiv_pos_as_xyz
  x,y,z
_cell_length_a                    5.9660
_cell_length_b                    19.0132
_cell_length_c                    19.0132
_cell_angle_alpha                 101.3270
_cell_angle_beta                  97.7515
_cell_angle_gamma                 82.2485
loop_
_atom_site_label
_atom_site_type_symbol
_atom_site_fract_x
_atom_site_fract_y
_atom_site_fract_z
_atom_site_U_iso_or_equiv
_atom_site_adp_type
_atom_site_occupancy
Zn1    Zn    0.50000   0.00000   0.00000   0.01267  Uiso   1.00
Zn2    Zn    1.00000   0.06012   0.06012   0.01267  Uiso   1.00
Zn3    Zn    1.00000   0.93988   0.93988   0.01267  Uiso   1.00
H4     H     0.75230   0.28730   0.07190   0.01267  Uiso   1.00
H5     H     0.55280   0.39690   0.05830   0.01267  Uiso   1.00
H6     H     0.01120   0.30410   0.97090   0.01267  Uiso   1.00
H7     H     0.19040   0.19480   0.99240   0.01267  Uiso   1.00
H8     H     0.04880   0.56100   0.91200   0.01267  Uiso   1.00
H9     H     0.34540   0.47880   0.86920   0.01267  Uiso   1.00
H10    H     0.50220   0.45290   0.93650   0.01267  Uiso   1.00
H11    H     0.35690   0.39720   0.88060   0.01267  Uiso   1.00
H12    H     0.24770   0.07190   0.28730   0.01267  Uiso   1.00
H13    H     0.44720   0.05830   0.39690   0.01267  Uiso   1.00
H14    H     0.98880   0.97090   0.30410   0.01267  Uiso   1.00
H15    H     0.80960   0.99240   0.19480   0.01267  Uiso   1.00
H16    H     0.95120   0.91200   0.56100   0.01267  Uiso   1.00
H17    H     0.65460   0.86920   0.47880   0.01267  Uiso   1.00
H18    H     0.49780   0.93650   0.45290   0.01267  Uiso   1.00
H19    H     0.64310   0.88060   0.39720   0.01267  Uiso   1.00
H20    H     0.24770   0.71270   0.92810   0.01267  Uiso   1.00
H21    H     0.44720   0.60310   0.94170   0.01267  Uiso   1.00
H22    H     0.98880   0.69590   0.02910   0.01267  Uiso   1.00
H23    H     0.80960   0.80520   0.00760   0.01267  Uiso   1.00
H24    H     0.95120   0.43900   0.08800   0.01267  Uiso   1.00
H25    H     0.65460   0.52120   0.13080   0.01267  Uiso   1.00
H26    H     0.49780   0.54710   0.06350   0.01267  Uiso   1.00
H27    H     0.64310   0.60280   0.11940   0.01267  Uiso   1.00
H28    H     0.75230   0.92810   0.71270   0.01267  Uiso   1.00
H29    H     0.55280   0.94170   0.60310   0.01267  Uiso   1.00
H30    H     0.01120   0.02910   0.69590   0.01267  Uiso   1.00
H31    H     0.19040   0.00760   0.80520   0.01267  Uiso   1.00
H32    H     0.04880   0.08800   0.43900   0.01267  Uiso   1.00
H33    H     0.34540   0.13080   0.52120   0.01267  Uiso   1.00
H34    H     0.50220   0.06350   0.54710   0.01267  Uiso   1.00
H35    H     0.35690   0.11940   0.60280   0.01267  Uiso   1.00
C36    C     0.62620   0.15700   0.03440   0.01267  Uiso   1.00
C37    C     0.50070   0.22850   0.02930   0.01267  Uiso   1.00
C38    C     0.59840   0.28910   0.05090   0.01267  Uiso   1.00
C39    C     0.47710   0.35470   0.04290   0.01267  Uiso   1.00
C40    C     0.25830   0.36260   0.01440   0.01267  Uiso   1.00
C41    C     0.16320   0.30170   0.99370   0.01267  Uiso   1.00
C42    C     0.27210   0.23580   0.00340   0.01267  Uiso   1.00
C43    C     0.12560   0.43370   0.00670   0.01267  Uiso   1.00
C44    C     0.15490   0.46940   0.95160   0.01267  Uiso   1.00
C45    C     0.02610   0.53590   0.94850   0.01267  Uiso   1.00
C46    C     0.35890   0.44760   0.90520   0.01267  Uiso   1.00
C47    C     0.37380   0.03440   0.15700   0.01267  Uiso   1.00
C48    C     0.49930   0.02930   0.22850   0.01267  Uiso   1.00
C49    C     0.40160   0.05090   0.28910   0.01267  Uiso   1.00
C50    C     0.52290   0.04290   0.35470   0.01267  Uiso   1.00
C51    C     0.74170   0.01440   0.36260   0.01267  Uiso   1.00
C52    C     0.83680   0.99370   0.30170   0.01267  Uiso   1.00
C53    C     0.72790   0.00340   0.23580   0.01267  Uiso   1.00
C54    C     0.87440   0.00670   0.43370   0.01267  Uiso   1.00
C55    C     0.84510   0.95160   0.46940   0.01267  Uiso   1.00
C56    C     0.97390   0.94850   0.53590   0.01267  Uiso   1.00
C57    C     0.64110   0.90520   0.44760   0.01267  Uiso   1.00
C58    C     0.37380   0.84300   0.96560   0.01267  Uiso   1.00
C59    C     0.49930   0.77150   0.97070   0.01267  Uiso   1.00
C60    C     0.40160   0.71090   0.94910   0.01267  Uiso   1.00
C61    C     0.52290   0.64530   0.95710   0.01267  Uiso   1.00
C62    C     0.74170   0.63740   0.98560   0.01267  Uiso   1.00
C63    C     0.83680   0.69830   0.00630   0.01267  Uiso   1.00
C64    C     0.72790   0.76420   0.99660   0.01267  Uiso   1.00
C65    C     0.87440   0.56630   0.99330   0.01267  Uiso   1.00
C66    C     0.84510   0.53060   0.04840   0.01267  Uiso   1.00
C67    C     0.97390   0.46410   0.05150   0.01267  Uiso   1.00
C68    C     0.64110   0.55240   0.09480   0.01267  Uiso   1.00
C69    C     0.62620   0.96560   0.84300   0.01267  Uiso   1.00
C70    C     0.50070   0.97070   0.77150   0.01267  Uiso   1.00
C71    C     0.59840   0.94910   0.71090   0.01267  Uiso   1.00
C72    C     0.47710   0.95710   0.64530   0.01267  Uiso   1.00
C73    C     0.25830   0.98560   0.63740   0.01267  Uiso   1.00
C74    C     0.16320   0.00630   0.69830   0.01267  Uiso   1.00
C75    C     0.27210   0.99660   0.76420   0.01267  Uiso   1.00
C76    C     0.12560   0.99330   0.56630   0.01267  Uiso   1.00
C77    C     0.15490   0.04840   0.53060   0.01267  Uiso   1.00
C78    C     0.02610   0.05150   0.46410   0.01267  Uiso   1.00
C79    C     0.35890   0.09480   0.55240   0.01267  Uiso   1.00
O80    O     0.54030   0.10380   0.01300   0.01267  Uiso   1.00
O81    O     0.82670   0.15352   0.06040   0.01267  Uiso   1.00
O82    O     0.45970   0.01300   0.10380   0.01267  Uiso   1.00
O83    O     0.17330   0.06040   0.15352   0.01267  Uiso   1.00
O84    O     0.45970   0.89620   0.98700   0.01267  Uiso   1.00
O85    O     0.17330   0.84648   0.93960   0.01267  Uiso   1.00
O86    O     0.54030   0.98700   0.89620   0.01267  Uiso   1.00
O87    O     0.82670   0.93960   0.84648   0.01267  Uiso   1.00
O88    O     0.16270   0.02831   0.97169   0.01267  Uiso   1.00
O89    O     0.83730   0.97169   0.02831   0.01267  Uiso   1.00
H90    H     0.83730   0.91805   0.01777   0.01267  Uiso   1.00
H91    H     0.16270   0.08195   0.98223   0.01267  Uiso   1.00
