data_HIFZAY_charged
_audit_creation_date              2014-07-02
_audit_creation_method            'Materials Studio'
_symmetry_space_group_name_H-M    'P1'
_symmetry_Int_Tables_number       1
_symmetry_cell_setting            triclinic
loop_
_symmetry_equiv_pos_as_xyz
  x,y,z
_cell_length_a                    12.0861
_cell_length_b                    14.6555
_cell_length_c                    21.5673
_cell_angle_alpha                 90.0000
_cell_angle_beta                  104.0250
_cell_angle_gamma                 90.0000
loop_
_atom_site_label
_atom_site_type_symbol
_atom_site_fract_x
_atom_site_fract_y
_atom_site_fract_z
_atom_site_U_iso_or_equiv
_atom_site_adp_type
_atom_site_occupancy
Cu1    Cu    0.72527   0.74124   0.50477   0.01267  Uiso   1.00
Cu2    Cu    0.27473   0.74124   0.99523   0.01267  Uiso   1.00
Cu3    Cu    0.27473   0.25876   0.49523   0.01267  Uiso   1.00
Cu4    Cu    0.72527   0.25876   0.00477   0.01267  Uiso   1.00
Cu5    Cu    0.00000   0.00000   0.50000   0.01267  Uiso   1.00
Cu6    Cu    0.00000   0.00000   0.00000   0.01267  Uiso   1.00
H1     H     0.14430   0.11000   0.61370   0.01267  Uiso   1.00
H2     H     0.14330   0.13160   0.72050   0.01267  Uiso   1.00
H3     H     0.86200   0.97840   0.68670   0.01267  Uiso   1.00
H4     H     0.73540   0.01220   0.46710   0.01267  Uiso   1.00
H5     H     0.66740   0.27990   0.44070   0.01267  Uiso   1.00
H6     H     0.86200   0.30060   0.45230   0.01267  Uiso   1.00
H7     H     0.52340   0.23700   0.49150   0.01267  Uiso   1.00
H8     H     0.54580   0.00090   0.40100   0.01267  Uiso   1.00
H9     H     0.35190   0.98110   0.39490   0.01267  Uiso   1.00
H10    H     0.59880   0.61970   0.40750   0.01267  Uiso   1.00
H11    H     0.50600   0.61620   0.30080   0.01267  Uiso   1.00
H12    H     0.56770   0.88260   0.29680   0.01267  Uiso   1.00
H13    H     0.69710   0.70640   0.64110   0.01267  Uiso   1.00
H14    H     0.81250   0.69980   0.74470   0.01267  Uiso   1.00
H15    H     0.07490   0.75410   0.66780   0.01267  Uiso   1.00
H16    H     0.86100   0.56640   0.53600   0.01267  Uiso   1.00
H17    H     0.07220   0.55430   0.41950   0.01267  Uiso   1.00
H18    H     0.98740   0.68710   0.37310   0.01267  Uiso   1.00
H19    H     0.85570   0.11000   0.88630   0.01267  Uiso   1.00
H20    H     0.85670   0.13160   0.77950   0.01267  Uiso   1.00
H21    H     0.13800   0.97840   0.81330   0.01267  Uiso   1.00
H22    H     0.26460   0.01220   0.03290   0.01267  Uiso   1.00
H23    H     0.33260   0.27990   0.05930   0.01267  Uiso   1.00
H24    H     0.13800   0.30060   0.04770   0.01267  Uiso   1.00
H25    H     0.47660   0.23700   0.00850   0.01267  Uiso   1.00
H26    H     0.45420   0.00090   0.09900   0.01267  Uiso   1.00
H27    H     0.64810   0.98110   0.10510   0.01267  Uiso   1.00
H28    H     0.40120   0.61970   0.09250   0.01267  Uiso   1.00
H29    H     0.49400   0.61620   0.19920   0.01267  Uiso   1.00
H30    H     0.43230   0.88260   0.20320   0.01267  Uiso   1.00
H31    H     0.30290   0.70640   0.85890   0.01267  Uiso   1.00
H32    H     0.18750   0.69980   0.75530   0.01267  Uiso   1.00
H33    H     0.92510   0.75410   0.83220   0.01267  Uiso   1.00
H34    H     0.13900   0.56640   0.96400   0.01267  Uiso   1.00
H35    H     0.92780   0.55430   0.08050   0.01267  Uiso   1.00
H36    H     0.01260   0.68710   0.12690   0.01267  Uiso   1.00
H37    H     0.85570   0.89000   0.38630   0.01267  Uiso   1.00
H38    H     0.85670   0.86840   0.27950   0.01267  Uiso   1.00
H39    H     0.13800   0.02160   0.31330   0.01267  Uiso   1.00
H40    H     0.26460   0.98780   0.53290   0.01267  Uiso   1.00
H41    H     0.33260   0.72010   0.55930   0.01267  Uiso   1.00
H42    H     0.13800   0.69940   0.54770   0.01267  Uiso   1.00
H43    H     0.47660   0.76300   0.50850   0.01267  Uiso   1.00
H44    H     0.45420   0.99910   0.59900   0.01267  Uiso   1.00
H45    H     0.64810   0.01890   0.60510   0.01267  Uiso   1.00
H46    H     0.40120   0.38030   0.59250   0.01267  Uiso   1.00
H47    H     0.49400   0.38380   0.69920   0.01267  Uiso   1.00
H48    H     0.43230   0.11740   0.70320   0.01267  Uiso   1.00
H49    H     0.30290   0.29360   0.35890   0.01267  Uiso   1.00
H50    H     0.18750   0.30020   0.25530   0.01267  Uiso   1.00
H51    H     0.92510   0.24590   0.33220   0.01267  Uiso   1.00
H52    H     0.13900   0.43360   0.46400   0.01267  Uiso   1.00
H53    H     0.92780   0.44570   0.58050   0.01267  Uiso   1.00
H54    H     0.01260   0.31290   0.62690   0.01267  Uiso   1.00
H55    H     0.14430   0.89000   0.11370   0.01267  Uiso   1.00
H56    H     0.14330   0.86840   0.22050   0.01267  Uiso   1.00
H57    H     0.86200   0.02160   0.18670   0.01267  Uiso   1.00
H58    H     0.73540   0.98780   0.96710   0.01267  Uiso   1.00
H59    H     0.66740   0.72010   0.94070   0.01267  Uiso   1.00
H60    H     0.86200   0.69940   0.95230   0.01267  Uiso   1.00
H61    H     0.52340   0.76300   0.99150   0.01267  Uiso   1.00
H62    H     0.54580   0.99910   0.90100   0.01267  Uiso   1.00
H63    H     0.35190   0.01890   0.89490   0.01267  Uiso   1.00
H64    H     0.59880   0.38030   0.90750   0.01267  Uiso   1.00
H65    H     0.50600   0.38380   0.80080   0.01267  Uiso   1.00
H66    H     0.56770   0.11740   0.79680   0.01267  Uiso   1.00
H67    H     0.69710   0.29360   0.14110   0.01267  Uiso   1.00
H68    H     0.81250   0.30020   0.24470   0.01267  Uiso   1.00
H69    H     0.07490   0.24590   0.16780   0.01267  Uiso   1.00
H70    H     0.86100   0.43360   0.03600   0.01267  Uiso   1.00
H71    H     0.07220   0.44570   0.91950   0.01267  Uiso   1.00
H72    H     0.98740   0.31290   0.87310   0.01267  Uiso   1.00
C1     C     0.08680   0.08250   0.62980   0.01267  Uiso   1.00
C2     C     0.08670   0.09600   0.69370   0.01267  Uiso   1.00
C3     C     0.00210   0.05600   0.71620   0.01267  Uiso   1.00
C4     C     0.92200   0.00530   0.67250   0.01267  Uiso   1.00
C5     C     0.75970   0.07290   0.46530   0.01267  Uiso   1.00
C6     C     0.67860   0.14270   0.45320   0.01267  Uiso   1.00
C7     C     0.71770   0.23000   0.44880   0.01267  Uiso   1.00
C8     C     0.83460   0.24160   0.45690   0.01267  Uiso   1.00
C9     C     0.48950   0.18380   0.47110   0.01267  Uiso   1.00
C10    C     0.55680   0.12230   0.44700   0.01267  Uiso   1.00
C11    C     0.50480   0.04490   0.41800   0.01267  Uiso   1.00
C12    C     0.38850   0.03390   0.41460   0.01267  Uiso   1.00
C13    C     0.59180   0.67400   0.38380   0.01267  Uiso   1.00
C14    C     0.53680   0.67120   0.32000   0.01267  Uiso   1.00
C15    C     0.52780   0.75030   0.28470   0.01267  Uiso   1.00
C16    C     0.57280   0.82690   0.31890   0.01267  Uiso   1.00
C17    C     0.77610   0.71500   0.64760   0.01267  Uiso   1.00
C18    C     0.84420   0.71150   0.70980   0.01267  Uiso   1.00
C19    C     0.95970   0.72590   0.71820   0.01267  Uiso   1.00
C20    C     0.99680   0.74270   0.66320   0.01267  Uiso   1.00
C21    C     0.88900   0.59010   0.50230   0.01267  Uiso   1.00
C22    C     0.97680   0.54250   0.48400   0.01267  Uiso   1.00
C23    C     0.01320   0.58140   0.43460   0.01267  Uiso   1.00
C24    C     0.96170   0.66130   0.40700   0.01267  Uiso   1.00
C25    C     0.91320   0.08250   0.87020   0.01267  Uiso   1.00
C26    C     0.91330   0.09600   0.80630   0.01267  Uiso   1.00
C27    C     0.99790   0.05600   0.78380   0.01267  Uiso   1.00
C28    C     0.07800   0.00530   0.82750   0.01267  Uiso   1.00
C29    C     0.24030   0.07290   0.03470   0.01267  Uiso   1.00
C30    C     0.32140   0.14270   0.04680   0.01267  Uiso   1.00
C31    C     0.28230   0.23000   0.05120   0.01267  Uiso   1.00
C32    C     0.16540   0.24160   0.04310   0.01267  Uiso   1.00
C33    C     0.51050   0.18380   0.02890   0.01267  Uiso   1.00
C34    C     0.44320   0.12230   0.05300   0.01267  Uiso   1.00
C35    C     0.49520   0.04490   0.08200   0.01267  Uiso   1.00
C36    C     0.61150   0.03390   0.08540   0.01267  Uiso   1.00
C37    C     0.40820   0.67400   0.11620   0.01267  Uiso   1.00
C38    C     0.46320   0.67120   0.18000   0.01267  Uiso   1.00
C39    C     0.47220   0.75030   0.21530   0.01267  Uiso   1.00
C40    C     0.42720   0.82690   0.18110   0.01267  Uiso   1.00
C41    C     0.22390   0.71500   0.85240   0.01267  Uiso   1.00
C42    C     0.15580   0.71150   0.79020   0.01267  Uiso   1.00
C43    C     0.04030   0.72590   0.78180   0.01267  Uiso   1.00
C44    C     0.00320   0.74270   0.83680   0.01267  Uiso   1.00
C45    C     0.11100   0.59010   0.99770   0.01267  Uiso   1.00
C46    C     0.02320   0.54250   0.01600   0.01267  Uiso   1.00
C47    C     0.98680   0.58140   0.06540   0.01267  Uiso   1.00
C48    C     0.03830   0.66130   0.09300   0.01267  Uiso   1.00
C49    C     0.91320   0.91750   0.37020   0.01267  Uiso   1.00
C50    C     0.91330   0.90400   0.30630   0.01267  Uiso   1.00
C51    C     0.99790   0.94400   0.28380   0.01267  Uiso   1.00
C52    C     0.07800   0.99470   0.32750   0.01267  Uiso   1.00
C53    C     0.24030   0.92710   0.53470   0.01267  Uiso   1.00
C54    C     0.32140   0.85730   0.54680   0.01267  Uiso   1.00
C55    C     0.28230   0.77000   0.55120   0.01267  Uiso   1.00
C56    C     0.16540   0.75840   0.54310   0.01267  Uiso   1.00
C57    C     0.51050   0.81620   0.52890   0.01267  Uiso   1.00
C58    C     0.44320   0.87770   0.55300   0.01267  Uiso   1.00
C59    C     0.49520   0.95510   0.58200   0.01267  Uiso   1.00
C60    C     0.61150   0.96610   0.58540   0.01267  Uiso   1.00
C61    C     0.40820   0.32600   0.61620   0.01267  Uiso   1.00
C62    C     0.46320   0.32880   0.68000   0.01267  Uiso   1.00
C63    C     0.47220   0.24970   0.71530   0.01267  Uiso   1.00
C64    C     0.42720   0.17310   0.68110   0.01267  Uiso   1.00
C65    C     0.22390   0.28500   0.35240   0.01267  Uiso   1.00
C66    C     0.15580   0.28850   0.29020   0.01267  Uiso   1.00
C67    C     0.04030   0.27410   0.28180   0.01267  Uiso   1.00
C68    C     0.00320   0.25730   0.33680   0.01267  Uiso   1.00
C69    C     0.11100   0.40990   0.49770   0.01267  Uiso   1.00
C70    C     0.02320   0.45750   0.51600   0.01267  Uiso   1.00
C71    C     0.98680   0.41860   0.56540   0.01267  Uiso   1.00
C72    C     0.03830   0.33870   0.59300   0.01267  Uiso   1.00
C73    C     0.08680   0.91750   0.12980   0.01267  Uiso   1.00
C74    C     0.08670   0.90400   0.19370   0.01267  Uiso   1.00
C75    C     0.00210   0.94400   0.21620   0.01267  Uiso   1.00
C76    C     0.92200   0.99470   0.17250   0.01267  Uiso   1.00
C77    C     0.75970   0.92710   0.96530   0.01267  Uiso   1.00
C78    C     0.67860   0.85730   0.95320   0.01267  Uiso   1.00
C79    C     0.71770   0.77000   0.94880   0.01267  Uiso   1.00
C80    C     0.83460   0.75840   0.95690   0.01267  Uiso   1.00
C81    C     0.48950   0.81620   0.97110   0.01267  Uiso   1.00
C82    C     0.55680   0.87770   0.94700   0.01267  Uiso   1.00
C83    C     0.50480   0.95510   0.91800   0.01267  Uiso   1.00
C84    C     0.38850   0.96610   0.91460   0.01267  Uiso   1.00
C85    C     0.59180   0.32600   0.88380   0.01267  Uiso   1.00
C86    C     0.53680   0.32880   0.82000   0.01267  Uiso   1.00
C87    C     0.52780   0.24970   0.78470   0.01267  Uiso   1.00
C88    C     0.57280   0.17310   0.81890   0.01267  Uiso   1.00
C89    C     0.77610   0.28500   0.14760   0.01267  Uiso   1.00
C90    C     0.84420   0.28850   0.20980   0.01267  Uiso   1.00
C91    C     0.95970   0.27410   0.21820   0.01267  Uiso   1.00
C92    C     0.99680   0.25730   0.16320   0.01267  Uiso   1.00
C93    C     0.88900   0.40990   0.00230   0.01267  Uiso   1.00
C94    C     0.97680   0.45750   0.98400   0.01267  Uiso   1.00
C95    C     0.01320   0.41860   0.93460   0.01267  Uiso   1.00
C96    C     0.96170   0.33870   0.90700   0.01267  Uiso   1.00
N1     N     0.00910   0.03260   0.59115   0.01267  Uiso   1.00
N2     N     0.92540   0.99290   0.61280   0.01267  Uiso   1.00
N3     N     0.87010   0.09020   0.47440   0.01267  Uiso   1.00
N4     N     0.90870   0.17460   0.47050   0.01267  Uiso   1.00
N5     N     0.37890   0.16960   0.46602   0.01267  Uiso   1.00
N6     N     0.32740   0.09400   0.43774   0.01267  Uiso   1.00
N7     N     0.63420   0.74830   0.41260   0.01267  Uiso   1.00
N8     N     0.62320   0.82700   0.38150   0.01267  Uiso   1.00
N9     N     0.81810   0.72970   0.59762   0.01267  Uiso   1.00
N10    N     0.92980   0.74370   0.60467   0.01267  Uiso   1.00
N11    N     0.84390   0.66590   0.47502   0.01267  Uiso   1.00
N12    N     0.87840   0.70300   0.42600   0.01267  Uiso   1.00
N13    N     0.99090   0.03260   0.90885   0.01267  Uiso   1.00
N14    N     0.07460   0.99290   0.88720   0.01267  Uiso   1.00
N15    N     0.12990   0.09020   0.02560   0.01267  Uiso   1.00
N16    N     0.09130   0.17460   0.02950   0.01267  Uiso   1.00
N17    N     0.62110   0.16960   0.03398   0.01267  Uiso   1.00
N18    N     0.67260   0.09400   0.06226   0.01267  Uiso   1.00
N19    N     0.36580   0.74830   0.08740   0.01267  Uiso   1.00
N20    N     0.37680   0.82700   0.11850   0.01267  Uiso   1.00
N21    N     0.18190   0.72970   0.90238   0.01267  Uiso   1.00
N22    N     0.07020   0.74370   0.89533   0.01267  Uiso   1.00
N23    N     0.15610   0.66590   0.02498   0.01267  Uiso   1.00
N24    N     0.12160   0.70300   0.07400   0.01267  Uiso   1.00
N25    N     0.99090   0.96740   0.40885   0.01267  Uiso   1.00
N26    N     0.07460   0.00710   0.38720   0.01267  Uiso   1.00
N27    N     0.12990   0.90980   0.52560   0.01267  Uiso   1.00
N28    N     0.09130   0.82540   0.52950   0.01267  Uiso   1.00
N29    N     0.62110   0.83040   0.53398   0.01267  Uiso   1.00
N30    N     0.67260   0.90600   0.56226   0.01267  Uiso   1.00
N31    N     0.36580   0.25170   0.58740   0.01267  Uiso   1.00
N32    N     0.37680   0.17300   0.61850   0.01267  Uiso   1.00
N33    N     0.18190   0.27030   0.40238   0.01267  Uiso   1.00
N34    N     0.07020   0.25630   0.39533   0.01267  Uiso   1.00
N35    N     0.15610   0.33410   0.52498   0.01267  Uiso   1.00
N36    N     0.12160   0.29700   0.57400   0.01267  Uiso   1.00
N37    N     0.00910   0.96740   0.09115   0.01267  Uiso   1.00
N38    N     0.92540   0.00710   0.11280   0.01267  Uiso   1.00
N39    N     0.87010   0.90980   0.97440   0.01267  Uiso   1.00
N40    N     0.90870   0.82540   0.97050   0.01267  Uiso   1.00
N41    N     0.37890   0.83040   0.96602   0.01267  Uiso   1.00
N42    N     0.32740   0.90600   0.93774   0.01267  Uiso   1.00
N43    N     0.63420   0.25170   0.91260   0.01267  Uiso   1.00
N44    N     0.62320   0.17300   0.88150   0.01267  Uiso   1.00
N45    N     0.81810   0.27030   0.09762   0.01267  Uiso   1.00
N46    N     0.92980   0.25630   0.10467   0.01267  Uiso   1.00
N47    N     0.84390   0.33410   0.97502   0.01267  Uiso   1.00
N48    N     0.87840   0.29700   0.92600   0.01267  Uiso   1.00
B1     B     0.76310   0.43960   0.35520   0.01267  Uiso   1.00
F1     F     0.73860   0.44850   0.41470   0.01267  Uiso   1.00
F2     F     0.70610   0.36790   0.32250   0.01267  Uiso   1.00
F3     F     0.87730   0.42130   0.36500   0.01267  Uiso   1.00
F4     F     0.73720   0.52030   0.32410   0.01267  Uiso   1.00
B2     B     0.70350   0.08980   0.27820   0.01267  Uiso   1.00
F5     F     0.81490   0.10740   0.30070   0.01267  Uiso   1.00
F6     F     0.66730   0.03590   0.31960   0.01267  Uiso   1.00
F7     F     0.64480   0.16570   0.26790   0.01267  Uiso   1.00
F8     F     0.69010   0.03890   0.22830   0.01267  Uiso   1.00
B3     B     0.74040   0.23070   0.63140   0.01267  Uiso   1.00
F9     F     0.82110   0.18850   0.60870   0.01267  Uiso   1.00
F10    F     0.75750   0.24080   0.69100   0.01267  Uiso   1.00
F11    F     0.64660   0.18650   0.60510   0.01267  Uiso   1.00
F12    F     0.70870   0.30490   0.59540   0.01267  Uiso   1.00
B4     B     0.23690   0.43960   0.14480   0.01267  Uiso   1.00
F13    F     0.26140   0.44850   0.08530   0.01267  Uiso   1.00
F14    F     0.29390   0.36790   0.17750   0.01267  Uiso   1.00
F15    F     0.12270   0.42130   0.13500   0.01267  Uiso   1.00
F16    F     0.26280   0.52030   0.17590   0.01267  Uiso   1.00
B5     B     0.29650   0.08980   0.22180   0.01267  Uiso   1.00
F17    F     0.18510   0.10740   0.19930   0.01267  Uiso   1.00
F18    F     0.33270   0.03590   0.18040   0.01267  Uiso   1.00
F19    F     0.35520   0.16570   0.23210   0.01267  Uiso   1.00
F20    F     0.30990   0.03890   0.27170   0.01267  Uiso   1.00
B6     B     0.25960   0.23070   0.86860   0.01267  Uiso   1.00
F21    F     0.17890   0.18850   0.89130   0.01267  Uiso   1.00
F22    F     0.24250   0.24080   0.80900   0.01267  Uiso   1.00
F23    F     0.35340   0.18650   0.89490   0.01267  Uiso   1.00
F24    F     0.29130   0.30490   0.90460   0.01267  Uiso   1.00
B7     B     0.23690   0.56040   0.64480   0.01267  Uiso   1.00
F25    F     0.26140   0.55150   0.58530   0.01267  Uiso   1.00
F26    F     0.29390   0.63210   0.67750   0.01267  Uiso   1.00
F27    F     0.12270   0.57870   0.63500   0.01267  Uiso   1.00
F28    F     0.26280   0.47970   0.67590   0.01267  Uiso   1.00
B8     B     0.29650   0.91020   0.72180   0.01267  Uiso   1.00
F29    F     0.18510   0.89260   0.69930   0.01267  Uiso   1.00
F30    F     0.33270   0.96410   0.68040   0.01267  Uiso   1.00
F31    F     0.35520   0.83430   0.73210   0.01267  Uiso   1.00
F32    F     0.30990   0.96110   0.77170   0.01267  Uiso   1.00
B9     B     0.25960   0.76930   0.36860   0.01267  Uiso   1.00
F33    F     0.17890   0.81150   0.39130   0.01267  Uiso   1.00
F34    F     0.24250   0.75920   0.30900   0.01267  Uiso   1.00
F35    F     0.35340   0.81350   0.39490   0.01267  Uiso   1.00
F36    F     0.29130   0.69510   0.40460   0.01267  Uiso   1.00
B10    B     0.76310   0.56040   0.85520   0.01267  Uiso   1.00
F37    F     0.73860   0.55150   0.91470   0.01267  Uiso   1.00
F38    F     0.70610   0.63210   0.82250   0.01267  Uiso   1.00
F39    F     0.87730   0.57870   0.86500   0.01267  Uiso   1.00
F40    F     0.73720   0.47970   0.82410   0.01267  Uiso   1.00
B11    B     0.70350   0.91020   0.77820   0.01267  Uiso   1.00
F41    F     0.81490   0.89260   0.80070   0.01267  Uiso   1.00
F42    F     0.66730   0.96410   0.81960   0.01267  Uiso   1.00
F43    F     0.64480   0.83430   0.76790   0.01267  Uiso   1.00
F44    F     0.69010   0.96110   0.72830   0.01267  Uiso   1.00
B12    B     0.74040   0.76930   0.13140   0.01267  Uiso   1.00
F45    F     0.82110   0.81150   0.10870   0.01267  Uiso   1.00
F46    F     0.75750   0.75920   0.19100   0.01267  Uiso   1.00
F47    F     0.64660   0.81350   0.10510   0.01267  Uiso   1.00
F48    F     0.70870   0.69510   0.09540   0.01267  Uiso   1.00
