data_HIHFOV_clean
_audit_creation_date              2014-07-02
_audit_creation_method            'Materials Studio'
_symmetry_space_group_name_H-M    'P1'
_symmetry_Int_Tables_number       1
_symmetry_cell_setting            triclinic
loop_
_symmetry_equiv_pos_as_xyz
  x,y,z
_cell_length_a                    9.6535
_cell_length_b                    12.9132
_cell_length_c                    17.2072
_cell_angle_alpha                 105.7740
_cell_angle_beta                  90.0000
_cell_angle_gamma                 111.9490
loop_
_atom_site_label
_atom_site_type_symbol
_atom_site_fract_x
_atom_site_fract_y
_atom_site_fract_z
_atom_site_U_iso_or_equiv
_atom_site_adp_type
_atom_site_occupancy
Ni1    Ni    0.08261   0.05512   0.61039   0.01267  Uiso   1.00
Ni2    Ni    0.97251   0.05512   0.11039   0.01267  Uiso   1.00
H1     H     0.16610   0.98580   0.76310   0.01267  Uiso   1.00
H2     H     0.20270   0.80560   0.76460   0.01267  Uiso   1.00
H3     H     0.15710   0.68160   0.62130   0.01267  Uiso   1.00
H4     H     0.04860   0.74560   0.33620   0.01267  Uiso   1.00
H5     H     0.02180   0.90840   0.29700   0.01267  Uiso   1.00
H6     H     0.02520   0.05720   0.42650   0.01267  Uiso   1.00
H7     H     0.31350   0.70640   0.47870   0.01267  Uiso   1.00
H8     H     0.30990   0.52480   0.40860   0.01267  Uiso   1.00
H9     H     0.85970   0.39820   0.36730   0.01267  Uiso   1.00
H10    H     0.86410   0.58200   0.43190   0.01267  Uiso   1.00
H11    H     0.92080   0.26880   0.24550   0.01267  Uiso   1.00
H12    H     0.20140   0.13400   0.29080   0.01267  Uiso   1.00
H13    H     0.26070   0.31780   0.39910   0.01267  Uiso   1.00
H14    H     0.40590   0.04180   0.61640   0.01267  Uiso   1.00
H15    H     0.65350   0.20820   0.63670   0.01267  Uiso   1.00
H16    H     0.60210   0.37860   0.62640   0.01267  Uiso   1.00
H17    H     0.09650   0.43600   0.56060   0.01267  Uiso   1.00
H18    H     0.82930   0.29940   0.52260   0.01267  Uiso   1.00
H19    H     0.81220   0.11060   0.54290   0.01267  Uiso   1.00
H20    H     0.49300   0.43380   0.50800   0.01267  Uiso   1.00
H21    H     0.63320   0.62940   0.52210   0.01267  Uiso   1.00
H22    H     0.44820   0.72060   0.72560   0.01267  Uiso   1.00
H23    H     0.30020   0.52560   0.70820   0.01267  Uiso   1.00
H24    H     0.84490   0.80540   0.59860   0.01267  Uiso   1.00
H25    H     0.74280   0.07900   0.67640   0.01267  Uiso   1.00
H26    H     0.51930   0.90880   0.68030   0.01267  Uiso   1.00
H27    H     0.81970   0.98580   0.26310   0.01267  Uiso   1.00
H28    H     0.60290   0.80560   0.26460   0.01267  Uiso   1.00
H29    H     0.52450   0.68160   0.12130   0.01267  Uiso   1.00
H30    H     0.69700   0.74560   0.83620   0.01267  Uiso   1.00
H31    H     0.88660   0.90840   0.79700   0.01267  Uiso   1.00
H32    H     0.03200   0.05720   0.92650   0.01267  Uiso   1.00
H33    H     0.39290   0.70640   0.97870   0.01267  Uiso   1.00
H34    H     0.21490   0.52480   0.90860   0.01267  Uiso   1.00
H35    H     0.53850   0.39820   0.86730   0.01267  Uiso   1.00
H36    H     0.71790   0.58200   0.93190   0.01267  Uiso   1.00
H37    H     0.34800   0.26880   0.74550   0.01267  Uiso   1.00
H38    H     0.93260   0.13400   0.79080   0.01267  Uiso   1.00
H39    H     0.05710   0.31780   0.89910   0.01267  Uiso   1.00
H40    H     0.63590   0.04180   0.11640   0.01267  Uiso   1.00
H41    H     0.55470   0.20820   0.13670   0.01267  Uiso   1.00
H42    H     0.77650   0.37860   0.12640   0.01267  Uiso   1.00
H43    H     0.33950   0.43600   0.06060   0.01267  Uiso   1.00
H44    H     0.47010   0.29940   0.02260   0.01267  Uiso   1.00
H45    H     0.29840   0.11060   0.04290   0.01267  Uiso   1.00
H46    H     0.94080   0.43380   0.00800   0.01267  Uiso   1.00
H47    H     0.99620   0.62940   0.02210   0.01267  Uiso   1.00
H48    H     0.27240   0.72060   0.22560   0.01267  Uiso   1.00
H49    H     0.22540   0.52560   0.20820   0.01267  Uiso   1.00
H50    H     0.96050   0.80540   0.09860   0.01267  Uiso   1.00
H51    H     0.33620   0.07900   0.17640   0.01267  Uiso   1.00
H52    H     0.38950   0.90880   0.18030   0.01267  Uiso   1.00
C1     C     0.15846   0.92532   0.71699   0.01267  Uiso   1.00
C2     C     0.17823   0.82326   0.71885   0.01267  Uiso   1.00
C3     C     0.15408   0.75536   0.63974   0.01267  Uiso   1.00
C4     C     0.12376   0.81904   0.59123   0.01267  Uiso   1.00
C5     C     0.09048   0.78180   0.50630   0.01267  Uiso   1.00
C6     C     0.05966   0.84392   0.45815   0.01267  Uiso   1.00
C7     C     0.04685   0.81390   0.37136   0.01267  Uiso   1.00
C8     C     0.03144   0.90308   0.34943   0.01267  Uiso   1.00
C9     C     0.03352   0.98684   0.42379   0.01267  Uiso   1.00
C10    C     0.08938   0.66394   0.46199   0.01267  Uiso   1.00
C11    C     0.22252   0.64524   0.45537   0.01267  Uiso   1.00
C12    C     0.22037   0.53614   0.41424   0.01267  Uiso   1.00
C13    C     0.08532   0.44430   0.38163   0.01267  Uiso   1.00
C14    C     0.95076   0.46054   0.38871   0.01267  Uiso   1.00
C15    C     0.95373   0.57046   0.42807   0.01267  Uiso   1.00
C16    C     0.99834   0.25786   0.26966   0.01267  Uiso   1.00
C17    C     0.15245   0.18470   0.29470   0.01267  Uiso   1.00
C18    C     0.18557   0.28614   0.35556   0.01267  Uiso   1.00
C19    C     0.41876   0.11626   0.61480   0.01267  Uiso   1.00
C20    C     0.55987   0.21000   0.62677   0.01267  Uiso   1.00
C21    C     0.53146   0.30386   0.62091   0.01267  Uiso   1.00
C22    C     0.37209   0.26464   0.60480   0.01267  Uiso   1.00
C23    C     0.29119   0.33296   0.59785   0.01267  Uiso   1.00
C24    C     0.13490   0.29484   0.58350   0.01267  Uiso   1.00
C25    C     0.05562   0.35868   0.56110   0.01267  Uiso   1.00
C26    C     0.90814   0.28372   0.54054   0.01267  Uiso   1.00
C27    C     0.90052   0.17698   0.55226   0.01267  Uiso   1.00
C28    C     0.38236   0.45930   0.60679   0.01267  Uiso   1.00
C29    C     0.48286   0.49112   0.55124   0.01267  Uiso   1.00
C30    C     0.56818   0.60830   0.56010   0.01267  Uiso   1.00
C31    C     0.55599   0.69328   0.62557   0.01267  Uiso   1.00
C32    C     0.45617   0.66310   0.68172   0.01267  Uiso   1.00
C33    C     0.36864   0.54622   0.67155   0.01267  Uiso   1.00
C34    C     0.79269   0.85306   0.61807   0.01267  Uiso   1.00
C35    C     0.73556   0.00224   0.66093   0.01267  Uiso   1.00
C36    C     0.61062   0.90842   0.66332   0.01267  Uiso   1.00
C37    C     0.76686   0.92532   0.21699   0.01267  Uiso   1.00
C38    C     0.64503   0.82326   0.21885   0.01267  Uiso   1.00
C39    C     0.60128   0.75536   0.13974   0.01267  Uiso   1.00
C40    C     0.69528   0.81904   0.09123   0.01267  Uiso   1.00
C41    C     0.69132   0.78180   0.00630   0.01267  Uiso   1.00
C42    C     0.78426   0.84392   0.95815   0.01267  Uiso   1.00
C43    C     0.76705   0.81390   0.87136   0.01267  Uiso   1.00
C44    C     0.87164   0.90308   0.84943   0.01267  Uiso   1.00
C45    C     0.95332   0.98684   0.92379   0.01267  Uiso   1.00
C46    C     0.57456   0.66394   0.96199   0.01267  Uiso   1.00
C47    C     0.42272   0.64524   0.95537   0.01267  Uiso   1.00
C48    C     0.31577   0.53614   0.91424   0.01267  Uiso   1.00
C49    C     0.35898   0.44430   0.88163   0.01267  Uiso   1.00
C50    C     0.50978   0.46054   0.88871   0.01267  Uiso   1.00
C51    C     0.61673   0.57046   0.92807   0.01267  Uiso   1.00
C52    C     0.25952   0.25786   0.76966   0.01267  Uiso   1.00
C53    C     0.03225   0.18470   0.79470   0.01267  Uiso   1.00
C54    C     0.10057   0.28614   0.85556   0.01267  Uiso   1.00
C55    C     0.69750   0.11626   0.11480   0.01267  Uiso   1.00
C56    C     0.65013   0.21000   0.12677   0.01267  Uiso   1.00
C57    C     0.77240   0.30386   0.12091   0.01267  Uiso   1.00
C58    C     0.89255   0.26464   0.10480   0.01267  Uiso   1.00
C59    C     0.04177   0.33296   0.09785   0.01267  Uiso   1.00
C60    C     0.15994   0.29484   0.08350   0.01267  Uiso   1.00
C61    C     0.30306   0.35868   0.06110   0.01267  Uiso   1.00
C62    C     0.37558   0.28372   0.04054   0.01267  Uiso   1.00
C63    C     0.27646   0.17698   0.05226   0.01267  Uiso   1.00
C64    C     0.07694   0.45930   0.10679   0.01267  Uiso   1.00
C65    C     0.00826   0.49112   0.05124   0.01267  Uiso   1.00
C66    C     0.04012   0.60830   0.06010   0.01267  Uiso   1.00
C67    C     0.13729   0.69328   0.12557   0.01267  Uiso   1.00
C68    C     0.20693   0.66310   0.18172   0.01267  Uiso   1.00
C69    C     0.17758   0.54622   0.17155   0.01267  Uiso   1.00
C70    C     0.06037   0.85306   0.11807   0.01267  Uiso   1.00
C71    C     0.26668   0.00224   0.16093   0.01267  Uiso   1.00
C72    C     0.29780   0.90842   0.16332   0.01267  Uiso   1.00
N1     N     0.12767   0.92518   0.64167   0.01267  Uiso   1.00
N2     N     0.04874   0.95306   0.48883   0.01267  Uiso   1.00
N3     N     0.08500   0.33222   0.33936   0.01267  Uiso   1.00
N4     N     0.03646   0.16776   0.23983   0.01267  Uiso   1.00
N5     N     0.30646   0.14748   0.60101   0.01267  Uiso   1.00
N6     N     0.03340   0.18232   0.57809   0.01267  Uiso   1.00
N7     N     0.64820   0.81344   0.63531   0.01267  Uiso   1.00
N8     N     0.84983   0.96756   0.63234   0.01267  Uiso   1.00
N9     N     0.79751   0.92518   0.14167   0.01267  Uiso   1.00
N10    N     0.90432   0.95306   0.98883   0.01267  Uiso   1.00
N11    N     0.24722   0.33222   0.83936   0.01267  Uiso   1.00
N12    N     0.13130   0.16776   0.73983   0.01267  Uiso   1.00
N13    N     0.84102   0.14748   0.10101   0.01267  Uiso   1.00
N14    N     0.14892   0.18232   0.07809   0.01267  Uiso   1.00
N15    N     0.16524   0.81344   0.13531   0.01267  Uiso   1.00
N16    N     0.11773   0.96756   0.13234   0.01267  Uiso   1.00
