data_image0
_cell_length_a       24.3021
_cell_length_b       16.0142
_cell_length_c       22.0018
_cell_angle_alpha    90
_cell_angle_beta     100.138
_cell_angle_gamma    90

_symmetry_space_group_name_H-M    "P 1"
_symmetry_int_tables_number       1

loop_
  _symmetry_equiv_pos_as_xyz
  'x, y, z'

loop_
  _atom_site_label
  _atom_site_occupancy
  _atom_site_fract_x
  _atom_site_fract_y
  _atom_site_fract_z
  _atom_site_thermal_displace_type
  _atom_site_B_iso_or_equiv
  _atom_site_type_symbol
  C1       1.0000 0.30010  0.22966  0.72446  Biso   1.000  C
  O1       1.0000 0.26560  0.92992  0.12461  Biso   1.000  O
  C2       1.0000 0.28916  0.61908  0.05794  Biso   1.000  C
  C3       1.0000 0.29323  0.98710  0.15320  Biso   1.000  C
  O2       1.0000 0.30017  0.99330  0.21033  Biso   1.000  O
  C4       1.0000 0.31058  0.53429  0.04592  Biso   1.000  C
  C5       1.0000 0.30152  0.46747  0.08196  Biso   1.000  C
  H1       1.0000 0.28190  0.47520  0.11420  Biso   1.000  H
  C6       1.0000 0.34061  0.52076  0.99891  Biso   1.000  C
  H2       1.0000 0.34720  0.56510  0.97390  Biso   1.000  H
  C7       1.0000 0.31952  0.23781  0.79317  Biso   1.000  C
  C8       1.0000 0.39327  0.23210  0.88146  Biso   1.000  C
  H3       1.0000 0.43080  0.22270  0.89760  Biso   1.000  H
  C9       1.0000 0.28279  0.26100  0.83139  Biso   1.000  C
  H4       1.0000 0.24540  0.27090  0.81500  Biso   1.000  H
  Nd1      1.0000 0.75819  0.28843  0.09545  Biso   1.000  Nd
  O3       1.0000 0.28413  0.63813  0.11168  Biso   1.000  O
  Si1      1.0000 0.38008  0.27093  0.00599  Biso   1.000  Si
  O4       1.0000 0.66542  0.21016  0.06499  Biso   1.000  O
  O5       1.0000 0.33449  0.21663  0.68916  Biso   1.000  O
  O6       1.0000 0.27771  0.67126  0.01390  Biso   1.000  O
  O7       1.0000 0.66113  0.33432  0.10627  Biso   1.000  O
  C10      1.0000 0.37461  0.22280  0.81820  Biso   1.000  C
  H5       1.0000 0.39950  0.20640  0.79280  Biso   1.000  H
  O8       1.0000 0.24801  0.23670  0.70389  Biso   1.000  O
  C11      1.0000 0.45784  0.27223  0.02777  Biso   1.000  C
  C12      1.0000 0.35712  0.25526  0.92107  Biso   1.000  C
  C13      1.0000 0.35402  0.18495  0.04979  Biso   1.000  C
  C14      1.0000 0.35187  0.37494  0.02440  Biso   1.000  C
  C15      1.0000 0.63695  0.27131  0.07935  Biso   1.000  C
  C16      1.0000 0.57512  0.27032  0.06243  Biso   1.000  C
  C17      1.0000 0.54652  0.20030  0.03882  Biso   1.000  C
  H6       1.0000 0.56620  0.15170  0.03380  Biso   1.000  H
  C18      1.0000 0.30311  0.05580  0.05592  Biso   1.000  C
  H7       1.0000 0.28140  0.01320  0.03540  Biso   1.000  H
  C19      1.0000 0.48913  0.20073  0.02236  Biso   1.000  C
  H8       1.0000 0.47080  0.15200  0.00730  Biso   1.000  H
  C20      1.0000 0.31605  0.05440  0.11874  Biso   1.000  C
  C21      1.0000 0.36086  0.44327  0.98866  Biso   1.000  C
  H9       1.0000 0.38120  0.43620  0.95690  Biso   1.000  H
  C22      1.0000 0.36719  0.18200  0.11413  Biso   1.000  C
  H10      1.0000 0.38980  0.22350  0.13500  Biso   1.000  H
  C23      1.0000 0.48753  0.34289  0.05125  Biso   1.000  C
  H11      1.0000 0.46810  0.39200  0.05550  Biso   1.000  H
  C24      1.0000 0.30190  0.26940  0.89432  Biso   1.000  C
  H12      1.0000 0.27670  0.28510  0.91950  Biso   1.000  H
  C25      1.0000 0.32103  0.38939  0.07121  Biso   1.000  C
  H13      1.0000 0.31350  0.34500  0.09570  Biso   1.000  H
  C26      1.0000 0.34750  0.11880  0.14784  Biso   1.000  C
  H14      1.0000 0.35570  0.12020  0.19070  Biso   1.000  H
  C27      1.0000 0.54500  0.34230  0.06839  Biso   1.000  C
  H15      1.0000 0.56360  0.39060  0.08400  Biso   1.000  H
  C28      1.0000 0.32192  0.12010  0.02171  Biso   1.000  C
  H16      1.0000 0.31250  0.11910  0.97890  Biso   1.000  H
  C29      1.0000 0.80010  0.72966  0.72446  Biso   1.000  C
  O9       1.0000 0.76560  0.42992  0.12461  Biso   1.000  O
  C30      1.0000 0.78916  0.11908  0.05794  Biso   1.000  C
  C31      1.0000 0.79323  0.48710  0.15320  Biso   1.000  C
  O10      1.0000 0.80017  0.49330  0.21033  Biso   1.000  O
  C32      1.0000 0.81058  0.03429  0.04592  Biso   1.000  C
  C33      1.0000 0.80152  0.96747  0.08196  Biso   1.000  C
  H17      1.0000 0.78190  0.97520  0.11420  Biso   1.000  H
  C34      1.0000 0.84061  0.02076  0.99891  Biso   1.000  C
  H18      1.0000 0.84720  0.06510  0.97390  Biso   1.000  H
  C35      1.0000 0.81952  0.73781  0.79317  Biso   1.000  C
  C36      1.0000 0.89327  0.73210  0.88146  Biso   1.000  C
  H19      1.0000 0.93080  0.72270  0.89760  Biso   1.000  H
  C37      1.0000 0.78279  0.76100  0.83139  Biso   1.000  C
  H20      1.0000 0.74540  0.77090  0.81500  Biso   1.000  H
  Nd2      1.0000 0.25819  0.78843  0.09545  Biso   1.000  Nd
  O11      1.0000 0.78413  0.13813  0.11168  Biso   1.000  O
  Si2      1.0000 0.88008  0.77093  0.00599  Biso   1.000  Si
  O12      1.0000 0.16542  0.71016  0.06499  Biso   1.000  O
  O13      1.0000 0.83449  0.71663  0.68916  Biso   1.000  O
  O14      1.0000 0.77771  0.17126  0.01390  Biso   1.000  O
  O15      1.0000 0.16113  0.83432  0.10627  Biso   1.000  O
  C38      1.0000 0.87461  0.72280  0.81820  Biso   1.000  C
  H21      1.0000 0.89950  0.70640  0.79280  Biso   1.000  H
  O16      1.0000 0.74801  0.73670  0.70389  Biso   1.000  O
  C39      1.0000 0.95784  0.77223  0.02777  Biso   1.000  C
  C40      1.0000 0.85712  0.75526  0.92107  Biso   1.000  C
  C41      1.0000 0.85402  0.68495  0.04979  Biso   1.000  C
  C42      1.0000 0.85187  0.87494  0.02440  Biso   1.000  C
  C43      1.0000 0.13695  0.77131  0.07935  Biso   1.000  C
  C44      1.0000 0.07512  0.77032  0.06243  Biso   1.000  C
  C45      1.0000 0.04652  0.70030  0.03882  Biso   1.000  C
  H22      1.0000 0.06620  0.65170  0.03380  Biso   1.000  H
  C46      1.0000 0.80311  0.55580  0.05592  Biso   1.000  C
  H23      1.0000 0.78140  0.51320  0.03540  Biso   1.000  H
  C47      1.0000 0.98913  0.70073  0.02236  Biso   1.000  C
  H24      1.0000 0.97080  0.65200  0.00730  Biso   1.000  H
  C48      1.0000 0.81605  0.55440  0.11874  Biso   1.000  C
  C49      1.0000 0.86086  0.94327  0.98866  Biso   1.000  C
  H25      1.0000 0.88120  0.93620  0.95690  Biso   1.000  H
  C50      1.0000 0.86719  0.68200  0.11413  Biso   1.000  C
  H26      1.0000 0.88980  0.72350  0.13500  Biso   1.000  H
  C51      1.0000 0.98753  0.84289  0.05125  Biso   1.000  C
  H27      1.0000 0.96810  0.89200  0.05550  Biso   1.000  H
  C52      1.0000 0.80190  0.76940  0.89432  Biso   1.000  C
  H28      1.0000 0.77670  0.78510  0.91950  Biso   1.000  H
  C53      1.0000 0.82103  0.88939  0.07121  Biso   1.000  C
  H29      1.0000 0.81350  0.84500  0.09570  Biso   1.000  H
  C54      1.0000 0.84750  0.61880  0.14784  Biso   1.000  C
  H30      1.0000 0.85570  0.62020  0.19070  Biso   1.000  H
  C55      1.0000 0.04500  0.84230  0.06839  Biso   1.000  C
  H31      1.0000 0.06360  0.89060  0.08400  Biso   1.000  H
  C56      1.0000 0.82192  0.62010  0.02171  Biso   1.000  C
  H32      1.0000 0.81250  0.61910  0.97890  Biso   1.000  H
  C57      1.0000 0.69990  0.22966  0.77554  Biso   1.000  C
  O17      1.0000 0.73440  0.92992  0.37539  Biso   1.000  O
  C58      1.0000 0.71084  0.61908  0.44206  Biso   1.000  C
  C59      1.0000 0.70677  0.98710  0.34680  Biso   1.000  C
  O18      1.0000 0.69983  0.99330  0.28967  Biso   1.000  O
  C60      1.0000 0.68942  0.53429  0.45408  Biso   1.000  C
  C61      1.0000 0.69848  0.46747  0.41804  Biso   1.000  C
  H33      1.0000 0.71810  0.47520  0.38580  Biso   1.000  H
  C62      1.0000 0.65939  0.52076  0.50109  Biso   1.000  C
  H34      1.0000 0.65280  0.56510  0.52610  Biso   1.000  H
  C63      1.0000 0.68048  0.23781  0.70683  Biso   1.000  C
  C64      1.0000 0.60673  0.23210  0.61854  Biso   1.000  C
  H35      1.0000 0.56920  0.22270  0.60240  Biso   1.000  H
  C65      1.0000 0.71721  0.26100  0.66861  Biso   1.000  C
  H36      1.0000 0.75460  0.27090  0.68500  Biso   1.000  H
  Nd3      1.0000 0.24181  0.28843  0.40455  Biso   1.000  Nd
  O19      1.0000 0.71587  0.63813  0.38832  Biso   1.000  O
  Si3      1.0000 0.61992  0.27093  0.49401  Biso   1.000  Si
  O20      1.0000 0.33458  0.21016  0.43501  Biso   1.000  O
  O21      1.0000 0.66551  0.21663  0.81084  Biso   1.000  O
  O22      1.0000 0.72229  0.67126  0.48610  Biso   1.000  O
  O23      1.0000 0.33887  0.33432  0.39373  Biso   1.000  O
  C66      1.0000 0.62539  0.22280  0.68180  Biso   1.000  C
  H37      1.0000 0.60050  0.20640  0.70720  Biso   1.000  H
  O24      1.0000 0.75199  0.23670  0.79611  Biso   1.000  O
  C67      1.0000 0.54216  0.27223  0.47223  Biso   1.000  C
  C68      1.0000 0.64288  0.25526  0.57893  Biso   1.000  C
  C69      1.0000 0.64598  0.18495  0.45021  Biso   1.000  C
  C70      1.0000 0.64813  0.37494  0.47560  Biso   1.000  C
  C71      1.0000 0.36305  0.27131  0.42065  Biso   1.000  C
  C72      1.0000 0.42488  0.27032  0.43757  Biso   1.000  C
  C73      1.0000 0.45348  0.20030  0.46118  Biso   1.000  C
  H38      1.0000 0.43380  0.15170  0.46620  Biso   1.000  H
  C74      1.0000 0.69689  0.05580  0.44408  Biso   1.000  C
  H39      1.0000 0.71860  0.01320  0.46460  Biso   1.000  H
  C75      1.0000 0.51087  0.20073  0.47764  Biso   1.000  C
  H40      1.0000 0.52920  0.15200  0.49270  Biso   1.000  H
  C76      1.0000 0.68395  0.05440  0.38126  Biso   1.000  C
  C77      1.0000 0.63914  0.44327  0.51134  Biso   1.000  C
  H41      1.0000 0.61880  0.43620  0.54310  Biso   1.000  H
  C78      1.0000 0.63281  0.18200  0.38587  Biso   1.000  C
  H42      1.0000 0.61020  0.22350  0.36500  Biso   1.000  H
  C79      1.0000 0.51247  0.34289  0.44875  Biso   1.000  C
  H43      1.0000 0.53190  0.39200  0.44450  Biso   1.000  H
  C80      1.0000 0.69810  0.26940  0.60568  Biso   1.000  C
  H44      1.0000 0.72330  0.28510  0.58050  Biso   1.000  H
  C81      1.0000 0.67897  0.38939  0.42879  Biso   1.000  C
  H45      1.0000 0.68650  0.34500  0.40430  Biso   1.000  H
  C82      1.0000 0.65250  0.11880  0.35216  Biso   1.000  C
  H46      1.0000 0.64430  0.12020  0.30930  Biso   1.000  H
  C83      1.0000 0.45500  0.34230  0.43161  Biso   1.000  C
  H47      1.0000 0.43640  0.39060  0.41600  Biso   1.000  H
  C84      1.0000 0.67808  0.12010  0.47829  Biso   1.000  C
  H48      1.0000 0.68750  0.11910  0.52110  Biso   1.000  H
  C85      1.0000 0.19990  0.72966  0.77554  Biso   1.000  C
  O25      1.0000 0.23440  0.42992  0.37539  Biso   1.000  O
  C86      1.0000 0.21084  0.11908  0.44206  Biso   1.000  C
  C87      1.0000 0.20677  0.48710  0.34680  Biso   1.000  C
  O26      1.0000 0.19983  0.49330  0.28967  Biso   1.000  O
  C88      1.0000 0.18942  0.03429  0.45408  Biso   1.000  C
  C89      1.0000 0.19848  0.96747  0.41804  Biso   1.000  C
  H49      1.0000 0.21810  0.97520  0.38580  Biso   1.000  H
  C90      1.0000 0.15939  0.02076  0.50109  Biso   1.000  C
  H50      1.0000 0.15280  0.06510  0.52610  Biso   1.000  H
  C91      1.0000 0.18048  0.73781  0.70683  Biso   1.000  C
  C92      1.0000 0.10673  0.73210  0.61854  Biso   1.000  C
  H51      1.0000 0.06920  0.72270  0.60240  Biso   1.000  H
  C93      1.0000 0.21721  0.76100  0.66861  Biso   1.000  C
  H52      1.0000 0.25460  0.77090  0.68500  Biso   1.000  H
  Nd4      1.0000 0.74181  0.78843  0.40455  Biso   1.000  Nd
  O27      1.0000 0.21587  0.13813  0.38832  Biso   1.000  O
  Si4      1.0000 0.11992  0.77093  0.49401  Biso   1.000  Si
  O28      1.0000 0.83458  0.71016  0.43501  Biso   1.000  O
  O29      1.0000 0.16551  0.71663  0.81084  Biso   1.000  O
  O30      1.0000 0.22229  0.17126  0.48610  Biso   1.000  O
  O31      1.0000 0.83887  0.83432  0.39373  Biso   1.000  O
  C94      1.0000 0.12539  0.72280  0.68180  Biso   1.000  C
  H53      1.0000 0.10050  0.70640  0.70720  Biso   1.000  H
  O32      1.0000 0.25199  0.73670  0.79611  Biso   1.000  O
  C95      1.0000 0.04216  0.77223  0.47223  Biso   1.000  C
  C96      1.0000 0.14288  0.75526  0.57893  Biso   1.000  C
  C97      1.0000 0.14598  0.68495  0.45021  Biso   1.000  C
  C98      1.0000 0.14813  0.87494  0.47560  Biso   1.000  C
  C99      1.0000 0.86305  0.77131  0.42065  Biso   1.000  C
  C100     1.0000 0.92488  0.77032  0.43757  Biso   1.000  C
  C101     1.0000 0.95348  0.70030  0.46118  Biso   1.000  C
  H54      1.0000 0.93380  0.65170  0.46620  Biso   1.000  H
  C102     1.0000 0.19689  0.55580  0.44408  Biso   1.000  C
  H55      1.0000 0.21860  0.51320  0.46460  Biso   1.000  H
  C103     1.0000 0.01087  0.70073  0.47764  Biso   1.000  C
  H56      1.0000 0.02920  0.65200  0.49270  Biso   1.000  H
  C104     1.0000 0.18395  0.55440  0.38126  Biso   1.000  C
  C105     1.0000 0.13914  0.94327  0.51134  Biso   1.000  C
  H57      1.0000 0.11880  0.93620  0.54310  Biso   1.000  H
  C106     1.0000 0.13281  0.68200  0.38587  Biso   1.000  C
  H58      1.0000 0.11020  0.72350  0.36500  Biso   1.000  H
  C107     1.0000 0.01247  0.84289  0.44875  Biso   1.000  C
  H59      1.0000 0.03190  0.89200  0.44450  Biso   1.000  H
  C108     1.0000 0.19810  0.76940  0.60568  Biso   1.000  C
  H60      1.0000 0.22330  0.78510  0.58050  Biso   1.000  H
  C109     1.0000 0.17897  0.88939  0.42879  Biso   1.000  C
  H61      1.0000 0.18650  0.84500  0.40430  Biso   1.000  H
  C110     1.0000 0.15250  0.61880  0.35216  Biso   1.000  C
  H62      1.0000 0.14430  0.62020  0.30930  Biso   1.000  H
  C111     1.0000 0.95500  0.84230  0.43161  Biso   1.000  C
  H63      1.0000 0.93640  0.89060  0.41600  Biso   1.000  H
  C112     1.0000 0.17808  0.62010  0.47829  Biso   1.000  C
  H64      1.0000 0.18750  0.61910  0.52110  Biso   1.000  H
  C113     1.0000 0.69990  0.77034  0.27554  Biso   1.000  C
  O33      1.0000 0.73440  0.07008  0.87539  Biso   1.000  O
  C114     1.0000 0.71084  0.38092  0.94206  Biso   1.000  C
  C115     1.0000 0.70677  0.01290  0.84680  Biso   1.000  C
  O34      1.0000 0.69983  0.00670  0.78967  Biso   1.000  O
  C116     1.0000 0.68942  0.46571  0.95408  Biso   1.000  C
  C117     1.0000 0.69848  0.53253  0.91804  Biso   1.000  C
  H65      1.0000 0.71810  0.52480  0.88580  Biso   1.000  H
  C118     1.0000 0.65939  0.47924  0.00109  Biso   1.000  C
  H66      1.0000 0.65280  0.43490  0.02610  Biso   1.000  H
  C119     1.0000 0.68048  0.76219  0.20683  Biso   1.000  C
  C120     1.0000 0.60673  0.76790  0.11854  Biso   1.000  C
  H67      1.0000 0.56920  0.77730  0.10240  Biso   1.000  H
  C121     1.0000 0.71721  0.73900  0.16861  Biso   1.000  C
  H68      1.0000 0.75460  0.72910  0.18500  Biso   1.000  H
  Nd5      1.0000 0.24181  0.71157  0.90455  Biso   1.000  Nd
  O35      1.0000 0.71587  0.36187  0.88832  Biso   1.000  O
  Si5      1.0000 0.61992  0.72907  0.99401  Biso   1.000  Si
  O36      1.0000 0.33458  0.78984  0.93501  Biso   1.000  O
  O37      1.0000 0.66551  0.78337  0.31084  Biso   1.000  O
  O38      1.0000 0.72229  0.32874  0.98610  Biso   1.000  O
  O39      1.0000 0.33887  0.66568  0.89373  Biso   1.000  O
  C122     1.0000 0.62539  0.77720  0.18180  Biso   1.000  C
  H69      1.0000 0.60050  0.79360  0.20720  Biso   1.000  H
  O40      1.0000 0.75199  0.76330  0.29611  Biso   1.000  O
  C123     1.0000 0.54216  0.72777  0.97223  Biso   1.000  C
  C124     1.0000 0.64288  0.74474  0.07893  Biso   1.000  C
  C125     1.0000 0.64598  0.81505  0.95021  Biso   1.000  C
  C126     1.0000 0.64813  0.62506  0.97560  Biso   1.000  C
  C127     1.0000 0.36305  0.72869  0.92065  Biso   1.000  C
  C128     1.0000 0.42488  0.72968  0.93757  Biso   1.000  C
  C129     1.0000 0.45348  0.79970  0.96118  Biso   1.000  C
  H70      1.0000 0.43380  0.84830  0.96620  Biso   1.000  H
  C130     1.0000 0.69689  0.94420  0.94408  Biso   1.000  C
  H71      1.0000 0.71860  0.98680  0.96460  Biso   1.000  H
  C131     1.0000 0.51087  0.79927  0.97764  Biso   1.000  C
  H72      1.0000 0.52920  0.84800  0.99270  Biso   1.000  H
  C132     1.0000 0.68395  0.94560  0.88126  Biso   1.000  C
  C133     1.0000 0.63914  0.55673  0.01134  Biso   1.000  C
  H73      1.0000 0.61880  0.56380  0.04310  Biso   1.000  H
  C134     1.0000 0.63281  0.81800  0.88587  Biso   1.000  C
  H74      1.0000 0.61020  0.77650  0.86500  Biso   1.000  H
  C135     1.0000 0.51247  0.65711  0.94875  Biso   1.000  C
  H75      1.0000 0.53190  0.60800  0.94450  Biso   1.000  H
  C136     1.0000 0.69810  0.73060  0.10568  Biso   1.000  C
  H76      1.0000 0.72330  0.71490  0.08050  Biso   1.000  H
  C137     1.0000 0.67897  0.61061  0.92879  Biso   1.000  C
  H77      1.0000 0.68650  0.65500  0.90430  Biso   1.000  H
  C138     1.0000 0.65250  0.88120  0.85216  Biso   1.000  C
  H78      1.0000 0.64430  0.87980  0.80930  Biso   1.000  H
  C139     1.0000 0.45500  0.65770  0.93161  Biso   1.000  C
  H79      1.0000 0.43640  0.60940  0.91600  Biso   1.000  H
  C140     1.0000 0.67808  0.87990  0.97829  Biso   1.000  C
  H80      1.0000 0.68750  0.88090  0.02110  Biso   1.000  H
  C141     1.0000 0.19990  0.27034  0.27554  Biso   1.000  C
  O41      1.0000 0.23440  0.57008  0.87539  Biso   1.000  O
  C142     1.0000 0.21084  0.88092  0.94206  Biso   1.000  C
  C143     1.0000 0.20677  0.51290  0.84680  Biso   1.000  C
  O42      1.0000 0.19983  0.50670  0.78967  Biso   1.000  O
  C144     1.0000 0.18942  0.96571  0.95408  Biso   1.000  C
  C145     1.0000 0.19848  0.03253  0.91804  Biso   1.000  C
  H81      1.0000 0.21810  0.02480  0.88580  Biso   1.000  H
  C146     1.0000 0.15939  0.97924  0.00109  Biso   1.000  C
  H82      1.0000 0.15280  0.93490  0.02610  Biso   1.000  H
  C147     1.0000 0.18048  0.26219  0.20683  Biso   1.000  C
  C148     1.0000 0.10673  0.26790  0.11854  Biso   1.000  C
  H83      1.0000 0.06920  0.27730  0.10240  Biso   1.000  H
  C149     1.0000 0.21721  0.23900  0.16861  Biso   1.000  C
  H84      1.0000 0.25460  0.22910  0.18500  Biso   1.000  H
  Nd6      1.0000 0.74181  0.21157  0.90455  Biso   1.000  Nd
  O43      1.0000 0.21587  0.86187  0.88832  Biso   1.000  O
  Si6      1.0000 0.11992  0.22907  0.99401  Biso   1.000  Si
  O44      1.0000 0.83458  0.28984  0.93501  Biso   1.000  O
  O45      1.0000 0.16551  0.28337  0.31084  Biso   1.000  O
  O46      1.0000 0.22229  0.82874  0.98610  Biso   1.000  O
  O47      1.0000 0.83887  0.16568  0.89373  Biso   1.000  O
  C150     1.0000 0.12539  0.27720  0.18180  Biso   1.000  C
  H85      1.0000 0.10050  0.29360  0.20720  Biso   1.000  H
  O48      1.0000 0.25199  0.26330  0.29611  Biso   1.000  O
  C151     1.0000 0.04216  0.22777  0.97223  Biso   1.000  C
  C152     1.0000 0.14288  0.24474  0.07893  Biso   1.000  C
  C153     1.0000 0.14598  0.31505  0.95021  Biso   1.000  C
  C154     1.0000 0.14813  0.12506  0.97560  Biso   1.000  C
  C155     1.0000 0.86305  0.22869  0.92065  Biso   1.000  C
  C156     1.0000 0.92488  0.22968  0.93757  Biso   1.000  C
  C157     1.0000 0.95348  0.29970  0.96118  Biso   1.000  C
  H86      1.0000 0.93380  0.34830  0.96620  Biso   1.000  H
  C158     1.0000 0.19689  0.44420  0.94408  Biso   1.000  C
  H87      1.0000 0.21860  0.48680  0.96460  Biso   1.000  H
  C159     1.0000 0.01087  0.29927  0.97764  Biso   1.000  C
  H88      1.0000 0.02920  0.34800  0.99270  Biso   1.000  H
  C160     1.0000 0.18395  0.44560  0.88126  Biso   1.000  C
  C161     1.0000 0.13914  0.05673  0.01134  Biso   1.000  C
  H89      1.0000 0.11880  0.06380  0.04310  Biso   1.000  H
  C162     1.0000 0.13281  0.31800  0.88587  Biso   1.000  C
  H90      1.0000 0.11020  0.27650  0.86500  Biso   1.000  H
  C163     1.0000 0.01247  0.15711  0.94875  Biso   1.000  C
  H91      1.0000 0.03190  0.10800  0.94450  Biso   1.000  H
  C164     1.0000 0.19810  0.23060  0.10568  Biso   1.000  C
  H92      1.0000 0.22330  0.21490  0.08050  Biso   1.000  H
  C165     1.0000 0.17897  0.11061  0.92879  Biso   1.000  C
  H93      1.0000 0.18650  0.15500  0.90430  Biso   1.000  H
  C166     1.0000 0.15250  0.38120  0.85216  Biso   1.000  C
  H94      1.0000 0.14430  0.37980  0.80930  Biso   1.000  H
  C167     1.0000 0.95500  0.15770  0.93161  Biso   1.000  C
  H95      1.0000 0.93640  0.10940  0.91600  Biso   1.000  H
  C168     1.0000 0.17808  0.37990  0.97829  Biso   1.000  C
  H96      1.0000 0.18750  0.38090  0.02110  Biso   1.000  H
  C169     1.0000 0.30010  0.77034  0.22446  Biso   1.000  C
  O49      1.0000 0.26560  0.07008  0.62461  Biso   1.000  O
  C170     1.0000 0.28916  0.38092  0.55794  Biso   1.000  C
  C171     1.0000 0.29323  0.01290  0.65320  Biso   1.000  C
  O50      1.0000 0.30017  0.00670  0.71033  Biso   1.000  O
  C172     1.0000 0.31058  0.46571  0.54592  Biso   1.000  C
  C173     1.0000 0.30152  0.53253  0.58196  Biso   1.000  C
  H97      1.0000 0.28190  0.52480  0.61420  Biso   1.000  H
  C174     1.0000 0.34061  0.47924  0.49891  Biso   1.000  C
  H98      1.0000 0.34720  0.43490  0.47390  Biso   1.000  H
  C175     1.0000 0.31952  0.76219  0.29317  Biso   1.000  C
  C176     1.0000 0.39327  0.76790  0.38146  Biso   1.000  C
  H99      1.0000 0.43080  0.77730  0.39760  Biso   1.000  H
  C177     1.0000 0.28279  0.73900  0.33139  Biso   1.000  C
  H100     1.0000 0.24540  0.72910  0.31500  Biso   1.000  H
  Nd7      1.0000 0.75819  0.71157  0.59545  Biso   1.000  Nd
  O51      1.0000 0.28413  0.36187  0.61168  Biso   1.000  O
  Si7      1.0000 0.38008  0.72907  0.50599  Biso   1.000  Si
  O52      1.0000 0.66542  0.78984  0.56499  Biso   1.000  O
  O53      1.0000 0.33449  0.78337  0.18916  Biso   1.000  O
  O54      1.0000 0.27771  0.32874  0.51390  Biso   1.000  O
  O55      1.0000 0.66113  0.66568  0.60627  Biso   1.000  O
  C178     1.0000 0.37461  0.77720  0.31820  Biso   1.000  C
  H101     1.0000 0.39950  0.79360  0.29280  Biso   1.000  H
  O56      1.0000 0.24801  0.76330  0.20389  Biso   1.000  O
  C179     1.0000 0.45784  0.72777  0.52777  Biso   1.000  C
  C180     1.0000 0.35712  0.74474  0.42107  Biso   1.000  C
  C181     1.0000 0.35402  0.81505  0.54979  Biso   1.000  C
  C182     1.0000 0.35187  0.62506  0.52440  Biso   1.000  C
  C183     1.0000 0.63695  0.72869  0.57935  Biso   1.000  C
  C184     1.0000 0.57512  0.72968  0.56243  Biso   1.000  C
  C185     1.0000 0.54652  0.79970  0.53882  Biso   1.000  C
  H102     1.0000 0.56620  0.84830  0.53380  Biso   1.000  H
  C186     1.0000 0.30311  0.94420  0.55592  Biso   1.000  C
  H103     1.0000 0.28140  0.98680  0.53540  Biso   1.000  H
  C187     1.0000 0.48913  0.79927  0.52236  Biso   1.000  C
  H104     1.0000 0.47080  0.84800  0.50730  Biso   1.000  H
  C188     1.0000 0.31605  0.94560  0.61874  Biso   1.000  C
  C189     1.0000 0.36086  0.55673  0.48866  Biso   1.000  C
  H105     1.0000 0.38120  0.56380  0.45690  Biso   1.000  H
  C190     1.0000 0.36719  0.81800  0.61413  Biso   1.000  C
  H106     1.0000 0.38980  0.77650  0.63500  Biso   1.000  H
  C191     1.0000 0.48753  0.65711  0.55125  Biso   1.000  C
  H107     1.0000 0.46810  0.60800  0.55550  Biso   1.000  H
  C192     1.0000 0.30190  0.73060  0.39432  Biso   1.000  C
  H108     1.0000 0.27670  0.71490  0.41950  Biso   1.000  H
  C193     1.0000 0.32103  0.61061  0.57121  Biso   1.000  C
  H109     1.0000 0.31350  0.65500  0.59570  Biso   1.000  H
  C194     1.0000 0.34750  0.88120  0.64784  Biso   1.000  C
  H110     1.0000 0.35570  0.87980  0.69070  Biso   1.000  H
  C195     1.0000 0.54500  0.65770  0.56839  Biso   1.000  C
  H111     1.0000 0.56360  0.60940  0.58400  Biso   1.000  H
  C196     1.0000 0.32192  0.87990  0.52171  Biso   1.000  C
  H112     1.0000 0.31250  0.88090  0.47890  Biso   1.000  H
  C197     1.0000 0.80010  0.27034  0.22446  Biso   1.000  C
  O57      1.0000 0.76560  0.57008  0.62461  Biso   1.000  O
  C198     1.0000 0.78916  0.88092  0.55794  Biso   1.000  C
  C199     1.0000 0.79323  0.51290  0.65320  Biso   1.000  C
  O58      1.0000 0.80017  0.50670  0.71033  Biso   1.000  O
  C200     1.0000 0.81058  0.96571  0.54592  Biso   1.000  C
  C201     1.0000 0.80152  0.03253  0.58196  Biso   1.000  C
  H113     1.0000 0.78190  0.02480  0.61420  Biso   1.000  H
  C202     1.0000 0.84061  0.97924  0.49891  Biso   1.000  C
  H114     1.0000 0.84720  0.93490  0.47390  Biso   1.000  H
  C203     1.0000 0.81952  0.26219  0.29317  Biso   1.000  C
  C204     1.0000 0.89327  0.26790  0.38146  Biso   1.000  C
  H115     1.0000 0.93080  0.27730  0.39760  Biso   1.000  H
  C205     1.0000 0.78279  0.23900  0.33139  Biso   1.000  C
  H116     1.0000 0.74540  0.22910  0.31500  Biso   1.000  H
  Nd8      1.0000 0.25819  0.21157  0.59545  Biso   1.000  Nd
  O59      1.0000 0.78413  0.86187  0.61168  Biso   1.000  O
  Si8      1.0000 0.88008  0.22907  0.50599  Biso   1.000  Si
  O60      1.0000 0.16542  0.28984  0.56499  Biso   1.000  O
  O61      1.0000 0.83449  0.28337  0.18916  Biso   1.000  O
  O62      1.0000 0.77771  0.82874  0.51390  Biso   1.000  O
  O63      1.0000 0.16113  0.16568  0.60627  Biso   1.000  O
  C206     1.0000 0.87461  0.27720  0.31820  Biso   1.000  C
  H117     1.0000 0.89950  0.29360  0.29280  Biso   1.000  H
  O64      1.0000 0.74801  0.26330  0.20389  Biso   1.000  O
  C207     1.0000 0.95784  0.22777  0.52777  Biso   1.000  C
  C208     1.0000 0.85712  0.24474  0.42107  Biso   1.000  C
  C209     1.0000 0.85402  0.31505  0.54979  Biso   1.000  C
  C210     1.0000 0.85187  0.12506  0.52440  Biso   1.000  C
  C211     1.0000 0.13695  0.22869  0.57935  Biso   1.000  C
  C212     1.0000 0.07512  0.22968  0.56243  Biso   1.000  C
  C213     1.0000 0.04652  0.29970  0.53882  Biso   1.000  C
  H118     1.0000 0.06620  0.34830  0.53380  Biso   1.000  H
  C214     1.0000 0.80311  0.44420  0.55592  Biso   1.000  C
  H119     1.0000 0.78140  0.48680  0.53540  Biso   1.000  H
  C215     1.0000 0.98913  0.29927  0.52236  Biso   1.000  C
  H120     1.0000 0.97080  0.34800  0.50730  Biso   1.000  H
  C216     1.0000 0.81605  0.44560  0.61874  Biso   1.000  C
  C217     1.0000 0.86086  0.05673  0.48866  Biso   1.000  C
  H121     1.0000 0.88120  0.06380  0.45690  Biso   1.000  H
  C218     1.0000 0.86719  0.31800  0.61413  Biso   1.000  C
  H122     1.0000 0.88980  0.27650  0.63500  Biso   1.000  H
  C219     1.0000 0.98753  0.15711  0.55125  Biso   1.000  C
  H123     1.0000 0.96810  0.10800  0.55550  Biso   1.000  H
  C220     1.0000 0.80190  0.23060  0.39432  Biso   1.000  C
  H124     1.0000 0.77670  0.21490  0.41950  Biso   1.000  H
  C221     1.0000 0.82103  0.11061  0.57121  Biso   1.000  C
  H125     1.0000 0.81350  0.15500  0.59570  Biso   1.000  H
  C222     1.0000 0.84750  0.38120  0.64784  Biso   1.000  C
  H126     1.0000 0.85570  0.37980  0.69070  Biso   1.000  H
  C223     1.0000 0.04500  0.15770  0.56839  Biso   1.000  C
  H127     1.0000 0.06360  0.10940  0.58400  Biso   1.000  H
  C224     1.0000 0.82192  0.37990  0.52171  Biso   1.000  C
  H128     1.0000 0.81250  0.38090  0.47890  Biso   1.000  H
