data_HIHGAI_clean
_audit_creation_date              2014-07-02
_audit_creation_method            'Materials Studio'
_symmetry_space_group_name_H-M    'P1'
_symmetry_Int_Tables_number       1
_symmetry_cell_setting            triclinic
loop_
_symmetry_equiv_pos_as_xyz
  x,y,z
_cell_length_a                    17.7756
_cell_length_b                    17.7756
_cell_length_c                    24.8370
_cell_angle_alpha                 90.0000
_cell_angle_beta                  90.0000
_cell_angle_gamma                 116.3960
loop_
_atom_site_label
_atom_site_type_symbol
_atom_site_fract_x
_atom_site_fract_y
_atom_site_fract_z
_atom_site_U_iso_or_equiv
_atom_site_adp_type
_atom_site_occupancy
Eu1    Eu    0.62939   0.01716   0.00000   0.01267  Uiso   1.00
Eu2    Eu    0.68346   0.77171   0.00000   0.01267  Uiso   1.00
Eu3    Eu    0.37061   0.98284   0.00000   0.01267  Uiso   1.00
Eu4    Eu    0.31654   0.22829   0.00000   0.01267  Uiso   1.00
Eu5    Eu    0.98284   0.37061   0.50000   0.01267  Uiso   1.00
Eu6    Eu    0.22829   0.31654   0.50000   0.01267  Uiso   1.00
Eu7    Eu    0.01716   0.62939   0.50000   0.01267  Uiso   1.00
Eu8    Eu    0.77171   0.68346   0.50000   0.01267  Uiso   1.00
Si1    Si    0.00000   0.00000   0.75000   0.01267  Uiso   1.00
Si2    Si    0.00000   0.00000   0.25000   0.01267  Uiso   1.00
Si3    Si    0.61619   0.38381   0.25000   0.01267  Uiso   1.00
Si4    Si    0.38381   0.61619   0.25000   0.01267  Uiso   1.00
Si5    Si    0.38381   0.61619   0.75000   0.01267  Uiso   1.00
Si6    Si    0.61619   0.38381   0.75000   0.01267  Uiso   1.00
H1     H     0.83630   0.08410   0.87010   0.01267  Uiso   1.00
H2     H     0.85820   0.85420   0.80040   0.01267  Uiso   1.00
H3     H     0.80000   0.32220   0.36670   0.01267  Uiso   1.00
H4     H     0.76330   0.83710   0.86750   0.01267  Uiso   1.00
H5     H     0.70230   0.29410   0.29960   0.01267  Uiso   1.00
H6     H     0.73550   0.52710   0.30580   0.01267  Uiso   1.00
H7     H     0.93140   0.10280   0.80260   0.01267  Uiso   1.00
H8     H     0.83030   0.55710   0.37410   0.01267  Uiso   1.00
H9     H     0.77770   0.63690   0.14010   0.01267  Uiso   1.00
H10    H     0.75980   0.54040   0.20540   0.01267  Uiso   1.00
H11    H     0.51430   0.46030   0.19730   0.01267  Uiso   1.00
H12    H     0.53500   0.55700   0.13090   0.01267  Uiso   1.00
H13    H     0.16370   0.91590   0.87010   0.01267  Uiso   1.00
H14    H     0.14180   0.14580   0.80040   0.01267  Uiso   1.00
H15    H     0.20000   0.67780   0.36670   0.01267  Uiso   1.00
H16    H     0.23670   0.16290   0.86750   0.01267  Uiso   1.00
H17    H     0.29770   0.70590   0.29960   0.01267  Uiso   1.00
H18    H     0.26450   0.47290   0.30580   0.01267  Uiso   1.00
H19    H     0.06860   0.89720   0.80260   0.01267  Uiso   1.00
H20    H     0.16970   0.44290   0.37410   0.01267  Uiso   1.00
H21    H     0.22230   0.36310   0.14010   0.01267  Uiso   1.00
H22    H     0.24020   0.45960   0.20540   0.01267  Uiso   1.00
H23    H     0.48570   0.53970   0.19730   0.01267  Uiso   1.00
H24    H     0.46500   0.44300   0.13090   0.01267  Uiso   1.00
H25    H     0.91590   0.16370   0.62990   0.01267  Uiso   1.00
H26    H     0.14580   0.14180   0.69960   0.01267  Uiso   1.00
H27    H     0.67780   0.20000   0.13330   0.01267  Uiso   1.00
H28    H     0.16290   0.23670   0.63250   0.01267  Uiso   1.00
H29    H     0.70590   0.29770   0.20040   0.01267  Uiso   1.00
H30    H     0.47290   0.26450   0.19420   0.01267  Uiso   1.00
H31    H     0.89720   0.06860   0.69740   0.01267  Uiso   1.00
H32    H     0.44290   0.16970   0.12590   0.01267  Uiso   1.00
H33    H     0.36310   0.22230   0.35990   0.01267  Uiso   1.00
H34    H     0.45960   0.24020   0.29460   0.01267  Uiso   1.00
H35    H     0.53970   0.48570   0.30270   0.01267  Uiso   1.00
H36    H     0.44300   0.46500   0.36910   0.01267  Uiso   1.00
H37    H     0.08410   0.83630   0.62990   0.01267  Uiso   1.00
H38    H     0.85420   0.85820   0.69960   0.01267  Uiso   1.00
H39    H     0.32220   0.80000   0.13330   0.01267  Uiso   1.00
H40    H     0.83710   0.76330   0.63250   0.01267  Uiso   1.00
H41    H     0.29410   0.70230   0.20040   0.01267  Uiso   1.00
H42    H     0.52710   0.73550   0.19420   0.01267  Uiso   1.00
H43    H     0.10280   0.93140   0.69740   0.01267  Uiso   1.00
H44    H     0.55710   0.83030   0.12590   0.01267  Uiso   1.00
H45    H     0.63690   0.77770   0.35990   0.01267  Uiso   1.00
H46    H     0.54040   0.75980   0.29460   0.01267  Uiso   1.00
H47    H     0.46030   0.51430   0.30270   0.01267  Uiso   1.00
H48    H     0.55700   0.53500   0.36910   0.01267  Uiso   1.00
H49    H     0.16370   0.91590   0.12990   0.01267  Uiso   1.00
H50    H     0.14180   0.14580   0.19960   0.01267  Uiso   1.00
H51    H     0.20000   0.67780   0.63330   0.01267  Uiso   1.00
H52    H     0.23670   0.16290   0.13250   0.01267  Uiso   1.00
H53    H     0.29770   0.70590   0.70040   0.01267  Uiso   1.00
H54    H     0.26450   0.47290   0.69420   0.01267  Uiso   1.00
H55    H     0.06860   0.89720   0.19740   0.01267  Uiso   1.00
H56    H     0.16970   0.44290   0.62590   0.01267  Uiso   1.00
H57    H     0.22230   0.36310   0.85990   0.01267  Uiso   1.00
H58    H     0.24020   0.45960   0.79460   0.01267  Uiso   1.00
H59    H     0.48570   0.53970   0.80270   0.01267  Uiso   1.00
H60    H     0.46500   0.44300   0.86910   0.01267  Uiso   1.00
H61    H     0.83630   0.08410   0.12990   0.01267  Uiso   1.00
H62    H     0.85820   0.85420   0.19960   0.01267  Uiso   1.00
H63    H     0.80000   0.32220   0.63330   0.01267  Uiso   1.00
H64    H     0.76330   0.83710   0.13250   0.01267  Uiso   1.00
H65    H     0.70230   0.29410   0.70040   0.01267  Uiso   1.00
H66    H     0.73550   0.52710   0.69420   0.01267  Uiso   1.00
H67    H     0.93140   0.10280   0.19740   0.01267  Uiso   1.00
H68    H     0.83030   0.55710   0.62590   0.01267  Uiso   1.00
H69    H     0.77770   0.63690   0.85990   0.01267  Uiso   1.00
H70    H     0.75980   0.54040   0.79460   0.01267  Uiso   1.00
H71    H     0.51430   0.46030   0.80270   0.01267  Uiso   1.00
H72    H     0.53500   0.55700   0.86910   0.01267  Uiso   1.00
H73    H     0.08410   0.83630   0.37010   0.01267  Uiso   1.00
H74    H     0.85420   0.85820   0.30040   0.01267  Uiso   1.00
H75    H     0.32220   0.80000   0.86670   0.01267  Uiso   1.00
H76    H     0.83710   0.76330   0.36750   0.01267  Uiso   1.00
H77    H     0.29410   0.70230   0.79960   0.01267  Uiso   1.00
H78    H     0.52710   0.73550   0.80580   0.01267  Uiso   1.00
H79    H     0.10280   0.93140   0.30260   0.01267  Uiso   1.00
H80    H     0.55710   0.83030   0.87410   0.01267  Uiso   1.00
H81    H     0.63690   0.77770   0.64010   0.01267  Uiso   1.00
H82    H     0.54040   0.75980   0.70540   0.01267  Uiso   1.00
H83    H     0.46030   0.51430   0.69730   0.01267  Uiso   1.00
H84    H     0.55700   0.53500   0.63090   0.01267  Uiso   1.00
H85    H     0.91590   0.16370   0.37010   0.01267  Uiso   1.00
H86    H     0.14580   0.14180   0.30040   0.01267  Uiso   1.00
H87    H     0.67780   0.20000   0.86670   0.01267  Uiso   1.00
H88    H     0.16290   0.23670   0.36750   0.01267  Uiso   1.00
H89    H     0.70590   0.29770   0.79960   0.01267  Uiso   1.00
H90    H     0.47290   0.26450   0.80580   0.01267  Uiso   1.00
H91    H     0.89720   0.06860   0.30260   0.01267  Uiso   1.00
H92    H     0.44290   0.16970   0.87410   0.01267  Uiso   1.00
H93    H     0.36310   0.22230   0.64010   0.01267  Uiso   1.00
H94    H     0.45960   0.24020   0.70540   0.01267  Uiso   1.00
H95    H     0.53970   0.48570   0.69730   0.01267  Uiso   1.00
H96    H     0.44300   0.46500   0.63090   0.01267  Uiso   1.00
C1     C     0.88698   0.46102   0.42373   0.01267  Uiso   1.00
C2     C     0.82622   0.44278   0.37769   0.01267  Uiso   1.00
C3     C     0.72987   0.94833   0.92036   0.01267  Uiso   1.00
C4     C     0.78962   0.95918   0.87541   0.01267  Uiso   1.00
C5     C     0.91005   0.98155   0.79472   0.01267  Uiso   1.00
C6     C     0.70737   0.40763   0.29530   0.01267  Uiso   1.00
C7     C     0.84068   0.03772   0.85610   0.01267  Uiso   1.00
C8     C     0.85523   0.90117   0.81462   0.01267  Uiso   1.00
C9     C     0.78702   0.36458   0.35481   0.01267  Uiso   1.00
C10    C     0.79747   0.89073   0.85453   0.01267  Uiso   1.00
C11    C     0.72816   0.34784   0.31422   0.01267  Uiso   1.00
C12    C     0.74774   0.48446   0.31836   0.01267  Uiso   1.00
C13    C     0.89897   0.04903   0.81590   0.01267  Uiso   1.00
C14    C     0.80558   0.50342   0.35925   0.01267  Uiso   1.00
C15    C     0.63586   0.47474   0.20378   0.01267  Uiso   1.00
C16    C     0.67447   0.66713   0.08621   0.01267  Uiso   1.00
C17    C     0.66202   0.59798   0.12694   0.01267  Uiso   1.00
C18    C     0.72380   0.59740   0.14940   0.01267  Uiso   1.00
C19    C     0.71220   0.53780   0.18830   0.01267  Uiso   1.00
C20    C     0.56810   0.49110   0.18340   0.01267  Uiso   1.00
C21    C     0.57970   0.54950   0.14480   0.01267  Uiso   1.00
C22    C     0.11302   0.53898   0.42373   0.01267  Uiso   1.00
C23    C     0.17378   0.55722   0.37769   0.01267  Uiso   1.00
C24    C     0.27013   0.05167   0.92036   0.01267  Uiso   1.00
C25    C     0.21038   0.04082   0.87541   0.01267  Uiso   1.00
C26    C     0.08995   0.01845   0.79472   0.01267  Uiso   1.00
C27    C     0.29263   0.59237   0.29530   0.01267  Uiso   1.00
C28    C     0.15932   0.96228   0.85610   0.01267  Uiso   1.00
C29    C     0.14477   0.09883   0.81462   0.01267  Uiso   1.00
C30    C     0.21298   0.63542   0.35481   0.01267  Uiso   1.00
C31    C     0.20253   0.10927   0.85453   0.01267  Uiso   1.00
C32    C     0.27184   0.65216   0.31422   0.01267  Uiso   1.00
C33    C     0.25226   0.51554   0.31836   0.01267  Uiso   1.00
C34    C     0.10103   0.95097   0.81590   0.01267  Uiso   1.00
C35    C     0.19442   0.49658   0.35925   0.01267  Uiso   1.00
C36    C     0.36414   0.52526   0.20378   0.01267  Uiso   1.00
C37    C     0.32553   0.33287   0.08621   0.01267  Uiso   1.00
C38    C     0.33798   0.40202   0.12694   0.01267  Uiso   1.00
C39    C     0.27620   0.40260   0.14940   0.01267  Uiso   1.00
C40    C     0.28780   0.46220   0.18830   0.01267  Uiso   1.00
C41    C     0.43190   0.50890   0.18340   0.01267  Uiso   1.00
C42    C     0.42030   0.45050   0.14480   0.01267  Uiso   1.00
C43    C     0.53898   0.11302   0.07627   0.01267  Uiso   1.00
C44    C     0.55722   0.17378   0.12231   0.01267  Uiso   1.00
C45    C     0.05167   0.27013   0.57964   0.01267  Uiso   1.00
C46    C     0.04082   0.21038   0.62459   0.01267  Uiso   1.00
C47    C     0.01845   0.08995   0.70528   0.01267  Uiso   1.00
C48    C     0.59237   0.29263   0.20470   0.01267  Uiso   1.00
C49    C     0.96228   0.15932   0.64390   0.01267  Uiso   1.00
C50    C     0.09883   0.14477   0.68538   0.01267  Uiso   1.00
C51    C     0.63542   0.21298   0.14519   0.01267  Uiso   1.00
C52    C     0.10927   0.20253   0.64547   0.01267  Uiso   1.00
C53    C     0.65216   0.27184   0.18578   0.01267  Uiso   1.00
C54    C     0.51554   0.25226   0.18164   0.01267  Uiso   1.00
C55    C     0.95097   0.10103   0.68410   0.01267  Uiso   1.00
C56    C     0.49658   0.19442   0.14075   0.01267  Uiso   1.00
C57    C     0.52526   0.36414   0.29622   0.01267  Uiso   1.00
C58    C     0.33287   0.32553   0.41379   0.01267  Uiso   1.00
C59    C     0.40202   0.33798   0.37306   0.01267  Uiso   1.00
C60    C     0.40260   0.27620   0.35060   0.01267  Uiso   1.00
C61    C     0.46220   0.28780   0.31170   0.01267  Uiso   1.00
C62    C     0.50890   0.43190   0.31660   0.01267  Uiso   1.00
C63    C     0.45050   0.42030   0.35520   0.01267  Uiso   1.00
C64    C     0.46102   0.88698   0.07627   0.01267  Uiso   1.00
C65    C     0.44278   0.82622   0.12231   0.01267  Uiso   1.00
C66    C     0.94833   0.72987   0.57964   0.01267  Uiso   1.00
C67    C     0.95918   0.78962   0.62459   0.01267  Uiso   1.00
C68    C     0.98155   0.91005   0.70528   0.01267  Uiso   1.00
C69    C     0.40763   0.70737   0.20470   0.01267  Uiso   1.00
C70    C     0.03772   0.84068   0.64390   0.01267  Uiso   1.00
C71    C     0.90117   0.85523   0.68538   0.01267  Uiso   1.00
C72    C     0.36458   0.78702   0.14519   0.01267  Uiso   1.00
C73    C     0.89073   0.79747   0.64547   0.01267  Uiso   1.00
C74    C     0.34784   0.72816   0.18578   0.01267  Uiso   1.00
C75    C     0.48446   0.74774   0.18164   0.01267  Uiso   1.00
C76    C     0.04903   0.89897   0.68410   0.01267  Uiso   1.00
C77    C     0.50342   0.80558   0.14075   0.01267  Uiso   1.00
C78    C     0.47474   0.63586   0.29622   0.01267  Uiso   1.00
C79    C     0.66713   0.67447   0.41379   0.01267  Uiso   1.00
C80    C     0.59798   0.66202   0.37306   0.01267  Uiso   1.00
C81    C     0.59740   0.72380   0.35060   0.01267  Uiso   1.00
C82    C     0.53780   0.71220   0.31170   0.01267  Uiso   1.00
C83    C     0.49110   0.56810   0.31660   0.01267  Uiso   1.00
C84    C     0.54950   0.57970   0.35520   0.01267  Uiso   1.00
C85    C     0.11302   0.53898   0.57627   0.01267  Uiso   1.00
C86    C     0.17378   0.55722   0.62231   0.01267  Uiso   1.00
C87    C     0.27013   0.05167   0.07964   0.01267  Uiso   1.00
C88    C     0.21038   0.04082   0.12459   0.01267  Uiso   1.00
C89    C     0.08995   0.01845   0.20528   0.01267  Uiso   1.00
C90    C     0.29263   0.59237   0.70470   0.01267  Uiso   1.00
C91    C     0.15932   0.96228   0.14390   0.01267  Uiso   1.00
C92    C     0.14477   0.09883   0.18538   0.01267  Uiso   1.00
C93    C     0.21298   0.63542   0.64519   0.01267  Uiso   1.00
C94    C     0.20253   0.10927   0.14547   0.01267  Uiso   1.00
C95    C     0.27184   0.65216   0.68578   0.01267  Uiso   1.00
C96    C     0.25226   0.51554   0.68164   0.01267  Uiso   1.00
C97    C     0.10103   0.95097   0.18410   0.01267  Uiso   1.00
C98    C     0.19442   0.49658   0.64075   0.01267  Uiso   1.00
C99    C     0.36414   0.52526   0.79622   0.01267  Uiso   1.00
C100   C     0.32553   0.33287   0.91379   0.01267  Uiso   1.00
C101   C     0.33798   0.40202   0.87306   0.01267  Uiso   1.00
C102   C     0.27620   0.40260   0.85060   0.01267  Uiso   1.00
C103   C     0.28780   0.46220   0.81170   0.01267  Uiso   1.00
C104   C     0.43190   0.50890   0.81660   0.01267  Uiso   1.00
C105   C     0.42030   0.45050   0.85520   0.01267  Uiso   1.00
C106   C     0.88698   0.46102   0.57627   0.01267  Uiso   1.00
C107   C     0.82622   0.44278   0.62231   0.01267  Uiso   1.00
C108   C     0.72987   0.94833   0.07964   0.01267  Uiso   1.00
C109   C     0.78962   0.95918   0.12459   0.01267  Uiso   1.00
C110   C     0.91005   0.98155   0.20528   0.01267  Uiso   1.00
C111   C     0.70737   0.40763   0.70470   0.01267  Uiso   1.00
C112   C     0.84068   0.03772   0.14390   0.01267  Uiso   1.00
C113   C     0.85523   0.90117   0.18538   0.01267  Uiso   1.00
C114   C     0.78702   0.36458   0.64519   0.01267  Uiso   1.00
C115   C     0.79747   0.89073   0.14547   0.01267  Uiso   1.00
C116   C     0.72816   0.34784   0.68578   0.01267  Uiso   1.00
C117   C     0.74774   0.48446   0.68164   0.01267  Uiso   1.00
C118   C     0.89897   0.04903   0.18410   0.01267  Uiso   1.00
C119   C     0.80558   0.50342   0.64075   0.01267  Uiso   1.00
C120   C     0.63586   0.47474   0.79622   0.01267  Uiso   1.00
C121   C     0.67447   0.66713   0.91379   0.01267  Uiso   1.00
C122   C     0.66202   0.59798   0.87306   0.01267  Uiso   1.00
C123   C     0.72380   0.59740   0.85060   0.01267  Uiso   1.00
C124   C     0.71220   0.53780   0.81170   0.01267  Uiso   1.00
C125   C     0.56810   0.49110   0.81660   0.01267  Uiso   1.00
C126   C     0.57970   0.54950   0.85520   0.01267  Uiso   1.00
C127   C     0.46102   0.88698   0.92373   0.01267  Uiso   1.00
C128   C     0.44278   0.82622   0.87769   0.01267  Uiso   1.00
C129   C     0.94833   0.72987   0.42036   0.01267  Uiso   1.00
C130   C     0.95918   0.78962   0.37541   0.01267  Uiso   1.00
C131   C     0.98155   0.91005   0.29472   0.01267  Uiso   1.00
C132   C     0.40763   0.70737   0.79530   0.01267  Uiso   1.00
C133   C     0.03772   0.84068   0.35610   0.01267  Uiso   1.00
C134   C     0.90117   0.85523   0.31462   0.01267  Uiso   1.00
C135   C     0.36458   0.78702   0.85481   0.01267  Uiso   1.00
C136   C     0.89073   0.79747   0.35453   0.01267  Uiso   1.00
C137   C     0.34784   0.72816   0.81422   0.01267  Uiso   1.00
C138   C     0.48446   0.74774   0.81836   0.01267  Uiso   1.00
C139   C     0.04903   0.89897   0.31590   0.01267  Uiso   1.00
C140   C     0.50342   0.80558   0.85925   0.01267  Uiso   1.00
C141   C     0.47474   0.63586   0.70378   0.01267  Uiso   1.00
C142   C     0.66713   0.67447   0.58621   0.01267  Uiso   1.00
C143   C     0.59798   0.66202   0.62694   0.01267  Uiso   1.00
C144   C     0.59740   0.72380   0.64940   0.01267  Uiso   1.00
C145   C     0.53780   0.71220   0.68830   0.01267  Uiso   1.00
C146   C     0.49110   0.56810   0.68340   0.01267  Uiso   1.00
C147   C     0.54950   0.57970   0.64480   0.01267  Uiso   1.00
C148   C     0.53898   0.11302   0.92373   0.01267  Uiso   1.00
C149   C     0.55722   0.17378   0.87769   0.01267  Uiso   1.00
C150   C     0.05167   0.27013   0.42036   0.01267  Uiso   1.00
C151   C     0.04082   0.21038   0.37541   0.01267  Uiso   1.00
C152   C     0.01845   0.08995   0.29472   0.01267  Uiso   1.00
C153   C     0.59237   0.29263   0.79530   0.01267  Uiso   1.00
C154   C     0.96228   0.15932   0.35610   0.01267  Uiso   1.00
C155   C     0.09883   0.14477   0.31462   0.01267  Uiso   1.00
C156   C     0.63542   0.21298   0.85481   0.01267  Uiso   1.00
C157   C     0.10927   0.20253   0.35453   0.01267  Uiso   1.00
C158   C     0.65216   0.27184   0.81422   0.01267  Uiso   1.00
C159   C     0.51554   0.25226   0.81836   0.01267  Uiso   1.00
C160   C     0.95097   0.10103   0.31590   0.01267  Uiso   1.00
C161   C     0.49658   0.19442   0.85925   0.01267  Uiso   1.00
C162   C     0.52526   0.36414   0.70378   0.01267  Uiso   1.00
C163   C     0.33287   0.32553   0.58621   0.01267  Uiso   1.00
C164   C     0.40202   0.33798   0.62694   0.01267  Uiso   1.00
C165   C     0.40260   0.27620   0.64940   0.01267  Uiso   1.00
C166   C     0.46220   0.28780   0.68830   0.01267  Uiso   1.00
C167   C     0.50890   0.43190   0.68340   0.01267  Uiso   1.00
C168   C     0.45050   0.42030   0.64480   0.01267  Uiso   1.00
O1     O     0.69298   0.87762   0.94159   0.01267  Uiso   1.00
O2     O     0.72005   0.00873   0.93410   0.01267  Uiso   1.00
O3     O     0.90047   0.40227   0.43929   0.01267  Uiso   1.00
O4     O     0.92018   0.53126   0.44250   0.01267  Uiso   1.00
O5     O     0.60260   0.66880   0.06400   0.01267  Uiso   1.00
O6     O     0.68210   0.64290   0.03870   0.01267  Uiso   1.00
O7     O     0.30702   0.12238   0.94159   0.01267  Uiso   1.00
O8     O     0.27995   0.99127   0.93410   0.01267  Uiso   1.00
O9     O     0.09953   0.59773   0.43929   0.01267  Uiso   1.00
O10    O     0.07982   0.46874   0.44250   0.01267  Uiso   1.00
O11    O     0.39740   0.33120   0.06400   0.01267  Uiso   1.00
O12    O     0.31790   0.35710   0.03870   0.01267  Uiso   1.00
O13    O     0.12238   0.30702   0.55841   0.01267  Uiso   1.00
O14    O     0.99127   0.27995   0.56590   0.01267  Uiso   1.00
O15    O     0.59773   0.09953   0.06071   0.01267  Uiso   1.00
O16    O     0.46874   0.07982   0.05750   0.01267  Uiso   1.00
O17    O     0.33120   0.39740   0.43600   0.01267  Uiso   1.00
O18    O     0.35710   0.31790   0.46130   0.01267  Uiso   1.00
O19    O     0.87762   0.69298   0.55841   0.01267  Uiso   1.00
O20    O     0.00873   0.72005   0.56590   0.01267  Uiso   1.00
O21    O     0.40227   0.90047   0.06071   0.01267  Uiso   1.00
O22    O     0.53126   0.92018   0.05750   0.01267  Uiso   1.00
O23    O     0.66880   0.60260   0.43600   0.01267  Uiso   1.00
O24    O     0.64290   0.68210   0.46130   0.01267  Uiso   1.00
O25    O     0.30702   0.12238   0.05841   0.01267  Uiso   1.00
O26    O     0.27995   0.99127   0.06590   0.01267  Uiso   1.00
O27    O     0.09953   0.59773   0.56071   0.01267  Uiso   1.00
O28    O     0.07982   0.46874   0.55750   0.01267  Uiso   1.00
O29    O     0.39740   0.33120   0.93600   0.01267  Uiso   1.00
O30    O     0.31790   0.35710   0.96130   0.01267  Uiso   1.00
O31    O     0.69298   0.87762   0.05841   0.01267  Uiso   1.00
O32    O     0.72005   0.00873   0.06590   0.01267  Uiso   1.00
O33    O     0.90047   0.40227   0.56071   0.01267  Uiso   1.00
O34    O     0.92018   0.53126   0.55750   0.01267  Uiso   1.00
O35    O     0.60260   0.66880   0.93600   0.01267  Uiso   1.00
O36    O     0.68210   0.64290   0.96130   0.01267  Uiso   1.00
O37    O     0.87762   0.69298   0.44159   0.01267  Uiso   1.00
O38    O     0.00873   0.72005   0.43410   0.01267  Uiso   1.00
O39    O     0.40227   0.90047   0.93929   0.01267  Uiso   1.00
O40    O     0.53126   0.92018   0.94250   0.01267  Uiso   1.00
O41    O     0.66880   0.60260   0.56400   0.01267  Uiso   1.00
O42    O     0.64290   0.68210   0.53870   0.01267  Uiso   1.00
O43    O     0.12238   0.30702   0.44159   0.01267  Uiso   1.00
O44    O     0.99127   0.27995   0.43410   0.01267  Uiso   1.00
O45    O     0.59773   0.09953   0.93929   0.01267  Uiso   1.00
O46    O     0.46874   0.07982   0.94250   0.01267  Uiso   1.00
O47    O     0.33120   0.39740   0.56400   0.01267  Uiso   1.00
O48    O     0.35710   0.31790   0.53870   0.01267  Uiso   1.00
