data_HIHGIQ_clean
_audit_creation_date              2014-07-02
_audit_creation_method            'Materials Studio'
_symmetry_space_group_name_H-M    'P1'
_symmetry_Int_Tables_number       1
_symmetry_cell_setting            triclinic
loop_
_symmetry_equiv_pos_as_xyz
  x,y,z
_cell_length_a                    16.0346
_cell_length_b                    16.0346
_cell_length_c                    26.4710
_cell_angle_alpha                 84.3117
_cell_angle_beta                  84.3117
_cell_angle_gamma                 84.3683
loop_
_atom_site_label
_atom_site_type_symbol
_atom_site_fract_x
_atom_site_fract_y
_atom_site_fract_z
_atom_site_U_iso_or_equiv
_atom_site_adp_type
_atom_site_occupancy
Co1    Co    0.72722   0.32122   0.49349   0.01267  Uiso   1.00
Co2    Co    0.89754   0.30618   0.47033   0.01267  Uiso   1.00
Co3    Co    0.32122   0.72722   0.99349   0.01267  Uiso   1.00
Co4    Co    0.30618   0.89754   0.97033   0.01267  Uiso   1.00
H1     H     0.67800   0.55920   0.39410   0.01267  Uiso   1.00
H2     H     0.67590   0.68690   0.34460   0.01267  Uiso   1.00
H3     H     0.92580   0.66460   0.32940   0.01267  Uiso   1.00
H4     H     0.92790   0.53810   0.37740   0.01267  Uiso   1.00
H5     H     0.69760   0.82320   0.29960   0.01267  Uiso   1.00
H6     H     0.71430   0.75050   0.26300   0.01267  Uiso   1.00
H7     H     0.64680   0.92040   0.22140   0.01267  Uiso   1.00
H8     H     0.70850   0.92710   0.17120   0.01267  Uiso   1.00
H9     H     0.60070   0.69850   0.16320   0.01267  Uiso   1.00
H10    H     0.49400   0.69200   0.11150   0.01267  Uiso   1.00
H11    H     0.46940   0.94080   0.08870   0.01267  Uiso   1.00
H12    H     0.57440   0.94820   0.14250   0.01267  Uiso   1.00
H13    H     0.85060   0.91400   0.27380   0.01267  Uiso   1.00
H14    H     0.82350   0.97330   0.22610   0.01267  Uiso   1.00
H15    H     0.64830   0.05290   0.34410   0.01267  Uiso   1.00
H16    H     0.67440   0.15860   0.39100   0.01267  Uiso   1.00
H17    H     0.91820   0.13260   0.34330   0.01267  Uiso   1.00
H18    H     0.89030   0.03070   0.29070   0.01267  Uiso   1.00
H19    H     0.88660   0.79600   0.21700   0.01267  Uiso   1.00
H20    H     0.81950   0.76830   0.18410   0.01267  Uiso   1.00
H21    H     0.96150   0.73210   0.15350   0.01267  Uiso   1.00
H22    H     0.08720   0.71020   0.10080   0.01267  Uiso   1.00
H23    H     0.06870   0.95050   0.04960   0.01267  Uiso   1.00
H24    H     0.93980   0.97060   0.09570   0.01267  Uiso   1.00
H25    H     0.02580   0.39320   0.51510   0.01267  Uiso   1.00
H26    H     0.16770   0.39030   0.51750   0.01267  Uiso   1.00
H27    H     0.19730   0.20590   0.42680   0.01267  Uiso   1.00
H28    H     0.05270   0.21150   0.42750   0.01267  Uiso   1.00
H29    H     0.32190   0.24990   0.45570   0.01267  Uiso   1.00
H30    H     0.30200   0.37960   0.51210   0.01267  Uiso   1.00
H31    H     0.43510   0.45670   0.50480   0.01267  Uiso   1.00
H32    H     0.57510   0.44070   0.51810   0.01267  Uiso   1.00
H33    H     0.59120   0.20840   0.49050   0.01267  Uiso   1.00
H34    H     0.44790   0.21570   0.48210   0.01267  Uiso   1.00
H35    H     0.55920   0.67800   0.89410   0.01267  Uiso   1.00
H36    H     0.68690   0.67590   0.84460   0.01267  Uiso   1.00
H37    H     0.66460   0.92580   0.82940   0.01267  Uiso   1.00
H38    H     0.53810   0.92790   0.87740   0.01267  Uiso   1.00
H39    H     0.82320   0.69760   0.79960   0.01267  Uiso   1.00
H40    H     0.75050   0.71430   0.76300   0.01267  Uiso   1.00
H41    H     0.92040   0.64680   0.72140   0.01267  Uiso   1.00
H42    H     0.92710   0.70850   0.67120   0.01267  Uiso   1.00
H43    H     0.69850   0.60070   0.66320   0.01267  Uiso   1.00
H44    H     0.69200   0.49400   0.61150   0.01267  Uiso   1.00
H45    H     0.94080   0.46940   0.58870   0.01267  Uiso   1.00
H46    H     0.94820   0.57440   0.64250   0.01267  Uiso   1.00
H47    H     0.91400   0.85060   0.77380   0.01267  Uiso   1.00
H48    H     0.97330   0.82350   0.72610   0.01267  Uiso   1.00
H49    H     0.05290   0.64830   0.84410   0.01267  Uiso   1.00
H50    H     0.15860   0.67440   0.89100   0.01267  Uiso   1.00
H51    H     0.13260   0.91820   0.84330   0.01267  Uiso   1.00
H52    H     0.03070   0.89030   0.79070   0.01267  Uiso   1.00
H53    H     0.79600   0.88660   0.71700   0.01267  Uiso   1.00
H54    H     0.76830   0.81950   0.68410   0.01267  Uiso   1.00
H55    H     0.73210   0.96150   0.65350   0.01267  Uiso   1.00
H56    H     0.71020   0.08720   0.60080   0.01267  Uiso   1.00
H57    H     0.95050   0.06870   0.54960   0.01267  Uiso   1.00
H58    H     0.97060   0.93980   0.59570   0.01267  Uiso   1.00
H59    H     0.39320   0.02580   0.01510   0.01267  Uiso   1.00
H60    H     0.39030   0.16770   0.01750   0.01267  Uiso   1.00
H61    H     0.20590   0.19730   0.92680   0.01267  Uiso   1.00
H62    H     0.21150   0.05270   0.92750   0.01267  Uiso   1.00
H63    H     0.24990   0.32190   0.95570   0.01267  Uiso   1.00
H64    H     0.37960   0.30200   0.01210   0.01267  Uiso   1.00
H65    H     0.45670   0.43510   0.00480   0.01267  Uiso   1.00
H66    H     0.44070   0.57510   0.01810   0.01267  Uiso   1.00
H67    H     0.20840   0.59120   0.99050   0.01267  Uiso   1.00
H68    H     0.21570   0.44790   0.98210   0.01267  Uiso   1.00
C1     C     0.80612   0.45304   0.42286   0.01267  Uiso   1.00
C2     C     0.80341   0.53479   0.39045   0.01267  Uiso   1.00
C3     C     0.72836   0.58012   0.38064   0.01267  Uiso   1.00
C4     C     0.72686   0.65668   0.35093   0.01267  Uiso   1.00
C5     C     0.80109   0.68729   0.33100   0.01267  Uiso   1.00
C6     C     0.87522   0.64302   0.34189   0.01267  Uiso   1.00
C7     C     0.87651   0.56755   0.37088   0.01267  Uiso   1.00
C8     C     0.73950   0.79548   0.27629   0.01267  Uiso   1.00
C9     C     0.76778   0.85840   0.23269   0.01267  Uiso   1.00
C10    C     0.69093   0.89023   0.20081   0.01267  Uiso   1.00
C11    C     0.59794   0.82414   0.15637   0.01267  Uiso   1.00
C12    C     0.57435   0.74763   0.14810   0.01267  Uiso   1.00
C13    C     0.51061   0.74411   0.11694   0.01267  Uiso   1.00
C14    C     0.47162   0.81550   0.09410   0.01267  Uiso   1.00
C15    C     0.49564   0.89146   0.10366   0.01267  Uiso   1.00
C16    C     0.55918   0.89618   0.13563   0.01267  Uiso   1.00
C17    C     0.40881   0.81027   0.05660   0.01267  Uiso   1.00
C18    C     0.80361   0.93433   0.25409   0.01267  Uiso   1.00
C19    C     0.76657   0.03557   0.31207   0.01267  Uiso   1.00
C20    C     0.70213   0.07053   0.34272   0.01267  Uiso   1.00
C21    C     0.71857   0.13237   0.37131   0.01267  Uiso   1.00
C22    C     0.79905   0.15755   0.37203   0.01267  Uiso   1.00
C23    C     0.86348   0.11838   0.34266   0.01267  Uiso   1.00
C24    C     0.84705   0.05651   0.31135   0.01267  Uiso   1.00
C25    C     0.81463   0.22031   0.40752   0.01267  Uiso   1.00
C26    C     0.83925   0.81619   0.19756   0.01267  Uiso   1.00
C27    C     0.93926   0.85426   0.12921   0.01267  Uiso   1.00
C28    C     0.98221   0.77601   0.13179   0.01267  Uiso   1.00
C29    C     0.05883   0.76361   0.10070   0.01267  Uiso   1.00
C30    C     0.09133   0.82853   0.07083   0.01267  Uiso   1.00
C31    C     0.04691   0.90551   0.06977   0.01267  Uiso   1.00
C32    C     0.97009   0.91807   0.09813   0.01267  Uiso   1.00
C33    C     0.17494   0.81654   0.04073   0.01267  Uiso   1.00
C34    C     0.06050   0.35396   0.49730   0.01267  Uiso   1.00
C35    C     0.14605   0.35245   0.49888   0.01267  Uiso   1.00
C36    C     0.20019   0.29549   0.47328   0.01267  Uiso   1.00
C37    C     0.16367   0.24419   0.44590   0.01267  Uiso   1.00
C38    C     0.07594   0.24832   0.44609   0.01267  Uiso   1.00
C39    C     0.29116   0.29188   0.47325   0.01267  Uiso   1.00
C40    C     0.33290   0.33850   0.49395   0.01267  Uiso   1.00
C41    C     0.42510   0.33630   0.49320   0.01267  Uiso   1.00
C42    C     0.46560   0.40480   0.50200   0.01267  Uiso   1.00
C43    C     0.55020   0.39680   0.50670   0.01267  Uiso   1.00
C44    C     0.55940   0.26020   0.49120   0.01267  Uiso   1.00
C45    C     0.47260   0.26360   0.48790   0.01267  Uiso   1.00
C46    C     0.45304   0.80612   0.92286   0.01267  Uiso   1.00
C47    C     0.53479   0.80341   0.89045   0.01267  Uiso   1.00
C48    C     0.58012   0.72836   0.88064   0.01267  Uiso   1.00
C49    C     0.65668   0.72686   0.85093   0.01267  Uiso   1.00
C50    C     0.68729   0.80109   0.83100   0.01267  Uiso   1.00
C51    C     0.64302   0.87522   0.84189   0.01267  Uiso   1.00
C52    C     0.56755   0.87651   0.87088   0.01267  Uiso   1.00
C53    C     0.79548   0.73950   0.77629   0.01267  Uiso   1.00
C54    C     0.85840   0.76778   0.73269   0.01267  Uiso   1.00
C55    C     0.89023   0.69093   0.70081   0.01267  Uiso   1.00
C56    C     0.82414   0.59794   0.65637   0.01267  Uiso   1.00
C57    C     0.74763   0.57435   0.64810   0.01267  Uiso   1.00
C58    C     0.74411   0.51061   0.61694   0.01267  Uiso   1.00
C59    C     0.81550   0.47162   0.59410   0.01267  Uiso   1.00
C60    C     0.89146   0.49564   0.60366   0.01267  Uiso   1.00
C61    C     0.89618   0.55918   0.63563   0.01267  Uiso   1.00
C62    C     0.81027   0.40881   0.55660   0.01267  Uiso   1.00
C63    C     0.93433   0.80361   0.75409   0.01267  Uiso   1.00
C64    C     0.03557   0.76657   0.81207   0.01267  Uiso   1.00
C65    C     0.07053   0.70213   0.84272   0.01267  Uiso   1.00
C66    C     0.13237   0.71857   0.87131   0.01267  Uiso   1.00
C67    C     0.15755   0.79905   0.87203   0.01267  Uiso   1.00
C68    C     0.11838   0.86348   0.84266   0.01267  Uiso   1.00
C69    C     0.05651   0.84705   0.81135   0.01267  Uiso   1.00
C70    C     0.22031   0.81463   0.90752   0.01267  Uiso   1.00
C71    C     0.81619   0.83925   0.69756   0.01267  Uiso   1.00
C72    C     0.85426   0.93926   0.62921   0.01267  Uiso   1.00
C73    C     0.77601   0.98221   0.63179   0.01267  Uiso   1.00
C74    C     0.76361   0.05883   0.60070   0.01267  Uiso   1.00
C75    C     0.82853   0.09133   0.57083   0.01267  Uiso   1.00
C76    C     0.90551   0.04691   0.56977   0.01267  Uiso   1.00
C77    C     0.91807   0.97009   0.59813   0.01267  Uiso   1.00
C78    C     0.81654   0.17494   0.54073   0.01267  Uiso   1.00
C79    C     0.35396   0.06050   0.99730   0.01267  Uiso   1.00
C80    C     0.35245   0.14605   0.99888   0.01267  Uiso   1.00
C81    C     0.29549   0.20019   0.97328   0.01267  Uiso   1.00
C82    C     0.24419   0.16367   0.94590   0.01267  Uiso   1.00
C83    C     0.24832   0.07594   0.94609   0.01267  Uiso   1.00
C84    C     0.29188   0.29116   0.97325   0.01267  Uiso   1.00
C85    C     0.33850   0.33290   0.99395   0.01267  Uiso   1.00
C86    C     0.33630   0.42510   0.99320   0.01267  Uiso   1.00
C87    C     0.40480   0.46560   0.00200   0.01267  Uiso   1.00
C88    C     0.39680   0.55020   0.00670   0.01267  Uiso   1.00
C89    C     0.26020   0.55940   0.99120   0.01267  Uiso   1.00
C90    C     0.26360   0.47260   0.98790   0.01267  Uiso   1.00
N1     N     0.59700   0.32700   0.49500   0.01267  Uiso   1.00
N2     N     0.02513   0.30209   0.47147   0.01267  Uiso   1.00
N3     N     0.32700   0.59700   0.99500   0.01267  Uiso   1.00
N4     N     0.30209   0.02513   0.97147   0.01267  Uiso   1.00
O1     O     0.73718   0.42876   0.44381   0.01267  Uiso   1.00
O2     O     0.87711   0.41419   0.42720   0.01267  Uiso   1.00
O3     O     0.80852   0.76238   0.30198   0.01267  Uiso   1.00
O4     O     0.66352   0.81758   0.18638   0.01267  Uiso   1.00
O5     O     0.39114   0.73698   0.05014   0.01267  Uiso   1.00
O6     O     0.37887   0.87621   0.03368   0.01267  Uiso   1.00
O7     O     0.74104   0.97400   0.28424   0.01267  Uiso   1.00
O8     O     0.88920   0.23516   0.41167   0.01267  Uiso   1.00
O9     O     0.75063   0.25241   0.43308   0.01267  Uiso   1.00
O10    O     0.86453   0.87403   0.15770   0.01267  Uiso   1.00
O11    O     0.21142   0.74422   0.03862   0.01267  Uiso   1.00
O12    O     0.20284   0.88268   0.01799   0.01267  Uiso   1.00
O13    O     0.42876   0.73718   0.94381   0.01267  Uiso   1.00
O14    O     0.41419   0.87711   0.92720   0.01267  Uiso   1.00
O15    O     0.76238   0.80852   0.80198   0.01267  Uiso   1.00
O16    O     0.81758   0.66352   0.68638   0.01267  Uiso   1.00
O17    O     0.73698   0.39114   0.55014   0.01267  Uiso   1.00
O18    O     0.87621   0.37887   0.53368   0.01267  Uiso   1.00
O19    O     0.97400   0.74104   0.78424   0.01267  Uiso   1.00
O20    O     0.23516   0.88920   0.91167   0.01267  Uiso   1.00
O21    O     0.25241   0.75063   0.93308   0.01267  Uiso   1.00
O22    O     0.87403   0.86453   0.65770   0.01267  Uiso   1.00
O23    O     0.74422   0.21142   0.53862   0.01267  Uiso   1.00
O24    O     0.88268   0.20284   0.51799   0.01267  Uiso   1.00
Co5    Co    0.67878   0.27278   0.00651   0.01267  Uiso   1.00
Co6    Co    0.69382   0.10246   0.02967   0.01267  Uiso   1.00
Co7    Co    0.27278   0.67878   0.50651   0.01267  Uiso   1.00
Co8    Co    0.10246   0.69382   0.52967   0.01267  Uiso   1.00
H69    H     0.44080   0.32200   0.10590   0.01267  Uiso   1.00
H70    H     0.31310   0.32410   0.15540   0.01267  Uiso   1.00
H71    H     0.33540   0.07420   0.17060   0.01267  Uiso   1.00
H72    H     0.46190   0.07210   0.12260   0.01267  Uiso   1.00
H73    H     0.17680   0.30240   0.20040   0.01267  Uiso   1.00
H74    H     0.24950   0.28570   0.23700   0.01267  Uiso   1.00
H75    H     0.07960   0.35320   0.27860   0.01267  Uiso   1.00
H76    H     0.07290   0.29150   0.32880   0.01267  Uiso   1.00
H77    H     0.30150   0.39930   0.33680   0.01267  Uiso   1.00
H78    H     0.30800   0.50600   0.38850   0.01267  Uiso   1.00
H79    H     0.05920   0.53060   0.41130   0.01267  Uiso   1.00
H80    H     0.05180   0.42560   0.35750   0.01267  Uiso   1.00
H81    H     0.08600   0.14940   0.22620   0.01267  Uiso   1.00
H82    H     0.02670   0.17650   0.27390   0.01267  Uiso   1.00
H83    H     0.94710   0.35170   0.15590   0.01267  Uiso   1.00
H84    H     0.84140   0.32560   0.10900   0.01267  Uiso   1.00
H85    H     0.86740   0.08180   0.15670   0.01267  Uiso   1.00
H86    H     0.96930   0.10970   0.20930   0.01267  Uiso   1.00
H87    H     0.20400   0.11340   0.28300   0.01267  Uiso   1.00
H88    H     0.23170   0.18050   0.31590   0.01267  Uiso   1.00
H89    H     0.26790   0.03850   0.34650   0.01267  Uiso   1.00
H90    H     0.28980   0.91280   0.39920   0.01267  Uiso   1.00
H91    H     0.04950   0.93130   0.45040   0.01267  Uiso   1.00
H92    H     0.02940   0.06020   0.40430   0.01267  Uiso   1.00
H93    H     0.60680   0.97420   0.98490   0.01267  Uiso   1.00
H94    H     0.60970   0.83230   0.98250   0.01267  Uiso   1.00
H95    H     0.79410   0.80270   0.07320   0.01267  Uiso   1.00
H96    H     0.78850   0.94730   0.07250   0.01267  Uiso   1.00
H97    H     0.75010   0.67810   0.04430   0.01267  Uiso   1.00
H98    H     0.62040   0.69800   0.98790   0.01267  Uiso   1.00
H99    H     0.54330   0.56490   0.99520   0.01267  Uiso   1.00
H100   H     0.55930   0.42490   0.98190   0.01267  Uiso   1.00
H101   H     0.79160   0.40880   0.00950   0.01267  Uiso   1.00
H102   H     0.78430   0.55210   0.01790   0.01267  Uiso   1.00
H103   H     0.32200   0.44080   0.60590   0.01267  Uiso   1.00
H104   H     0.32410   0.31310   0.65540   0.01267  Uiso   1.00
H105   H     0.07420   0.33540   0.67060   0.01267  Uiso   1.00
H106   H     0.07210   0.46190   0.62260   0.01267  Uiso   1.00
H107   H     0.30240   0.17680   0.70040   0.01267  Uiso   1.00
H108   H     0.28570   0.24950   0.73700   0.01267  Uiso   1.00
H109   H     0.35320   0.07960   0.77860   0.01267  Uiso   1.00
H110   H     0.29150   0.07290   0.82880   0.01267  Uiso   1.00
H111   H     0.39930   0.30150   0.83680   0.01267  Uiso   1.00
H112   H     0.50600   0.30800   0.88850   0.01267  Uiso   1.00
H113   H     0.53060   0.05920   0.91130   0.01267  Uiso   1.00
H114   H     0.42560   0.05180   0.85750   0.01267  Uiso   1.00
H115   H     0.14940   0.08600   0.72620   0.01267  Uiso   1.00
H116   H     0.17650   0.02670   0.77390   0.01267  Uiso   1.00
H117   H     0.35170   0.94710   0.65590   0.01267  Uiso   1.00
H118   H     0.32560   0.84140   0.60900   0.01267  Uiso   1.00
H119   H     0.08180   0.86740   0.65670   0.01267  Uiso   1.00
H120   H     0.10970   0.96930   0.70930   0.01267  Uiso   1.00
H121   H     0.11340   0.20400   0.78300   0.01267  Uiso   1.00
H122   H     0.18050   0.23170   0.81590   0.01267  Uiso   1.00
H123   H     0.03850   0.26790   0.84650   0.01267  Uiso   1.00
H124   H     0.91280   0.28980   0.89920   0.01267  Uiso   1.00
H125   H     0.93130   0.04950   0.95040   0.01267  Uiso   1.00
H126   H     0.06020   0.02940   0.90430   0.01267  Uiso   1.00
H127   H     0.97420   0.60680   0.48490   0.01267  Uiso   1.00
H128   H     0.83230   0.60970   0.48250   0.01267  Uiso   1.00
H129   H     0.80270   0.79410   0.57320   0.01267  Uiso   1.00
H130   H     0.94730   0.78850   0.57250   0.01267  Uiso   1.00
H131   H     0.67810   0.75010   0.54430   0.01267  Uiso   1.00
H132   H     0.69800   0.62040   0.48790   0.01267  Uiso   1.00
H133   H     0.56490   0.54330   0.49520   0.01267  Uiso   1.00
H134   H     0.42490   0.55930   0.48190   0.01267  Uiso   1.00
H135   H     0.40880   0.79160   0.50950   0.01267  Uiso   1.00
H136   H     0.55210   0.78430   0.51790   0.01267  Uiso   1.00
C91    C     0.54696   0.19388   0.07714   0.01267  Uiso   1.00
C92    C     0.46521   0.19659   0.10955   0.01267  Uiso   1.00
C93    C     0.41988   0.27164   0.11936   0.01267  Uiso   1.00
C94    C     0.34332   0.27314   0.14907   0.01267  Uiso   1.00
C95    C     0.31271   0.19891   0.16900   0.01267  Uiso   1.00
C96    C     0.35698   0.12478   0.15811   0.01267  Uiso   1.00
C97    C     0.43245   0.12349   0.12912   0.01267  Uiso   1.00
C98    C     0.20452   0.26050   0.22371   0.01267  Uiso   1.00
C99    C     0.14160   0.23222   0.26731   0.01267  Uiso   1.00
C100   C     0.10977   0.30907   0.29919   0.01267  Uiso   1.00
C101   C     0.17586   0.40206   0.34363   0.01267  Uiso   1.00
C102   C     0.25237   0.42565   0.35190   0.01267  Uiso   1.00
C103   C     0.25589   0.48939   0.38306   0.01267  Uiso   1.00
C104   C     0.18450   0.52838   0.40590   0.01267  Uiso   1.00
C105   C     0.10854   0.50436   0.39634   0.01267  Uiso   1.00
C106   C     0.10382   0.44082   0.36437   0.01267  Uiso   1.00
C107   C     0.18973   0.59119   0.44340   0.01267  Uiso   1.00
C108   C     0.06567   0.19639   0.24591   0.01267  Uiso   1.00
C109   C     0.96443   0.23343   0.18793   0.01267  Uiso   1.00
C110   C     0.92947   0.29787   0.15728   0.01267  Uiso   1.00
C111   C     0.86763   0.28143   0.12869   0.01267  Uiso   1.00
C112   C     0.84245   0.20095   0.12797   0.01267  Uiso   1.00
C113   C     0.88162   0.13652   0.15734   0.01267  Uiso   1.00
C114   C     0.94349   0.15295   0.18865   0.01267  Uiso   1.00
C115   C     0.77969   0.18537   0.09248   0.01267  Uiso   1.00
C116   C     0.18381   0.16075   0.30244   0.01267  Uiso   1.00
C117   C     0.14574   0.06074   0.37079   0.01267  Uiso   1.00
C118   C     0.22399   0.01779   0.36821   0.01267  Uiso   1.00
C119   C     0.23639   0.94117   0.39930   0.01267  Uiso   1.00
C120   C     0.17147   0.90867   0.42917   0.01267  Uiso   1.00
C121   C     0.09449   0.95309   0.43023   0.01267  Uiso   1.00
C122   C     0.08193   0.02991   0.40187   0.01267  Uiso   1.00
C123   C     0.18346   0.82506   0.45927   0.01267  Uiso   1.00
C124   C     0.64604   0.93950   0.00270   0.01267  Uiso   1.00
C125   C     0.64755   0.85395   0.00112   0.01267  Uiso   1.00
C126   C     0.70451   0.79981   0.02672   0.01267  Uiso   1.00
C127   C     0.75581   0.83633   0.05410   0.01267  Uiso   1.00
C128   C     0.75168   0.92406   0.05391   0.01267  Uiso   1.00
C129   C     0.70812   0.70884   0.02675   0.01267  Uiso   1.00
C130   C     0.66150   0.66710   0.00605   0.01267  Uiso   1.00
C131   C     0.66370   0.57490   0.00680   0.01267  Uiso   1.00
C132   C     0.59520   0.53440   0.99800   0.01267  Uiso   1.00
C133   C     0.60320   0.44980   0.99330   0.01267  Uiso   1.00
C134   C     0.73980   0.44060   0.00880   0.01267  Uiso   1.00
C135   C     0.73640   0.52740   0.01210   0.01267  Uiso   1.00
C136   C     0.19388   0.54696   0.57714   0.01267  Uiso   1.00
C137   C     0.19659   0.46521   0.60955   0.01267  Uiso   1.00
C138   C     0.27164   0.41988   0.61936   0.01267  Uiso   1.00
C139   C     0.27314   0.34332   0.64907   0.01267  Uiso   1.00
C140   C     0.19891   0.31271   0.66900   0.01267  Uiso   1.00
C141   C     0.12478   0.35698   0.65811   0.01267  Uiso   1.00
C142   C     0.12349   0.43245   0.62912   0.01267  Uiso   1.00
C143   C     0.26050   0.20452   0.72371   0.01267  Uiso   1.00
C144   C     0.23222   0.14160   0.76731   0.01267  Uiso   1.00
C145   C     0.30907   0.10977   0.79919   0.01267  Uiso   1.00
C146   C     0.40206   0.17586   0.84363   0.01267  Uiso   1.00
C147   C     0.42565   0.25237   0.85190   0.01267  Uiso   1.00
C148   C     0.48939   0.25589   0.88306   0.01267  Uiso   1.00
C149   C     0.52838   0.18450   0.90590   0.01267  Uiso   1.00
C150   C     0.50436   0.10854   0.89634   0.01267  Uiso   1.00
C151   C     0.44082   0.10382   0.86437   0.01267  Uiso   1.00
C152   C     0.59119   0.18973   0.94340   0.01267  Uiso   1.00
C153   C     0.19639   0.06567   0.74591   0.01267  Uiso   1.00
C154   C     0.23343   0.96443   0.68793   0.01267  Uiso   1.00
C155   C     0.29787   0.92947   0.65728   0.01267  Uiso   1.00
C156   C     0.28143   0.86763   0.62869   0.01267  Uiso   1.00
C157   C     0.20095   0.84245   0.62797   0.01267  Uiso   1.00
C158   C     0.13652   0.88162   0.65734   0.01267  Uiso   1.00
C159   C     0.15295   0.94349   0.68865   0.01267  Uiso   1.00
C160   C     0.18537   0.77969   0.59248   0.01267  Uiso   1.00
C161   C     0.16075   0.18381   0.80244   0.01267  Uiso   1.00
C162   C     0.06074   0.14574   0.87079   0.01267  Uiso   1.00
C163   C     0.01779   0.22399   0.86821   0.01267  Uiso   1.00
C164   C     0.94117   0.23639   0.89930   0.01267  Uiso   1.00
C165   C     0.90867   0.17147   0.92917   0.01267  Uiso   1.00
C166   C     0.95309   0.09449   0.93023   0.01267  Uiso   1.00
C167   C     0.02991   0.08193   0.90187   0.01267  Uiso   1.00
C168   C     0.82506   0.18346   0.95927   0.01267  Uiso   1.00
C169   C     0.93950   0.64604   0.50270   0.01267  Uiso   1.00
C170   C     0.85395   0.64755   0.50112   0.01267  Uiso   1.00
C171   C     0.79981   0.70451   0.52672   0.01267  Uiso   1.00
C172   C     0.83633   0.75581   0.55410   0.01267  Uiso   1.00
C173   C     0.92406   0.75168   0.55391   0.01267  Uiso   1.00
C174   C     0.70884   0.70812   0.52675   0.01267  Uiso   1.00
C175   C     0.66710   0.66150   0.50605   0.01267  Uiso   1.00
C176   C     0.57490   0.66370   0.50680   0.01267  Uiso   1.00
C177   C     0.53440   0.59520   0.49800   0.01267  Uiso   1.00
C178   C     0.44980   0.60320   0.49330   0.01267  Uiso   1.00
C179   C     0.44060   0.73980   0.50880   0.01267  Uiso   1.00
C180   C     0.52740   0.73640   0.51210   0.01267  Uiso   1.00
N5     N     0.67300   0.40300   0.00500   0.01267  Uiso   1.00
N6     N     0.69791   0.97487   0.02853   0.01267  Uiso   1.00
N7     N     0.40300   0.67300   0.50500   0.01267  Uiso   1.00
N8     N     0.97487   0.69791   0.52853   0.01267  Uiso   1.00
O25    O     0.57124   0.26282   0.05619   0.01267  Uiso   1.00
O26    O     0.58581   0.12289   0.07280   0.01267  Uiso   1.00
O27    O     0.23762   0.19148   0.19802   0.01267  Uiso   1.00
O28    O     0.18242   0.33648   0.31362   0.01267  Uiso   1.00
O29    O     0.26302   0.60886   0.44986   0.01267  Uiso   1.00
O30    O     0.12379   0.62113   0.46632   0.01267  Uiso   1.00
O31    O     0.02600   0.25896   0.21576   0.01267  Uiso   1.00
O32    O     0.76484   0.11080   0.08833   0.01267  Uiso   1.00
O33    O     0.74759   0.24937   0.06692   0.01267  Uiso   1.00
O34    O     0.12597   0.13547   0.34230   0.01267  Uiso   1.00
O35    O     0.25578   0.78858   0.46138   0.01267  Uiso   1.00
O36    O     0.11732   0.79716   0.48201   0.01267  Uiso   1.00
O37    O     0.26282   0.57124   0.55619   0.01267  Uiso   1.00
O38    O     0.12289   0.58581   0.57280   0.01267  Uiso   1.00
O39    O     0.19148   0.23762   0.69802   0.01267  Uiso   1.00
O40    O     0.33648   0.18242   0.81362   0.01267  Uiso   1.00
O41    O     0.60886   0.26302   0.94986   0.01267  Uiso   1.00
O42    O     0.62113   0.12379   0.96632   0.01267  Uiso   1.00
O43    O     0.25896   0.02600   0.71576   0.01267  Uiso   1.00
O44    O     0.11080   0.76484   0.58833   0.01267  Uiso   1.00
O45    O     0.24937   0.74759   0.56692   0.01267  Uiso   1.00
O46    O     0.13547   0.12597   0.84230   0.01267  Uiso   1.00
O47    O     0.78858   0.25578   0.96138   0.01267  Uiso   1.00
O48    O     0.79716   0.11732   0.98201   0.01267  Uiso   1.00
