data_HIQNIG_clean
_audit_creation_date              2015-10-16
_audit_creation_method            'Materials Studio'
_symmetry_space_group_name_H-M    'P1'
_symmetry_Int_Tables_number       1
_symmetry_cell_setting            triclinic
loop_
_symmetry_equiv_pos_as_xyz
  x,y,z
_cell_length_a                    9.0531
_cell_length_b                    16.3420
_cell_length_c                    19.2180
_cell_angle_alpha                 90.0000
_cell_angle_beta                  90.0000
_cell_angle_gamma                 92.8040
loop_
_atom_site_label
_atom_site_type_symbol
_atom_site_fract_x
_atom_site_fract_y
_atom_site_fract_z
_atom_site_U_iso_or_equiv
_atom_site_adp_type
_atom_site_occupancy
Zn1    Zn    0.63241   0.59695   0.68554   0.01267  Uiso   1.00
Zn2    Zn    0.36759   0.40305   0.31446   0.01267  Uiso   1.00
Zn3    Zn    0.13241   0.09695   0.81446   0.01267  Uiso   1.00
Zn4    Zn    0.86759   0.90305   0.18554   0.01267  Uiso   1.00
H1     H     0.83700   0.30350   0.40210   0.01267  Uiso   1.00
H2     H     0.91480   0.81870   0.73130   0.01267  Uiso   1.00
H3     H     0.07930   0.26240   0.75780   0.01267  Uiso   1.00
H4     H     0.03340   0.37290   0.86400   0.01267  Uiso   1.00
H5     H     0.41480   0.31870   0.76870   0.01267  Uiso   1.00
H6     H     0.91790   0.33140   0.69130   0.01267  Uiso   1.00
H7     H     0.63400   0.47300   0.39040   0.01267  Uiso   1.00
H8     H     0.84350   0.50060   0.09370   0.01267  Uiso   1.00
H9     H     0.31740   0.56630   0.74450   0.01267  Uiso   1.00
H10    H     0.58210   0.16860   0.19130   0.01267  Uiso   1.00
H11    H     0.81740   0.06630   0.75550   0.01267  Uiso   1.00
H12    H     0.71580   0.12530   0.10240   0.01267  Uiso   1.00
H13    H     0.29000   0.34680   0.45950   0.01267  Uiso   1.00
H14    H     0.21580   0.62530   0.39760   0.01267  Uiso   1.00
H15    H     0.46660   0.12710   0.36400   0.01267  Uiso   1.00
H16    H     0.39860   0.17390   0.42630   0.01267  Uiso   1.00
H17    H     0.42070   0.23760   0.25780   0.01267  Uiso   1.00
H18    H     0.53340   0.87290   0.63600   0.01267  Uiso   1.00
H19    H     0.58520   0.68130   0.23130   0.01267  Uiso   1.00
H20    H     0.36600   0.52700   0.60960   0.01267  Uiso   1.00
H21    H     0.96660   0.62710   0.13600   0.01267  Uiso   1.00
H22    H     0.34910   0.86900   0.31320   0.01267  Uiso   1.00
H23    H     0.78420   0.37470   0.60240   0.01267  Uiso   1.00
H24    H     0.73480   0.05400   0.99040   0.01267  Uiso   1.00
H25    H     0.15300   0.61450   0.97590   0.01267  Uiso   1.00
H26    H     0.18260   0.93370   0.24450   0.01267  Uiso   1.00
H27    H     0.21000   0.15320   0.95950   0.01267  Uiso   1.00
H28    H     0.39550   0.75310   0.56400   0.01267  Uiso   1.00
H29    H     0.26520   0.94600   0.00960   0.01267  Uiso   1.00
H30    H     0.08210   0.66860   0.30870   0.01267  Uiso   1.00
H31    H     0.57930   0.76240   0.74220   0.01267  Uiso   1.00
H32    H     0.60450   0.24690   0.43600   0.01267  Uiso   1.00
H33    H     0.15090   0.63100   0.81320   0.01267  Uiso   1.00
H34    H     0.10140   0.32610   0.92630   0.01267  Uiso   1.00
H35    H     0.65650   0.99940   0.59370   0.01267  Uiso   1.00
H36    H     0.65300   0.11450   0.52410   0.01267  Uiso   1.00
H37    H     0.71000   0.65320   0.54050   0.01267  Uiso   1.00
H38    H     0.34700   0.88550   0.47590   0.01267  Uiso   1.00
H39    H     0.68820   0.08520   0.32980   0.01267  Uiso   1.00
H40    H     0.59010   0.68300   0.44030   0.01267  Uiso   1.00
H41    H     0.79000   0.84680   0.04050   0.01267  Uiso   1.00
H42    H     0.28420   0.87470   0.89760   0.01267  Uiso   1.00
H43    H     0.31180   0.91480   0.67020   0.01267  Uiso   1.00
H44    H     0.42420   0.74990   0.37760   0.01267  Uiso   1.00
H45    H     0.16300   0.69650   0.59790   0.01267  Uiso   1.00
H46    H     0.65090   0.13100   0.68680   0.01267  Uiso   1.00
H47    H     0.76520   0.44600   0.49040   0.01267  Uiso   1.00
H48    H     0.89550   0.25310   0.93600   0.01267  Uiso   1.00
H49    H     0.60140   0.82610   0.57370   0.01267  Uiso   1.00
H50    H     0.90990   0.81700   0.94030   0.01267  Uiso   1.00
H51    H     0.89860   0.67390   0.07370   0.01267  Uiso   1.00
H52    H     0.23480   0.55400   0.50960   0.01267  Uiso   1.00
H53    H     0.15650   0.49940   0.90630   0.01267  Uiso   1.00
H54    H     0.57580   0.25010   0.62240   0.01267  Uiso   1.00
H55    H     0.18820   0.58520   0.17020   0.01267  Uiso   1.00
H56    H     0.09010   0.18300   0.05970   0.01267  Uiso   1.00
H57    H     0.41790   0.83140   0.80870   0.01267  Uiso   1.00
H58    H     0.33700   0.80350   0.09790   0.01267  Uiso   1.00
H59    H     0.07580   0.75010   0.87760   0.01267  Uiso   1.00
H60    H     0.86600   0.02700   0.89040   0.01267  Uiso   1.00
H61    H     0.92070   0.73760   0.24220   0.01267  Uiso   1.00
H62    H     0.40990   0.31700   0.55970   0.01267  Uiso   1.00
H63    H     0.68260   0.43370   0.25550   0.01267  Uiso   1.00
H64    H     0.10450   0.74690   0.06400   0.01267  Uiso   1.00
H65    H     0.13400   0.97300   0.10960   0.01267  Uiso   1.00
H66    H     0.81180   0.41480   0.82980   0.01267  Uiso   1.00
H67    H     0.08520   0.18130   0.26870   0.01267  Uiso   1.00
H68    H     0.66300   0.19650   0.90210   0.01267  Uiso   1.00
H69    H     0.84910   0.36900   0.18680   0.01267  Uiso   1.00
H70    H     0.92420   0.24990   0.12240   0.01267  Uiso   1.00
H71    H     0.34350   0.00060   0.40630   0.01267  Uiso   1.00
H72    H     0.84700   0.38550   0.02410   0.01267  Uiso   1.00
C1     C     0.59190   0.45050   0.74410   0.01267  Uiso   1.00
C2     C     0.76140   0.34120   0.19990   0.01267  Uiso   1.00
C3     C     0.16030   0.88000   0.25850   0.01267  Uiso   1.00
C4     C     0.35000   0.75750   0.12530   0.01267  Uiso   1.00
C5     C     0.00750   0.76490   0.25710   0.01267  Uiso   1.00
C6     C     0.50090   0.31500   0.79470   0.01267  Uiso   1.00
C7     C     0.09110   0.56890   0.98620   0.01267  Uiso   1.00
C8     C     0.49910   0.68500   0.20530   0.01267  Uiso   1.00
C9     C     0.38800   0.36550   0.46480   0.01267  Uiso   1.00
C10    C     0.41040   0.56050   0.57570   0.01267  Uiso   1.00
C11    C     0.88890   0.12260   0.29140   0.01267  Uiso   1.00
C12    C     0.50750   0.26490   0.24290   0.01267  Uiso   1.00
C13    C     0.59110   0.06890   0.51380   0.01267  Uiso   1.00
C14    C     0.50210   0.92970   0.54290   0.01267  Uiso   1.00
C15    C     0.83110   0.22420   0.12850   0.01267  Uiso   1.00
C16    C     0.00210   0.42970   0.95710   0.01267  Uiso   1.00
C17    C     0.73860   0.15880   0.69990   0.01267  Uiso   1.00
C18    C     0.15000   0.74250   0.62530   0.01267  Uiso   1.00
C19    C     0.48480   0.14550   0.41130   0.01267  Uiso   1.00
C20    C     0.83970   0.12000   0.74150   0.01267  Uiso   1.00
C21    C     0.99790   0.57030   0.04290   0.01267  Uiso   1.00
C22    C     0.09270   0.49930   0.94420   0.01267  Uiso   1.00
C23    C     0.33110   0.72420   0.37150   0.01267  Uiso   1.00
C24    C     0.09190   0.95050   0.75590   0.01267  Uiso   1.00
C25    C     0.40810   0.54950   0.25590   0.01267  Uiso   1.00
C26    C     0.08960   0.93950   0.07570   0.01267  Uiso   1.00
C27    C     0.91040   0.06050   0.92430   0.01267  Uiso   1.00
C28    C     0.49250   0.73510   0.75710   0.01267  Uiso   1.00
C29    C     0.04010   0.15330   0.02490   0.01267  Uiso   1.00
C30    C     0.60390   0.22330   0.20240   0.01267  Uiso   1.00
C31    C     0.76020   0.12780   0.33120   0.01267  Uiso   1.00
C32    C     0.39610   0.77670   0.79760   0.01267  Uiso   1.00
C33    C     0.10670   0.87160   0.96600   0.01267  Uiso   1.00
C34    C     0.69890   0.34330   0.59130   0.01267  Uiso   1.00
C35    C     0.17030   0.92280   0.01580   0.01267  Uiso   1.00
C36    C     0.89330   0.12840   0.03400   0.01267  Uiso   1.00
C37    C     0.90810   0.04950   0.24410   0.01267  Uiso   1.00
C38    C     0.59270   0.99930   0.55580   0.01267  Uiso   1.00
C39    C     0.48050   0.75250   0.16330   0.01267  Uiso   1.00
C40    C     0.30110   0.65670   0.40870   0.01267  Uiso   1.00
C41    C     0.49790   0.07030   0.45710   0.01267  Uiso   1.00
C42    C     0.23900   0.69580   0.12720   0.01267  Uiso   1.00
C43    C     0.32970   0.57720   0.51580   0.01267  Uiso   1.00
C44    C     0.23860   0.65880   0.80010   0.01267  Uiso   1.00
C45    C     0.99250   0.23510   0.74290   0.01267  Uiso   1.00
C46    C     0.90890   0.43110   0.01380   0.01267  Uiso   1.00
C47    C     0.90730   0.50070   0.05580   0.01267  Uiso   1.00
C48    C     0.66890   0.27580   0.62850   0.01267  Uiso   1.00
C49    C     0.76730   0.23810   0.67790   0.01267  Uiso   1.00
C50    C     0.33970   0.62000   0.75850   0.01267  Uiso   1.00
C51    C     0.98480   0.64550   0.08870   0.01267  Uiso   1.00
C52    C     0.54010   0.65330   0.47510   0.01267  Uiso   1.00
C53    C     0.23980   0.87220   0.66880   0.01267  Uiso   1.00
C54    C     0.09720   0.32090   0.34260   0.01267  Uiso   1.00
C55    C     0.61200   0.63450   0.53520   0.01267  Uiso   1.00
C56    C     0.60670   0.37160   0.53400   0.01267  Uiso   1.00
C57    C     0.38890   0.62260   0.20860   0.01267  Uiso   1.00
C58    C     0.11110   0.87740   0.70860   0.01267  Uiso   1.00
C59    C     0.26730   0.73810   0.82210   0.01267  Uiso   1.00
C60    C     0.01520   0.35450   0.91130   0.01267  Uiso   1.00
C61    C     0.58960   0.43950   0.42430   0.01267  Uiso   1.00
C62    C     0.26020   0.62780   0.16880   0.01267  Uiso   1.00
C63    C     0.45990   0.34670   0.52490   0.01267  Uiso   1.00
C64    C     0.90280   0.67910   0.65740   0.01267  Uiso   1.00
C65    C     0.89610   0.27670   0.70240   0.01267  Uiso   1.00
C66    C     0.82970   0.07720   0.98420   0.01267  Uiso   1.00
C67    C     0.16890   0.77580   0.87150   0.01267  Uiso   1.00
C68    C     0.95990   0.84670   0.97510   0.01267  Uiso   1.00
C69    C     0.26100   0.80420   0.62720   0.01267  Uiso   1.00
C70    C     0.26140   0.84120   0.30010   0.01267  Uiso   1.00
C71    C     0.40730   0.00070   0.44420   0.01267  Uiso   1.00
C72    C     0.51950   0.24750   0.83670   0.01267  Uiso   1.00
C73    C     0.76100   0.30420   0.87280   0.01267  Uiso   1.00
C74    C     0.40280   0.17910   0.84260   0.01267  Uiso   1.00
C75    C     0.73980   0.37220   0.83120   0.01267  Uiso   1.00
C76    C     0.01950   0.74750   0.66330   0.01267  Uiso   1.00
C77    C     0.88800   0.86550   0.03520   0.01267  Uiso   1.00
C78    C     0.11200   0.13450   0.96480   0.01267  Uiso   1.00
C79    C     0.73900   0.19580   0.37280   0.01267  Uiso   1.00
C80    C     0.65000   0.24250   0.87470   0.01267  Uiso   1.00
C81    C     0.73270   0.26190   0.17790   0.01267  Uiso   1.00
C82    C     0.19890   0.84330   0.90870   0.01267  Uiso   1.00
C83    C     0.61110   0.37740   0.79140   0.01267  Uiso   1.00
C84    C     0.99910   0.18500   0.29470   0.01267  Uiso   1.00
C85    C     0.59720   0.82090   0.15740   0.01267  Uiso   1.00
C86    C     0.85000   0.25750   0.37470   0.01267  Uiso   1.00
C87    C     0.80110   0.15670   0.09130   0.01267  Uiso   1.00
C88    C     0.98050   0.25250   0.33670   0.01267  Uiso   1.00
C89    C     0.39330   0.62840   0.46600   0.01267  Uiso   1.00
C90    C     0.51520   0.85450   0.58870   0.01267  Uiso   1.00
C91    C     0.66030   0.38000   0.24150   0.01267  Uiso   1.00
C92    C     0.00090   0.81500   0.70530   0.01267  Uiso   1.00
C93    C     0.23270   0.76190   0.32210   0.01267  Uiso   1.00
C94    C     0.40890   0.93110   0.48620   0.01267  Uiso   1.00
C95    C     0.67030   0.42280   0.48420   0.01267  Uiso   1.00
C96    C     0.10390   0.72330   0.29760   0.01267  Uiso   1.00
N1     N     0.54830   0.59070   0.58646   0.01267  Uiso   1.00
N2     N     0.46630   0.65620   0.73800   0.01267  Uiso   1.00
N3     N     0.03370   0.84380   0.23800   0.01267  Uiso   1.00
N4     N     0.88970   0.29630   0.91070   0.01267  Uiso   1.00
N5     N     0.45170   0.40930   0.41354   0.01267  Uiso   1.00
N6     N     0.53370   0.34380   0.26200   0.01267  Uiso   1.00
N7     N     0.61030   0.20370   0.41070   0.01267  Uiso   1.00
N8     N     0.95170   0.90930   0.08646   0.01267  Uiso   1.00
N9     N     0.11030   0.70370   0.08930   0.01267  Uiso   1.00
N10    N     0.38970   0.79630   0.58930   0.01267  Uiso   1.00
N11    N     0.04830   0.09070   0.91354   0.01267  Uiso   1.00
N12    N     0.96630   0.15620   0.76200   0.01267  Uiso   1.00
O1     O     0.30190   0.49540   0.25946   0.01267  Uiso   1.00
O2     O     0.52380   0.54370   0.28966   0.01267  Uiso   1.00
O3     O     0.57790   0.87980   0.11900   0.01267  Uiso   1.00
O4     O     0.80190   0.99540   0.24054   0.01267  Uiso   1.00
O5     O     0.92210   0.62020   0.61900   0.01267  Uiso   1.00
O6     O     0.07790   0.37980   0.38100   0.01267  Uiso   1.00
O7     O     0.19810   0.00460   0.75946   0.01267  Uiso   1.00
O8     O     0.02380   0.04370   0.21034   0.01267  Uiso   1.00
O9     O     0.28420   0.18710   0.80788   0.01267  Uiso   1.00
O10    O     0.42210   0.12020   0.88100   0.01267  Uiso   1.00
O11    O     0.71580   0.81290   0.19212   0.01267  Uiso   1.00
O12    O     0.78420   0.68710   0.69212   0.01267  Uiso   1.00
O13    O     0.69810   0.50460   0.74054   0.01267  Uiso   1.00
O14    O     0.21580   0.31290   0.30788   0.01267  Uiso   1.00
O15    O     0.97620   0.95630   0.78966   0.01267  Uiso   1.00
O16    O     0.47620   0.45630   0.71034   0.01267  Uiso   1.00
