data_image0
_cell_length_a       20.504
_cell_length_b       9.5776
_cell_length_c       19.444
_cell_angle_alpha    90
_cell_angle_beta     103.735
_cell_angle_gamma    90

_symmetry_space_group_name_H-M    "P 1"
_symmetry_int_tables_number       1

loop_
  _symmetry_equiv_pos_as_xyz
  'x, y, z'

loop_
  _atom_site_label
  _atom_site_occupancy
  _atom_site_fract_x
  _atom_site_fract_y
  _atom_site_fract_z
  _atom_site_thermal_displace_type
  _atom_site_B_iso_or_equiv
  _atom_site_type_symbol
  Zn1      1.0000 0.59911  0.91573  0.78959  Biso   1.000  Zn
  Zn2      1.0000 0.71863  0.86299  0.92754  Biso   1.000  Zn
  N1       1.0000 0.55790  0.94380  0.68430  Biso   1.000  N
  C1       1.0000 0.51290  0.98940  0.53870  Biso   1.000  C
  C2       1.0000 0.52580  0.09800  0.58610  Biso   1.000  C
  H1       1.0000 0.51830  0.18930  0.56980  Biso   1.000  H
  C3       1.0000 0.54940  0.07320  0.65710  Biso   1.000  C
  H2       1.0000 0.56000  0.14900  0.68760  Biso   1.000  H
  C4       1.0000 0.52050  0.85520  0.56780  Biso   1.000  C
  H3       1.0000 0.50860  0.77750  0.53880  Biso   1.000  H
  C5       1.0000 0.54510  0.83870  0.63840  Biso   1.000  C
  H4       1.0000 0.55370  0.74840  0.65580  Biso   1.000  H
  C6       1.0000 0.38800  0.34840  0.15870  Biso   1.000  C
  C7       1.0000 0.76390  0.65680  0.56330  Biso   1.000  C
  C8       1.0000 0.74770  0.83250  0.79580  Biso   1.000  C
  C9       1.0000 0.76080  0.73820  0.68140  Biso   1.000  C
  H5       1.0000 0.71430  0.73690  0.66630  Biso   1.000  H
  C10      1.0000 0.79110  0.78110  0.75010  Biso   1.000  C
  C11      1.0000 0.79880  0.69830  0.63620  Biso   1.000  C
  C12      1.0000 0.89940  0.73430  0.72840  Biso   1.000  C
  C13      1.0000 0.86810  0.69970  0.65890  Biso   1.000  C
  H6       1.0000 0.89410  0.67720  0.62720  Biso   1.000  H
  C14      1.0000 0.85920  0.77380  0.77410  Biso   1.000  C
  H7       1.0000 0.87900  0.79510  0.82110  Biso   1.000  H
  C15      1.0000 0.37110  0.60260  0.13780  Biso   1.000  C
  H8       1.0000 0.38740  0.61870  0.18600  Biso   1.000  H
  C16      1.0000 0.35030  0.71260  0.09190  Biso   1.000  C
  C17      1.0000 0.32850  0.69030  0.02020  Biso   1.000  C
  H9       1.0000 0.31380  0.76580  0.99050  Biso   1.000  H
  C18      1.0000 0.36730  0.46960  0.11140  Biso   1.000  C
  C19      1.0000 0.35150  0.85840  0.11780  Biso   1.000  C
  C20      1.0000 0.34770  0.44710  0.03780  Biso   1.000  C
  H10      1.0000 0.34820  0.35680  0.02030  Biso   1.000  H
  C21      1.0000 0.32790  0.55660  0.99080  Biso   1.000  C
  N2       1.0000 0.31050  0.53130  0.91900  Biso   1.000  N
  H11      1.0000 0.31360  0.44680  0.90520  Biso   1.000  H
  O1       1.0000 0.38520  0.88630  0.17760  Biso   1.000  O
  O2       1.0000 0.69240  0.87920  0.76610  Biso   1.000  O
  O3       1.0000 0.37790  0.22550  0.13160  Biso   1.000  O
  O4       1.0000 0.77200  0.82470  0.86210  Biso   1.000  O
  O5       1.0000 0.41250  0.36410  0.22120  Biso   1.000  O
  O6       1.0000 0.70390  0.65420  0.54450  Biso   1.000  O
  O7       1.0000 0.31610  0.94760  0.07730  Biso   1.000  O
  O8       1.0000 0.80140  0.63970  0.52020  Biso   1.000  O
  N3       1.0000 0.96800  0.72150  0.74980  Biso   1.000  N
  H12      1.0000 0.98960  0.68260  0.72210  Biso   1.000  H
  C22      1.0000 0.21570  0.67000  0.85370  Biso   1.000  C
  C23      1.0000 0.28810  0.63230  0.86670  Biso   1.000  C
  H13      1.0000 0.29680  0.59870  0.82260  Biso   1.000  H
  H14      1.0000 0.31450  0.71630  0.87980  Biso   1.000  H
  C24      1.0000 0.00230  0.76940  0.81430  Biso   1.000  C
  H15      1.0000 0.98640  0.72340  0.85160  Biso   1.000  H
  H16      1.0000 0.99540  0.86910  0.81770  Biso   1.000  H
  C25      1.0000 0.16660  0.57160  0.85310  Biso   1.000  C
  H17      1.0000 0.17980  0.48020  0.86530  Biso   1.000  H
  C26      1.0000 0.19470  0.80490  0.83680  Biso   1.000  C
  H18      1.0000 0.22580  0.87380  0.83350  Biso   1.000  H
  C27      1.0000 0.09790  0.60160  0.83530  Biso   1.000  C
  H19      1.0000 0.06620  0.53100  0.83220  Biso   1.000  H
  C28      1.0000 0.07880  0.73780  0.82270  Biso   1.000  C
  C29      1.0000 0.12730  0.83770  0.82470  Biso   1.000  C
  H20      1.0000 0.11430  0.93060  0.81770  Biso   1.000  H
  Zn3      1.0000 0.75696  0.98084  0.93870  Biso   1.000  Zn
  Zn4      1.0000 0.40089  0.41573  0.71041  Biso   1.000  Zn
  Zn5      1.0000 0.28137  0.36299  0.57246  Biso   1.000  Zn
  N4       1.0000 0.44210  0.44380  0.81570  Biso   1.000  N
  C30      1.0000 0.48710  0.48940  0.96130  Biso   1.000  C
  C31      1.0000 0.47420  0.59800  0.91390  Biso   1.000  C
  H21      1.0000 0.48170  0.68930  0.93020  Biso   1.000  H
  C32      1.0000 0.45060  0.57320  0.84290  Biso   1.000  C
  H22      1.0000 0.44000  0.64900  0.81240  Biso   1.000  H
  C33      1.0000 0.47950  0.35520  0.93220  Biso   1.000  C
  H23      1.0000 0.49140  0.27750  0.96120  Biso   1.000  H
  C34      1.0000 0.45490  0.33870  0.86160  Biso   1.000  C
  H24      1.0000 0.44630  0.24840  0.84420  Biso   1.000  H
  C35      1.0000 0.61200  0.84840  0.34130  Biso   1.000  C
  C36      1.0000 0.23610  0.15680  0.93670  Biso   1.000  C
  C37      1.0000 0.25230  0.33250  0.70420  Biso   1.000  C
  C38      1.0000 0.23920  0.23820  0.81860  Biso   1.000  C
  H25      1.0000 0.28570  0.23690  0.83370  Biso   1.000  H
  C39      1.0000 0.20890  0.28110  0.74990  Biso   1.000  C
  C40      1.0000 0.20120  0.19830  0.86380  Biso   1.000  C
  C41      1.0000 0.10060  0.23430  0.77160  Biso   1.000  C
  C42      1.0000 0.13190  0.19970  0.84110  Biso   1.000  C
  H26      1.0000 0.10590  0.17720  0.87280  Biso   1.000  H
  C43      1.0000 0.14080  0.27380  0.72590  Biso   1.000  C
  H27      1.0000 0.12100  0.29510  0.67890  Biso   1.000  H
  C44      1.0000 0.62890  0.10260  0.36220  Biso   1.000  C
  H28      1.0000 0.61260  0.11870  0.31400  Biso   1.000  H
  C45      1.0000 0.64970  0.21260  0.40810  Biso   1.000  C
  C46      1.0000 0.67150  0.19030  0.47980  Biso   1.000  C
  H29      1.0000 0.68620  0.26580  0.50950  Biso   1.000  H
  C47      1.0000 0.63270  0.96960  0.38860  Biso   1.000  C
  C48      1.0000 0.64850  0.35840  0.38220  Biso   1.000  C
  C49      1.0000 0.65230  0.94710  0.46220  Biso   1.000  C
  H30      1.0000 0.65180  0.85680  0.47970  Biso   1.000  H
  C50      1.0000 0.67210  0.05660  0.50920  Biso   1.000  C
  N5       1.0000 0.68950  0.03130  0.58100  Biso   1.000  N
  H31      1.0000 0.68640  0.94680  0.59480  Biso   1.000  H
  O9       1.0000 0.61480  0.38630  0.32240  Biso   1.000  O
  O10      1.0000 0.30760  0.37920  0.73390  Biso   1.000  O
  O11      1.0000 0.62210  0.72550  0.36840  Biso   1.000  O
  O12      1.0000 0.22800  0.32470  0.63790  Biso   1.000  O
  O13      1.0000 0.58750  0.86410  0.27880  Biso   1.000  O
  O14      1.0000 0.29610  0.15420  0.95550  Biso   1.000  O
  O15      1.0000 0.68390  0.44760  0.42270  Biso   1.000  O
  O16      1.0000 0.19860  0.13970  0.97980  Biso   1.000  O
  N6       1.0000 0.03200  0.22150  0.75020  Biso   1.000  N
  H32      1.0000 0.01040  0.18260  0.77790  Biso   1.000  H
  C51      1.0000 0.78430  0.17000  0.64630  Biso   1.000  C
  C52      1.0000 0.71190  0.13230  0.63330  Biso   1.000  C
  H33      1.0000 0.70320  0.09870  0.67740  Biso   1.000  H
  H34      1.0000 0.68550  0.21630  0.62020  Biso   1.000  H
  C53      1.0000 0.99770  0.26940  0.68570  Biso   1.000  C
  H35      1.0000 0.01360  0.22340  0.64840  Biso   1.000  H
  H36      1.0000 0.00460  0.36910  0.68230  Biso   1.000  H
  C54      1.0000 0.83340  0.07160  0.64690  Biso   1.000  C
  H37      1.0000 0.82020  0.98020  0.63470  Biso   1.000  H
  C55      1.0000 0.80530  0.30490  0.66320  Biso   1.000  C
  H38      1.0000 0.77420  0.37380  0.66650  Biso   1.000  H
  C56      1.0000 0.90210  0.10160  0.66470  Biso   1.000  C
  H39      1.0000 0.93380  0.03100  0.66780  Biso   1.000  H
  C57      1.0000 0.92120  0.23780  0.67730  Biso   1.000  C
  C58      1.0000 0.87270  0.33770  0.67530  Biso   1.000  C
  H40      1.0000 0.88570  0.43060  0.68230  Biso   1.000  H
  Zn6      1.0000 0.24304  0.48084  0.56130  Biso   1.000  Zn
  Zn7      1.0000 0.40089  0.08427  0.21041  Biso   1.000  Zn
  Zn8      1.0000 0.28137  0.13701  0.07246  Biso   1.000  Zn
  N7       1.0000 0.44210  0.05620  0.31570  Biso   1.000  N
  C59      1.0000 0.48710  0.01060  0.46130  Biso   1.000  C
  C60      1.0000 0.47420  0.90200  0.41390  Biso   1.000  C
  H41      1.0000 0.48170  0.81070  0.43020  Biso   1.000  H
  C61      1.0000 0.45060  0.92680  0.34290  Biso   1.000  C
  H42      1.0000 0.44000  0.85100  0.31240  Biso   1.000  H
  C62      1.0000 0.47950  0.14480  0.43220  Biso   1.000  C
  H43      1.0000 0.49140  0.22250  0.46120  Biso   1.000  H
  C63      1.0000 0.45490  0.16130  0.36160  Biso   1.000  C
  H44      1.0000 0.44630  0.25160  0.34420  Biso   1.000  H
  C64      1.0000 0.61200  0.65160  0.84130  Biso   1.000  C
  C65      1.0000 0.23610  0.34320  0.43670  Biso   1.000  C
  C66      1.0000 0.25230  0.16750  0.20420  Biso   1.000  C
  C67      1.0000 0.23920  0.26180  0.31860  Biso   1.000  C
  H45      1.0000 0.28570  0.26310  0.33370  Biso   1.000  H
  C68      1.0000 0.20890  0.21890  0.24990  Biso   1.000  C
  C69      1.0000 0.20120  0.30170  0.36380  Biso   1.000  C
  C70      1.0000 0.10060  0.26570  0.27160  Biso   1.000  C
  C71      1.0000 0.13190  0.30030  0.34110  Biso   1.000  C
  H46      1.0000 0.10590  0.32280  0.37280  Biso   1.000  H
  C72      1.0000 0.14080  0.22620  0.22590  Biso   1.000  C
  H47      1.0000 0.12100  0.20490  0.17890  Biso   1.000  H
  C73      1.0000 0.62890  0.39740  0.86220  Biso   1.000  C
  H48      1.0000 0.61260  0.38130  0.81400  Biso   1.000  H
  C74      1.0000 0.64970  0.28740  0.90810  Biso   1.000  C
  C75      1.0000 0.67150  0.30970  0.97980  Biso   1.000  C
  H49      1.0000 0.68620  0.23420  0.00950  Biso   1.000  H
  C76      1.0000 0.63270  0.53040  0.88860  Biso   1.000  C
  C77      1.0000 0.64850  0.14160  0.88220  Biso   1.000  C
  C78      1.0000 0.65230  0.55290  0.96220  Biso   1.000  C
  H50      1.0000 0.65180  0.64320  0.97970  Biso   1.000  H
  C79      1.0000 0.67210  0.44340  0.00920  Biso   1.000  C
  N8       1.0000 0.68950  0.46870  0.08100  Biso   1.000  N
  H51      1.0000 0.68640  0.55320  0.09480  Biso   1.000  H
  O17      1.0000 0.61480  0.11370  0.82240  Biso   1.000  O
  O18      1.0000 0.30760  0.12080  0.23390  Biso   1.000  O
  O19      1.0000 0.62210  0.77450  0.86840  Biso   1.000  O
  O20      1.0000 0.22800  0.17530  0.13790  Biso   1.000  O
  O21      1.0000 0.58750  0.63590  0.77880  Biso   1.000  O
  O22      1.0000 0.29610  0.34580  0.45550  Biso   1.000  O
  O23      1.0000 0.68390  0.05240  0.92270  Biso   1.000  O
  O24      1.0000 0.19860  0.36030  0.47980  Biso   1.000  O
  N9       1.0000 0.03200  0.27850  0.25020  Biso   1.000  N
  H52      1.0000 0.01040  0.31740  0.27790  Biso   1.000  H
  C80      1.0000 0.78430  0.33000  0.14630  Biso   1.000  C
  C81      1.0000 0.71190  0.36770  0.13330  Biso   1.000  C
  H53      1.0000 0.70320  0.40130  0.17740  Biso   1.000  H
  H54      1.0000 0.68550  0.28370  0.12020  Biso   1.000  H
  C82      1.0000 0.99770  0.23060  0.18570  Biso   1.000  C
  H55      1.0000 0.01360  0.27660  0.14840  Biso   1.000  H
  H56      1.0000 0.00460  0.13090  0.18230  Biso   1.000  H
  C83      1.0000 0.83340  0.42840  0.14690  Biso   1.000  C
  H57      1.0000 0.82020  0.51980  0.13470  Biso   1.000  H
  C84      1.0000 0.80530  0.19510  0.16320  Biso   1.000  C
  H58      1.0000 0.77420  0.12620  0.16650  Biso   1.000  H
  C85      1.0000 0.90210  0.39840  0.16470  Biso   1.000  C
  H59      1.0000 0.93380  0.46900  0.16780  Biso   1.000  H
  C86      1.0000 0.92120  0.26220  0.17730  Biso   1.000  C
  C87      1.0000 0.87270  0.16230  0.17530  Biso   1.000  C
  H60      1.0000 0.88570  0.06940  0.18230  Biso   1.000  H
  Zn9      1.0000 0.24304  0.01916  0.06130  Biso   1.000  Zn
  Zn10     1.0000 0.59911  0.58427  0.28959  Biso   1.000  Zn
  Zn11     1.0000 0.71863  0.63701  0.42754  Biso   1.000  Zn
  N10      1.0000 0.55790  0.55620  0.18430  Biso   1.000  N
  C88      1.0000 0.51290  0.51060  0.03870  Biso   1.000  C
  C89      1.0000 0.52580  0.40200  0.08610  Biso   1.000  C
  H61      1.0000 0.51830  0.31070  0.06980  Biso   1.000  H
  C90      1.0000 0.54940  0.42680  0.15710  Biso   1.000  C
  H62      1.0000 0.56000  0.35100  0.18760  Biso   1.000  H
  C91      1.0000 0.52050  0.64480  0.06780  Biso   1.000  C
  H63      1.0000 0.50860  0.72250  0.03880  Biso   1.000  H
  C92      1.0000 0.54510  0.66130  0.13840  Biso   1.000  C
  H64      1.0000 0.55370  0.75160  0.15580  Biso   1.000  H
  C93      1.0000 0.38800  0.15160  0.65870  Biso   1.000  C
  C94      1.0000 0.76390  0.84320  0.06330  Biso   1.000  C
  C95      1.0000 0.74770  0.66750  0.29580  Biso   1.000  C
  C96      1.0000 0.76080  0.76180  0.18140  Biso   1.000  C
  H65      1.0000 0.71430  0.76310  0.16630  Biso   1.000  H
  C97      1.0000 0.79110  0.71890  0.25010  Biso   1.000  C
  C98      1.0000 0.79880  0.80170  0.13620  Biso   1.000  C
  C99      1.0000 0.89940  0.76570  0.22840  Biso   1.000  C
  C100     1.0000 0.86810  0.80030  0.15890  Biso   1.000  C
  H66      1.0000 0.89410  0.82280  0.12720  Biso   1.000  H
  C101     1.0000 0.85920  0.72620  0.27410  Biso   1.000  C
  H67      1.0000 0.87900  0.70490  0.32110  Biso   1.000  H
  C102     1.0000 0.37110  0.89740  0.63780  Biso   1.000  C
  H68      1.0000 0.38740  0.88130  0.68600  Biso   1.000  H
  C103     1.0000 0.35030  0.78740  0.59190  Biso   1.000  C
  C104     1.0000 0.32850  0.80970  0.52020  Biso   1.000  C
  H69      1.0000 0.31380  0.73420  0.49050  Biso   1.000  H
  C105     1.0000 0.36730  0.03040  0.61140  Biso   1.000  C
  C106     1.0000 0.35150  0.64160  0.61780  Biso   1.000  C
  C107     1.0000 0.34770  0.05290  0.53780  Biso   1.000  C
  H70      1.0000 0.34820  0.14320  0.52030  Biso   1.000  H
  C108     1.0000 0.32790  0.94340  0.49080  Biso   1.000  C
  N11      1.0000 0.31050  0.96870  0.41900  Biso   1.000  N
  H71      1.0000 0.31360  0.05320  0.40520  Biso   1.000  H
  O25      1.0000 0.38520  0.61370  0.67760  Biso   1.000  O
  O26      1.0000 0.69240  0.62080  0.26610  Biso   1.000  O
  O27      1.0000 0.37790  0.27450  0.63160  Biso   1.000  O
  O28      1.0000 0.77200  0.67530  0.36210  Biso   1.000  O
  O29      1.0000 0.41250  0.13590  0.72120  Biso   1.000  O
  O30      1.0000 0.70390  0.84580  0.04450  Biso   1.000  O
  O31      1.0000 0.31610  0.55240  0.57730  Biso   1.000  O
  O32      1.0000 0.80140  0.86030  0.02020  Biso   1.000  O
  N12      1.0000 0.96800  0.77850  0.24980  Biso   1.000  N
  H72      1.0000 0.98960  0.81740  0.22210  Biso   1.000  H
  C109     1.0000 0.21570  0.83000  0.35370  Biso   1.000  C
  C110     1.0000 0.28810  0.86770  0.36670  Biso   1.000  C
  H73      1.0000 0.29680  0.90130  0.32260  Biso   1.000  H
  H74      1.0000 0.31450  0.78370  0.37980  Biso   1.000  H
  C111     1.0000 0.00230  0.73060  0.31430  Biso   1.000  C
  H75      1.0000 0.98640  0.77660  0.35160  Biso   1.000  H
  H76      1.0000 0.99540  0.63090  0.31770  Biso   1.000  H
  C112     1.0000 0.16660  0.92840  0.35310  Biso   1.000  C
  H77      1.0000 0.17980  0.01980  0.36530  Biso   1.000  H
  C113     1.0000 0.19470  0.69510  0.33680  Biso   1.000  C
  H78      1.0000 0.22580  0.62620  0.33350  Biso   1.000  H
  C114     1.0000 0.09790  0.89840  0.33530  Biso   1.000  C
  H79      1.0000 0.06620  0.96900  0.33220  Biso   1.000  H
  C115     1.0000 0.07880  0.76220  0.32270  Biso   1.000  C
  C116     1.0000 0.12730  0.66230  0.32470  Biso   1.000  C
  H80      1.0000 0.11430  0.56940  0.31770  Biso   1.000  H
  Zn12     1.0000 0.75696  0.51916  0.43870  Biso   1.000  Zn
