data_image0
_cell_length_a       6.0544
_cell_length_b       12.4991
_cell_length_c       14.7539
_cell_angle_alpha    114.462
_cell_angle_beta     93.213
_cell_angle_gamma    100.177

_symmetry_space_group_name_H-M    "P 1"
_symmetry_int_tables_number       1

loop_
  _symmetry_equiv_pos_as_xyz
  'x, y, z'

loop_
  _atom_site_label
  _atom_site_occupancy
  _atom_site_fract_x
  _atom_site_fract_y
  _atom_site_fract_z
  _atom_site_thermal_displace_type
  _atom_site_B_iso_or_equiv
  _atom_site_type_symbol
  Cs1      1.0000 0.77078  0.69302  0.12405  Biso   1.000  Cs
  S1       1.0000 0.34417  0.96919  0.20551  Biso   1.000  S
  O1       1.0000 0.10220  0.95650  0.19562  Biso   1.000  O
  O2       1.0000 0.43560  0.86321  0.16177  Biso   1.000  O
  O3       1.0000 0.64950  0.39751  0.04323  Biso   1.000  O
  O4       1.0000 0.97680  0.34402  0.05781  Biso   1.000  O
  O5       1.0000 0.61140  0.29963  0.70295  Biso   1.000  O
  O6       1.0000 0.91810  0.22160  0.67343  Biso   1.000  O
  C1       1.0000 0.76770  0.33446  0.06175  Biso   1.000  C
  C2       1.0000 0.65310  0.23927  0.09263  Biso   1.000  C
  C3       1.0000 0.76200  0.14883  0.08925  Biso   1.000  C
  H1       1.0000 0.90020  0.14520  0.06480  Biso   1.000  H
  C4       1.0000 0.44430  0.24306  0.12662  Biso   1.000  C
  H2       1.0000 0.36790  0.30120  0.12610  Biso   1.000  H
  C5       1.0000 0.66770  0.06447  0.12170  Biso   1.000  C
  H3       1.0000 0.74040  0.00380  0.11910  Biso   1.000  H
  C6       1.0000 0.46180  0.07201  0.15837  Biso   1.000  C
  C7       1.0000 0.34900  0.16028  0.16152  Biso   1.000  C
  H4       1.0000 0.21160  0.16420  0.18660  Biso   1.000  H
  C8       1.0000 0.45330  0.04352  0.33516  Biso   1.000  C
  C9       1.0000 0.66190  0.02956  0.36737  Biso   1.000  C
  H5       1.0000 0.74160  0.98010  0.32180  Biso   1.000  H
  C10      1.0000 0.74870  0.09080  0.46862  Biso   1.000  C
  H6       1.0000 0.88800  0.08230  0.49140  Biso   1.000  H
  C11      1.0000 0.62970  0.16452  0.53632  Biso   1.000  C
  C12      1.0000 0.42120  0.17750  0.50331  Biso   1.000  C
  H7       1.0000 0.34090  0.22630  0.54910  Biso   1.000  H
  C13      1.0000 0.33250  0.11750  0.40177  Biso   1.000  C
  H8       1.0000 0.19420  0.12690  0.37890  Biso   1.000  H
  C14      1.0000 0.73480  0.23080  0.64461  Biso   1.000  C
  Cs2      1.0000 0.22922  0.30698  0.87595  Biso   1.000  Cs
  S2       1.0000 0.65583  0.03081  0.79449  Biso   1.000  S
  O7       1.0000 0.89780  0.04350  0.80438  Biso   1.000  O
  O8       1.0000 0.56440  0.13679  0.83823  Biso   1.000  O
  O9       1.0000 0.35050  0.60249  0.95677  Biso   1.000  O
  O10      1.0000 0.02320  0.65598  0.94219  Biso   1.000  O
  O11      1.0000 0.38860  0.70037  0.29705  Biso   1.000  O
  O12      1.0000 0.08190  0.77840  0.32657  Biso   1.000  O
  C15      1.0000 0.23230  0.66554  0.93825  Biso   1.000  C
  C16      1.0000 0.34690  0.76073  0.90737  Biso   1.000  C
  C17      1.0000 0.23800  0.85117  0.91075  Biso   1.000  C
  H9       1.0000 0.09980  0.85480  0.93520  Biso   1.000  H
  C18      1.0000 0.55570  0.75694  0.87338  Biso   1.000  C
  H10      1.0000 0.63210  0.69880  0.87390  Biso   1.000  H
  C19      1.0000 0.33230  0.93553  0.87830  Biso   1.000  C
  H11      1.0000 0.25960  0.99620  0.88090  Biso   1.000  H
  C20      1.0000 0.53820  0.92799  0.84163  Biso   1.000  C
  C21      1.0000 0.65100  0.83972  0.83848  Biso   1.000  C
  H12      1.0000 0.78840  0.83580  0.81340  Biso   1.000  H
  C22      1.0000 0.54670  0.95648  0.66484  Biso   1.000  C
  C23      1.0000 0.33810  0.97044  0.63263  Biso   1.000  C
  H13      1.0000 0.25840  0.01990  0.67820  Biso   1.000  H
  C24      1.0000 0.25130  0.90920  0.53138  Biso   1.000  C
  H14      1.0000 0.11200  0.91770  0.50860  Biso   1.000  H
  C25      1.0000 0.37030  0.83548  0.46368  Biso   1.000  C
  C26      1.0000 0.57880  0.82250  0.49669  Biso   1.000  C
  H15      1.0000 0.65910  0.77370  0.45090  Biso   1.000  H
  C27      1.0000 0.66750  0.88250  0.59823  Biso   1.000  C
  H16      1.0000 0.80580  0.87310  0.62110  Biso   1.000  H
  C28      1.0000 0.26520  0.76920  0.35539  Biso   1.000  C
