data_HISGAT_clean
_audit_creation_date              2015-10-16
_audit_creation_method            'Materials Studio'
_symmetry_space_group_name_H-M    'P1'
_symmetry_Int_Tables_number       1
_symmetry_cell_setting            triclinic
loop_
_symmetry_equiv_pos_as_xyz
  x,y,z
_cell_length_a                    13.3553
_cell_length_b                    14.5612
_cell_length_c                    23.3400
_cell_angle_alpha                 107.9460
_cell_angle_beta                  90.0000
_cell_angle_gamma                 117.2960
loop_
_atom_site_label
_atom_site_type_symbol
_atom_site_fract_x
_atom_site_fract_y
_atom_site_fract_z
_atom_site_U_iso_or_equiv
_atom_site_adp_type
_atom_site_occupancy
K1     K     0.12751   0.24354   0.93014   0.01267  Uiso   1.00
K2     K     0.18854   0.99488   0.87073   0.01267  Uiso   1.00
K3     K     0.98598   0.00000   0.75000   0.01267  Uiso   1.00
K4     K     0.87113   0.75988   0.82040   0.01267  Uiso   1.00
K5     K     0.00000   0.00000   0.50000   0.01267  Uiso   1.00
K6     K     0.88875   0.75988   0.32040   0.01267  Uiso   1.00
K7     K     0.87249   0.75646   0.06986   0.01267  Uiso   1.00
K8     K     0.19366   0.00512   0.62927   0.01267  Uiso   1.00
K9     K     0.01402   0.00000   0.25000   0.01267  Uiso   1.00
K10    K     0.11603   0.24354   0.43014   0.01267  Uiso   1.00
K11    K     0.00000   0.00000   0.00000   0.01267  Uiso   1.00
K12    K     0.81146   0.00512   0.12927   0.01267  Uiso   1.00
K13    K     0.11125   0.24012   0.67960   0.01267  Uiso   1.00
K14    K     0.88397   0.75646   0.56986   0.01267  Uiso   1.00
K15    K     0.12887   0.24012   0.17960   0.01267  Uiso   1.00
K16    K     0.80634   0.99488   0.37073   0.01267  Uiso   1.00
H1     H     0.89320   0.96760   0.88830   0.01267  Uiso   1.00
H2     H     0.07440   0.65280   0.49250   0.01267  Uiso   1.00
H3     H     0.38940   0.52240   0.94870   0.01267  Uiso   1.00
H4     H     0.78380   0.36120   0.68940   0.01267  Uiso   1.00
H5     H     0.62230   0.47780   0.30170   0.01267  Uiso   1.00
H6     H     0.40920   0.35480   0.75970   0.01267  Uiso   1.00
H7     H     0.57740   0.36120   0.18940   0.01267  Uiso   1.00
H8     H     0.59940   0.74400   0.59230   0.01267  Uiso   1.00
H9     H     0.07380   0.64360   0.23570   0.01267  Uiso   1.00
H10    H     0.15240   0.76480   0.35330   0.01267  Uiso   1.00
H11    H     0.11130   0.00700   0.36510   0.01267  Uiso   1.00
H12    H     0.41690   0.36660   0.51810   0.01267  Uiso   1.00
H13    H     0.21160   0.64060   0.56290   0.01267  Uiso   1.00
H14    H     0.85540   0.25600   0.90770   0.01267  Uiso   1.00
H15    H     0.37770   0.52220   0.69830   0.01267  Uiso   1.00
H16    H     0.42260   0.63880   0.81060   0.01267  Uiso   1.00
H17    H     0.57100   0.35940   0.93710   0.01267  Uiso   1.00
H18    H     0.58360   0.36060   0.69050   0.01267  Uiso   1.00
H19    H     0.61240   0.76480   0.85330   0.01267  Uiso   1.00
H20    H     0.40730   0.62320   0.55400   0.01267  Uiso   1.00
H21    H     0.14990   0.75860   0.84930   0.01267  Uiso   1.00
H22    H     0.39130   0.24140   0.65070   0.01267  Uiso   1.00
H23    H     0.12060   0.51040   0.94200   0.01267  Uiso   1.00
H24    H     0.89570   0.00700   0.86510   0.01267  Uiso   1.00
H25    H     0.10430   0.99300   0.13490   0.01267  Uiso   1.00
H26    H     0.59270   0.37680   0.44600   0.01267  Uiso   1.00
H27    H     0.88260   0.48160   0.30160   0.01267  Uiso   1.00
H28    H     0.21620   0.63880   0.31060   0.01267  Uiso   1.00
H29    H     0.10680   0.03240   0.11170   0.01267  Uiso   1.00
H30    H     0.85010   0.24140   0.15070   0.01267  Uiso   1.00
H31    H     0.38760   0.23520   0.14670   0.01267  Uiso   1.00
H32    H     0.59900   0.48160   0.80160   0.01267  Uiso   1.00
H33    H     0.58310   0.63340   0.48190   0.01267  Uiso   1.00
H34    H     0.61020   0.48960   0.55800   0.01267  Uiso   1.00
H35    H     0.94970   0.36660   0.01810   0.01267  Uiso   1.00
H36    H     0.40100   0.51840   0.19840   0.01267  Uiso   1.00
H37    H     0.61060   0.47760   0.05130   0.01267  Uiso   1.00
H38    H     0.14750   0.76600   0.60530   0.01267  Uiso   1.00
H39    H     0.78410   0.37680   0.94600   0.01267  Uiso   1.00
H40    H     0.77700   0.36060   0.19050   0.01267  Uiso   1.00
H41    H     0.92620   0.35640   0.76430   0.01267  Uiso   1.00
H42    H     0.14460   0.74400   0.09230   0.01267  Uiso   1.00
H43    H     0.43020   0.35640   0.26430   0.01267  Uiso   1.00
H44    H     0.40060   0.25600   0.40770   0.01267  Uiso   1.00
H45    H     0.38150   0.23400   0.89470   0.01267  Uiso   1.00
H46    H     0.88870   0.99300   0.63490   0.01267  Uiso   1.00
H47    H     0.78840   0.35940   0.43710   0.01267  Uiso   1.00
H48    H     0.57840   0.65280   0.99250   0.01267  Uiso   1.00
H49    H     0.21590   0.62320   0.05400   0.01267  Uiso   1.00
H50    H     0.41640   0.63940   0.30950   0.01267  Uiso   1.00
H51    H     0.42900   0.64060   0.06290   0.01267  Uiso   1.00
H52    H     0.11740   0.51840   0.69840   0.01267  Uiso   1.00
H53    H     0.92560   0.03240   0.61170   0.01267  Uiso   1.00
H54    H     0.92560   0.34720   0.50750   0.01267  Uiso   1.00
H55    H     0.86700   0.47760   0.55130   0.01267  Uiso   1.00
H56    H     0.22300   0.63940   0.80950   0.01267  Uiso   1.00
H57    H     0.07440   0.96760   0.38830   0.01267  Uiso   1.00
H58    H     0.05030   0.63340   0.98190   0.01267  Uiso   1.00
H59    H     0.56980   0.64360   0.73570   0.01267  Uiso   1.00
H60    H     0.85250   0.23400   0.39470   0.01267  Uiso   1.00
H61    H     0.05440   0.64520   0.74030   0.01267  Uiso   1.00
H62    H     0.60870   0.75860   0.34930   0.01267  Uiso   1.00
H63    H     0.13300   0.52240   0.44870   0.01267  Uiso   1.00
H64    H     0.87940   0.48960   0.05800   0.01267  Uiso   1.00
H65    H     0.42160   0.34720   0.00750   0.01267  Uiso   1.00
H66    H     0.14450   0.52220   0.19830   0.01267  Uiso   1.00
H67    H     0.59080   0.64520   0.24030   0.01267  Uiso   1.00
H68    H     0.94560   0.35480   0.25970   0.01267  Uiso   1.00
H69    H     0.61850   0.76600   0.10530   0.01267  Uiso   1.00
H70    H     0.38980   0.51040   0.44200   0.01267  Uiso   1.00
H71    H     0.84760   0.23520   0.64670   0.01267  Uiso   1.00
H72    H     0.85550   0.47780   0.80170   0.01267  Uiso   1.00
C1     C     0.55814   0.64508   0.20508   0.01267  Uiso   1.00
C2     C     0.11046   0.72412   0.42843   0.01267  Uiso   1.00
C3     C     0.87606   0.43132   0.32010   0.01267  Uiso   1.00
C4     C     0.54955   0.63470   0.44750   0.01267  Uiso   1.00
C5     C     0.18811   0.56242   0.12264   0.01267  Uiso   1.00
C6     C     0.37709   0.27898   0.82168   0.01267  Uiso   1.00
C7     C     0.60241   0.43182   0.87296   0.01267  Uiso   1.00
C8     C     0.10501   0.70782   0.16873   0.01267  Uiso   1.00
C9     C     0.06384   0.80868   0.70704   0.01267  Uiso   1.00
C10    C     0.72808   0.79356   0.69530   0.01267  Uiso   1.00
C11    C     0.18034   0.64168   0.59860   0.01267  Uiso   1.00
C12    C     0.44956   0.63832   0.34420   0.01267  Uiso   1.00
C13    C     0.85723   0.28286   0.37550   0.01267  Uiso   1.00
C14    C     0.18796   0.62772   0.09070   0.01267  Uiso   1.00
C15    C     0.61451   0.43442   0.62689   0.01267  Uiso   1.00
C16    C     0.93616   0.19132   0.29296   0.01267  Uiso   1.00
C17    C     0.43555   0.29050   0.63170   0.01267  Uiso   1.00
C18    C     0.15052   0.71764   0.37310   0.01267  Uiso   1.00
C19    C     0.37431   0.56242   0.62264   0.01267  Uiso   1.00
C20    C     0.57788   0.43276   0.32276   0.01267  Uiso   1.00
C21    C     0.12394   0.56868   0.67990   0.01267  Uiso   1.00
C22    C     0.43976   0.62772   0.59070   0.01267  Uiso   1.00
C23    C     0.56637   0.42774   0.06986   0.01267  Uiso   1.00
C24    C     0.18778   0.64156   0.34710   0.01267  Uiso   1.00
C25    C     0.08694   0.64508   0.70508   0.01267  Uiso   1.00
C26    C     0.18009   0.56558   0.87311   0.01267  Uiso   1.00
C27    C     0.56712   0.71764   0.87310   0.01267  Uiso   1.00
C28    C     0.81124   0.36168   0.15580   0.01267  Uiso   1.00
C29    C     0.39719   0.29218   0.33127   0.01267  Uiso   1.00
C30    C     0.27192   0.20644   0.30470   0.01267  Uiso   1.00
C31    C     0.17059   0.56818   0.62704   0.01267  Uiso   1.00
C32    C     0.09811   0.72102   0.67832   0.01267  Uiso   1.00
C33    C     0.26531   0.18662   0.04210   0.01267  Uiso   1.00
C34    C     0.38820   0.57040   0.87599   0.01267  Uiso   1.00
C35    C     0.12761   0.56122   0.92384   0.01267  Uiso   1.00
C36    C     0.10317   0.65034   0.45613   0.01267  Uiso   1.00
C37    C     0.81780   0.42960   0.62401   0.01267  Uiso   1.00
C38    C     0.39759   0.56818   0.12704   0.01267  Uiso   1.00
C39    C     0.86137   0.42774   0.56986   0.01267  Uiso   1.00
C40    C     0.46325   0.35990   0.30048   0.01267  Uiso   1.00
C41    C     0.57437   0.71714   0.12450   0.01267  Uiso   1.00
C42    C     0.43288   0.28236   0.12690   0.01267  Uiso   1.00
C43    C     0.42563   0.28286   0.87550   0.01267  Uiso   1.00
C44    C     0.14505   0.70950   0.86830   0.01267  Uiso   1.00
C45    C     0.91485   0.36530   0.05250   0.01267  Uiso   1.00
C46    C     0.44474   0.56868   0.17990   0.01267  Uiso   1.00
C47    C     0.85432   0.29984   0.88620   0.01267  Uiso   1.00
C48    C     0.44552   0.29984   0.38620   0.01267  Uiso   1.00
C49    C     0.54622   0.35844   0.15290   0.01267  Uiso   1.00
C50    C     0.38549   0.56558   0.37311   0.01267  Uiso   1.00
C51    C     0.06548   0.79356   0.19530   0.01267  Uiso   1.00
C52    C     0.93452   0.20644   0.80470   0.01267  Uiso   1.00
C53    C     0.81991   0.43442   0.12689   0.01267  Uiso   1.00
C54    C     0.56024   0.37228   0.40930   0.01267  Uiso   1.00
C55    C     0.87239   0.43878   0.07616   0.01267  Uiso   1.00
C56    C     0.81966   0.35832   0.40140   0.01267  Uiso   1.00
C57    C     0.08515   0.63470   0.94750   0.01267  Uiso   1.00
C58    C     0.84948   0.28236   0.62690   0.01267  Uiso   1.00
C59    C     0.62291   0.72102   0.17832   0.01267  Uiso   1.00
C60    C     0.14277   0.71714   0.62450   0.01267  Uiso   1.00
C61    C     0.44186   0.35492   0.79492   0.01267  Uiso   1.00
C62    C     0.94715   0.20810   0.05300   0.01267  Uiso   1.00
C63    C     0.90526   0.29072   0.08030   0.01267  Uiso   1.00
C64    C     0.09474   0.70928   0.91970   0.01267  Uiso   1.00
C65    C     0.53675   0.64010   0.69952   0.01267  Uiso   1.00
C66    C     0.25516   0.19132   0.79296   0.01267  Uiso   1.00
C67    C     0.81189   0.43758   0.87736   0.01267  Uiso   1.00
C68    C     0.89499   0.29218   0.83127   0.01267  Uiso   1.00
C69    C     0.92131   0.18662   0.54210   0.01267  Uiso   1.00
C70    C     0.61366   0.72412   0.92843   0.01267  Uiso   1.00
C71    C     0.55448   0.70016   0.61380   0.01267  Uiso   1.00
C72    C     0.53866   0.35832   0.90140   0.01267  Uiso   1.00
C73    C     0.85495   0.29050   0.13170   0.01267  Uiso   1.00
C74    C     0.61180   0.42960   0.12401   0.01267  Uiso   1.00
C75    C     0.13863   0.57226   0.43014   0.01267  Uiso   1.00
C76    C     0.89665   0.35990   0.80048   0.01267  Uiso   1.00
C77    C     0.85488   0.43276   0.82276   0.01267  Uiso   1.00
C78    C     0.45045   0.36530   0.55250   0.01267  Uiso   1.00
C79    C     0.14568   0.70016   0.11380   0.01267  Uiso   1.00
C80    C     0.56639   0.43878   0.57616   0.01267  Uiso   1.00
C81    C     0.38546   0.29072   0.58030   0.01267  Uiso   1.00
C82    C     0.62569   0.43758   0.37736   0.01267  Uiso   1.00
C83    C     0.43363   0.57226   0.93014   0.01267  Uiso   1.00
C84    C     0.89683   0.34966   0.54387   0.01267  Uiso   1.00
C85    C     0.81222   0.35844   0.65290   0.01267  Uiso   1.00
C86    C     0.90189   0.27898   0.32168   0.01267  Uiso   1.00
C87    C     0.73905   0.79190   0.44700   0.01267  Uiso   1.00
C88    C     0.26095   0.20810   0.55300   0.01267  Uiso   1.00
C89    C     0.43361   0.56122   0.42384   0.01267  Uiso   1.00
C90    C     0.73469   0.81338   0.95790   0.01267  Uiso   1.00
C91    C     0.18876   0.63832   0.84420   0.01267  Uiso   1.00
C92    C     0.38634   0.27588   0.07157   0.01267  Uiso   1.00
C93    C     0.61454   0.70928   0.41970   0.01267  Uiso   1.00
C94    C     0.81204   0.37228   0.90930   0.01267  Uiso   1.00
C95    C     0.05285   0.79190   0.94700   0.01267  Uiso   1.00
C96    C     0.91306   0.35492   0.29492   0.01267  Uiso   1.00
C97    C     0.10335   0.64010   0.19952   0.01267  Uiso   1.00
C98    C     0.56445   0.70950   0.36830   0.01267  Uiso   1.00
C99    C     0.42212   0.56724   0.67724   0.01267  Uiso   1.00
C100   C     0.46134   0.64168   0.09860   0.01267  Uiso   1.00
C101   C     0.54717   0.65034   0.95613   0.01267  Uiso   1.00
C102   C     0.14512   0.56724   0.17724   0.01267  Uiso   1.00
C103   C     0.18220   0.57040   0.37599   0.01267  Uiso   1.00
C104   C     0.74484   0.80868   0.20704   0.01267  Uiso   1.00
C105   C     0.45283   0.34966   0.04387   0.01267  Uiso   1.00
C106   C     0.07869   0.81338   0.45790   0.01267  Uiso   1.00
C107   C     0.82941   0.43182   0.37296   0.01267  Uiso   1.00
C108   C     0.55044   0.36168   0.65580   0.01267  Uiso   1.00
C109   C     0.55526   0.43132   0.82010   0.01267  Uiso   1.00
C110   C     0.45378   0.64156   0.84710   0.01267  Uiso   1.00
C111   C     0.60281   0.70782   0.66873   0.01267  Uiso   1.00
C112   C     0.88954   0.27588   0.57157   0.01267  Uiso   1.00
S1     S     0.25115   0.47730   0.09603   0.01267  Uiso   1.00
S2     S     0.22615   0.47730   0.59603   0.01267  Uiso   1.00
S3     S     0.23734   0.47964   0.34524   0.01267  Uiso   1.00
S4     S     0.74885   0.52270   0.90397   0.01267  Uiso   1.00
S5     S     0.76266   0.52036   0.65476   0.01267  Uiso   1.00
S6     S     0.77385   0.52270   0.40397   0.01267  Uiso   1.00
S7     S     0.24230   0.47964   0.84524   0.01267  Uiso   1.00
S8     S     0.75770   0.52036   0.15476   0.01267  Uiso   1.00
O1     O     0.20609   0.13958   0.07593   0.01267  Uiso   1.00
O2     O     0.23942   0.44664   0.03052   0.01267  Uiso   1.00
O3     O     0.77007   0.55034   0.22030   0.01267  Uiso   1.00
O4     O     0.93349   0.13958   0.57593   0.01267  Uiso   1.00
O5     O     0.05063   0.84686   0.91491   0.01267  Uiso   1.00
O6     O     0.78340   0.84340   0.66143   0.01267  Uiso   1.00
O7     O     0.04622   0.99784   0.12479   0.01267  Uiso   1.00
O8     O     0.05188   0.82736   0.76174   0.01267  Uiso   1.00
O9     O     0.77412   0.80004   0.49827   0.01267  Uiso   1.00
O10    O     0.79391   0.86042   0.92407   0.01267  Uiso   1.00
O11    O     0.94855   0.14310   0.32654   0.01267  Uiso   1.00
O12    O     0.94000   0.15660   0.83857   0.01267  Uiso   1.00
O13    O     0.19455   0.14310   0.82654   0.01267  Uiso   1.00
O14    O     0.23667   0.19294   0.25227   0.01267  Uiso   1.00
O15    O     0.94937   0.15314   0.08509   0.01267  Uiso   1.00
O16    O     0.22588   0.19996   0.50173   0.01267  Uiso   1.00
O17    O     0.23546   0.16652   0.98692   0.01267  Uiso   1.00
O18    O     0.93106   0.16652   0.48692   0.01267  Uiso   1.00
O19    O     0.79035   0.60690   0.87700   0.01267  Uiso   1.00
O20    O     0.18345   0.39310   0.62300   0.01267  Uiso   1.00
O21    O     0.06894   0.83348   0.51308   0.01267  Uiso   1.00
O22    O     0.20377   0.15314   0.58509   0.01267  Uiso   1.00
O23    O     0.05145   0.85690   0.67346   0.01267  Uiso   1.00
O24    O     0.94812   0.17264   0.23826   0.01267  Uiso   1.00
O25    O     0.80545   0.85690   0.17346   0.01267  Uiso   1.00
O26    O     0.19482   0.39524   0.37196   0.01267  Uiso   1.00
O27    O     0.22993   0.44966   0.77970   0.01267  Uiso   1.00
O28    O     0.76333   0.80706   0.74773   0.01267  Uiso   1.00
O29    O     0.78027   0.55034   0.72030   0.01267  Uiso   1.00
O30    O     0.81655   0.60690   0.37700   0.01267  Uiso   1.00
O31    O     0.95627   0.19294   0.75227   0.01267  Uiso   1.00
O32    O     0.21660   0.15660   0.33857   0.01267  Uiso   1.00
O33    O     0.21973   0.44966   0.27970   0.01267  Uiso   1.00
O34    O     0.06000   0.84340   0.16143   0.01267  Uiso   1.00
O35    O     0.97408   0.19996   0.00173   0.01267  Uiso   1.00
O36    O     0.20042   0.39524   0.87196   0.01267  Uiso   1.00
O37    O     0.22452   0.17264   0.73826   0.01267  Uiso   1.00
O38    O     0.20965   0.39310   0.12300   0.01267  Uiso   1.00
O39    O     0.77548   0.82736   0.26174   0.01267  Uiso   1.00
O40    O     0.79623   0.84686   0.41491   0.01267  Uiso   1.00
O41    O     0.20722   0.44664   0.53052   0.01267  Uiso   1.00
O42    O     0.02592   0.80004   0.99827   0.01267  Uiso   1.00
O43    O     0.76058   0.55336   0.96948   0.01267  Uiso   1.00
O44    O     0.04373   0.80706   0.24773   0.01267  Uiso   1.00
O45    O     0.79958   0.60476   0.12804   0.01267  Uiso   1.00
O46    O     0.95378   0.00216   0.87521   0.01267  Uiso   1.00
O47    O     0.80518   0.60476   0.62804   0.01267  Uiso   1.00
O48    O     0.76454   0.83348   0.01308   0.01267  Uiso   1.00
O49    O     0.95162   0.99784   0.62479   0.01267  Uiso   1.00
O50    O     0.04838   0.00216   0.37521   0.01267  Uiso   1.00
O51    O     0.06651   0.86042   0.42407   0.01267  Uiso   1.00
O52    O     0.79278   0.55336   0.46948   0.01267  Uiso   1.00
