data_image0
_cell_length_a       12.949
_cell_length_b       13.869
_cell_length_c       27.972
_cell_angle_alpha    104.315
_cell_angle_beta     98.301
_cell_angle_gamma    94.349

_symmetry_space_group_name_H-M    "P 1"
_symmetry_int_tables_number       1

loop_
  _symmetry_equiv_pos_as_xyz
  'x, y, z'

loop_
  _atom_site_label
  _atom_site_occupancy
  _atom_site_fract_x
  _atom_site_fract_y
  _atom_site_fract_z
  _atom_site_thermal_displace_type
  _atom_site_B_iso_or_equiv
  _atom_site_type_symbol
  Eu1      1.0000 0.61955  0.07470  0.55395  Biso   1.000  Eu
  Eu2      1.0000 0.01589  0.10482  0.08637  Biso   1.000  Eu
  Eu3      1.0000 0.53139  0.56414  0.93921  Biso   1.000  Eu
  Eu4      1.0000 0.02882  0.45434  0.41526  Biso   1.000  Eu
  C1       1.0000 0.57100  0.10070  0.43529  Biso   1.000  C
  C2       1.0000 0.65070  0.63260  0.06363  Biso   1.000  C
  O1       1.0000 0.09820  0.97367  0.04556  Biso   1.000  O
  O2       1.0000 0.48170  0.05070  0.42273  Biso   1.000  O
  C3       1.0000 0.13190  0.89920  0.02108  Biso   1.000  C
  C4       1.0000 0.20000  0.84030  0.04819  Biso   1.000  C
  O3       1.0000 0.88750  0.95189  0.06672  Biso   1.000  O
  O4       1.0000 0.05390  0.71890  0.40336  Biso   1.000  O
  O5       1.0000 0.62400  0.64881  0.02162  Biso   1.000  O
  O6       1.0000 0.63110  0.11120  0.47552  Biso   1.000  O
  C5       1.0000 0.39970  0.82650  0.25822  Biso   1.000  C
  H1       1.0000 0.46330  0.81640  0.27540  Biso   1.000  H
  C6       1.0000 0.73410  0.25790  0.37465  Biso   1.000  C
  C7       1.0000 0.56620  0.19980  0.31981  Biso   1.000  C
  C8       1.0000 0.48970  0.20090  0.27527  Biso   1.000  C
  C9       1.0000 0.90150  0.62610  0.23027  Biso   1.000  C
  H2       1.0000 0.87680  0.57490  0.20150  Biso   1.000  H
  C10      1.0000 0.90080  0.82850  0.16715  Biso   1.000  C
  H3       1.0000 0.95500  0.87160  0.18950  Biso   1.000  H
  O7       1.0000 0.90507  0.31624  0.42347  Biso   1.000  O
  O8       1.0000 0.99490  0.98900  0.13915  Biso   1.000  O
  O9       1.0000 0.89820  0.52370  0.45727  Biso   1.000  O
  C11      1.0000 0.85560  0.74670  0.18048  Biso   1.000  C
  O10      1.0000 0.17420  0.14960  0.14169  Biso   1.000  O
  O11      1.0000 0.45290  0.53400  0.14513  Biso   1.000  O
  O12      1.0000 0.70260  0.92526  0.52585  Biso   1.000  O
  C12      1.0000 0.64300  0.87660  0.48704  Biso   1.000  C
  C13      1.0000 0.53850  0.14730  0.35398  Biso   1.000  C
  H4       1.0000 0.47350  0.10880  0.34710  Biso   1.000  H
  O13      1.0000 0.27870  0.93020  0.36428  Biso   1.000  O
  O14      1.0000 0.41370  0.84500  0.36130  Biso   1.000  O
  O15      1.0000 0.39180  0.64700  0.97411  Biso   1.000  O
  C14      1.0000 0.67590  0.78180  0.45724  Biso   1.000  C
  O16      1.0000 0.61040  0.56215  0.07825  Biso   1.000  O
  O17      1.0000 0.55620  0.90492  0.47233  Biso   1.000  O
  C15      1.0000 0.50410  0.59640  0.25034  Biso   1.000  C
  H5       1.0000 0.44100  0.61230  0.23540  Biso   1.000  H
  C16      1.0000 0.33260  0.21470  0.19731  Biso   1.000  C
  O18      1.0000 0.87360  0.61940  0.52893  Biso   1.000  O
  O19      1.0000 0.86030  0.37580  0.35833  Biso   1.000  O
  C17      1.0000 0.66510  0.25580  0.33167  Biso   1.000  C
  H6       1.0000 0.68500  0.29250  0.31010  Biso   1.000  H
  O20      1.0000 0.00920  0.55920  0.36359  Biso   1.000  O
  C18      1.0000 0.31390  0.71080  0.04474  Biso   1.000  C
  C19      1.0000 0.93630  0.79850  0.27159  Biso   1.000  C
  H7       1.0000 0.93460  0.86530  0.27130  Biso   1.000  H
  C20      1.0000 0.78410  0.64780  0.45586  Biso   1.000  C
  C21      1.0000 0.41820  0.11980  0.24989  Biso   1.000  C
  H8       1.0000 0.42140  0.05970  0.25880  Biso   1.000  H
  O21      1.0000 0.56720  0.42680  0.14168  Biso   1.000  O
  C22      1.0000 0.24380  0.22550  0.15945  Biso   1.000  C
  O22      1.0000 0.40020  0.56478  0.03259  Biso   1.000  O
  O23      1.0000 0.11370  0.86850  0.97435  Biso   1.000  O
  C23      1.0000 0.01740  0.65060  0.36476  Biso   1.000  C
  C24      1.0000 0.85740  0.59400  0.48235  Biso   1.000  C
  C25      1.0000 0.94090  0.60200  0.27369  Biso   1.000  C
  H9       1.0000 0.94260  0.53520  0.27400  Biso   1.000  H
  C26      1.0000 0.60650  0.15190  0.39781  Biso   1.000  C
  C27      1.0000 0.53750  0.63480  0.30174  Biso   1.000  C
  H10      1.0000 0.49610  0.67550  0.32060  Biso   1.000  H
  O24      1.0000 0.23980  0.30600  0.14755  Biso   1.000  O
  C28      1.0000 0.28950  0.82080  0.18029  Biso   1.000  C
  C29      1.0000 0.21340  0.85770  0.09969  Biso   1.000  C
  H11      1.0000 0.18060  0.90820  0.11810  Biso   1.000  H
  C30      1.0000 0.86670  0.84680  0.12138  Biso   1.000  C
  C31      1.0000 0.67070  0.65510  0.37970  Biso   1.000  C
  C32      1.0000 0.37260  0.63420  0.01507  Biso   1.000  C
  C33      1.0000 0.40600  0.29610  0.22181  Biso   1.000  C
  H12      1.0000 0.40370  0.35550  0.21210  Biso   1.000  H
  C34      1.0000 0.32120  0.86050  0.28423  Biso   1.000  C
  C35      1.0000 0.89780  0.72420  0.22828  Biso   1.000  C
  C36      1.0000 0.48270  0.29020  0.26056  Biso   1.000  C
  H13      1.0000 0.53040  0.34630  0.27710  Biso   1.000  H
  C37      1.0000 0.56210  0.53600  0.22162  Biso   1.000  C
  C38      1.0000 0.34120  0.12630  0.21121  Biso   1.000  C
  H14      1.0000 0.29440  0.07000  0.19420  Biso   1.000  H
  C39      1.0000 0.27440  0.80140  0.12443  Biso   1.000  C
  C40      1.0000 0.63540  0.74100  0.40687  Biso   1.000  C
  H15      1.0000 0.58410  0.77140  0.39110  Biso   1.000  H
  C41      1.0000 0.32290  0.72530  0.09646  Biso   1.000  C
  H16      1.0000 0.36100  0.68430  0.11230  Biso   1.000  H
  C42      1.0000 0.38420  0.80760  0.20715  Biso   1.000  C
  H17      1.0000 0.43800  0.78550  0.19000  Biso   1.000  H
  C43      1.0000 0.97710  0.77550  0.31535  Biso   1.000  C
  H18      1.0000 0.00400  0.82700  0.34380  Biso   1.000  H
  C44      1.0000 0.70390  0.20720  0.40814  Biso   1.000  C
  H19      1.0000 0.74930  0.21040  0.43760  Biso   1.000  H
  C45      1.0000 0.78580  0.78360  0.08755  Biso   1.000  C
  H20      1.0000 0.76390  0.79550  0.05660  Biso   1.000  H
  C46      1.0000 0.75020  0.73490  0.48144  Biso   1.000  C
  H21      1.0000 0.77730  0.76250  0.51520  Biso   1.000  H
  C47      1.0000 0.73760  0.70230  0.10025  Biso   1.000  C
  C48      1.0000 0.83940  0.31980  0.38589  Biso   1.000  C
  C49      1.0000 0.63150  0.61330  0.32503  Biso   1.000  C
  C50      1.0000 0.25200  0.76810  0.02084  Biso   1.000  C
  H22      1.0000 0.24550  0.75800  0.98640  Biso   1.000  H
  C51      1.0000 0.97840  0.67800  0.31733  Biso   1.000  C
  C52      1.0000 0.65130  0.50810  0.24461  Biso   1.000  C
  H23      1.0000 0.68880  0.46260  0.22590  Biso   1.000  H
  C53      1.0000 0.77240  0.68490  0.14624  Biso   1.000  C
  H24      1.0000 0.73970  0.63080  0.15470  Biso   1.000  H
  C54      1.0000 0.68650  0.54720  0.29572  Biso   1.000  C
  H25      1.0000 0.74820  0.52850  0.31050  Biso   1.000  H
  C55      1.0000 0.52590  0.49630  0.16626  Biso   1.000  C
  C56      1.0000 0.21160  0.85510  0.20686  Biso   1.000  C
  H26      1.0000 0.14770  0.86480  0.18980  Biso   1.000  H
  C57      1.0000 0.74570  0.60990  0.40480  Biso   1.000  C
  H27      1.0000 0.77070  0.55310  0.38710  Biso   1.000  H
  C58      1.0000 0.91950  0.93410  0.10850  Biso   1.000  C
  C59      1.0000 0.22770  0.87530  0.25851  Biso   1.000  C
  H28      1.0000 0.17480  0.89910  0.27590  Biso   1.000  H
  C60      1.0000 0.33970  0.88010  0.34034  Biso   1.000  C
  Eu5      1.0000 0.38045  0.92530  0.44605  Biso   1.000  Eu
  Eu6      1.0000 0.98411  0.89518  0.91363  Biso   1.000  Eu
  Eu7      1.0000 0.46862  0.43586  0.06079  Biso   1.000  Eu
  Eu8      1.0000 0.97118  0.54566  0.58474  Biso   1.000  Eu
  C61      1.0000 0.42900  0.89930  0.56471  Biso   1.000  C
  C62      1.0000 0.34930  0.36740  0.93637  Biso   1.000  C
  O25      1.0000 0.90180  0.02633  0.95444  Biso   1.000  O
  O26      1.0000 0.51830  0.94930  0.57727  Biso   1.000  O
  C63      1.0000 0.86810  0.10080  0.97892  Biso   1.000  C
  C64      1.0000 0.80000  0.15970  0.95181  Biso   1.000  C
  O27      1.0000 0.11250  0.04811  0.93328  Biso   1.000  O
  O28      1.0000 0.94610  0.28110  0.59664  Biso   1.000  O
  O29      1.0000 0.37600  0.35119  0.97838  Biso   1.000  O
  O30      1.0000 0.36890  0.88880  0.52448  Biso   1.000  O
  C65      1.0000 0.60030  0.17350  0.74178  Biso   1.000  C
  H29      1.0000 0.53670  0.18360  0.72460  Biso   1.000  H
  C66      1.0000 0.26590  0.74210  0.62535  Biso   1.000  C
  C67      1.0000 0.43380  0.80020  0.68019  Biso   1.000  C
  C68      1.0000 0.51030  0.79910  0.72473  Biso   1.000  C
  C69      1.0000 0.09850  0.37390  0.76973  Biso   1.000  C
  H30      1.0000 0.12320  0.42510  0.79850  Biso   1.000  H
  C70      1.0000 0.09920  0.17150  0.83285  Biso   1.000  C
  H31      1.0000 0.04500  0.12840  0.81050  Biso   1.000  H
  O31      1.0000 0.09493  0.68376  0.57653  Biso   1.000  O
  O32      1.0000 0.00510  0.01100  0.86085  Biso   1.000  O
  O33      1.0000 0.10180  0.47630  0.54273  Biso   1.000  O
  C71      1.0000 0.14440  0.25330  0.81952  Biso   1.000  C
  O34      1.0000 0.82580  0.85040  0.85831  Biso   1.000  O
  O35      1.0000 0.54710  0.46600  0.85487  Biso   1.000  O
  O36      1.0000 0.29740  0.07474  0.47415  Biso   1.000  O
  C72      1.0000 0.35700  0.12340  0.51296  Biso   1.000  C
  C73      1.0000 0.46150  0.85270  0.64602  Biso   1.000  C
  H32      1.0000 0.52650  0.89120  0.65290  Biso   1.000  H
  O37      1.0000 0.72130  0.06980  0.63572  Biso   1.000  O
  O38      1.0000 0.58630  0.15500  0.63870  Biso   1.000  O
  O39      1.0000 0.60820  0.35300  0.02589  Biso   1.000  O
  C74      1.0000 0.32410  0.21820  0.54276  Biso   1.000  C
  O40      1.0000 0.38960  0.43785  0.92175  Biso   1.000  O
  O41      1.0000 0.44380  0.09508  0.52767  Biso   1.000  O
  C75      1.0000 0.49590  0.40360  0.74966  Biso   1.000  C
  H33      1.0000 0.55900  0.38770  0.76460  Biso   1.000  H
  C76      1.0000 0.66740  0.78530  0.80269  Biso   1.000  C
  O42      1.0000 0.12640  0.38060  0.47107  Biso   1.000  O
  O43      1.0000 0.13970  0.62420  0.64167  Biso   1.000  O
  C77      1.0000 0.33490  0.74420  0.66833  Biso   1.000  C
  H34      1.0000 0.31500  0.70750  0.68990  Biso   1.000  H
  O44      1.0000 0.99080  0.44080  0.63641  Biso   1.000  O
  C78      1.0000 0.68610  0.28920  0.95526  Biso   1.000  C
  C79      1.0000 0.06370  0.20150  0.72841  Biso   1.000  C
  H35      1.0000 0.06540  0.13470  0.72870  Biso   1.000  H
  C80      1.0000 0.21590  0.35220  0.54414  Biso   1.000  C
  C81      1.0000 0.58180  0.88020  0.75011  Biso   1.000  C
  H36      1.0000 0.57860  0.94030  0.74120  Biso   1.000  H
  O45      1.0000 0.43280  0.57320  0.85832  Biso   1.000  O
  C82      1.0000 0.75620  0.77450  0.84055  Biso   1.000  C
  O46      1.0000 0.59980  0.43522  0.96741  Biso   1.000  O
  O47      1.0000 0.88630  0.13150  0.02565  Biso   1.000  O
  C83      1.0000 0.98260  0.34940  0.63524  Biso   1.000  C
  C84      1.0000 0.14260  0.40600  0.51765  Biso   1.000  C
  C85      1.0000 0.05910  0.39800  0.72631  Biso   1.000  C
  H37      1.0000 0.05740  0.46480  0.72600  Biso   1.000  H
  C86      1.0000 0.39350  0.84810  0.60219  Biso   1.000  C
  C87      1.0000 0.46250  0.36520  0.69826  Biso   1.000  C
  H38      1.0000 0.50390  0.32450  0.67940  Biso   1.000  H
  O48      1.0000 0.76020  0.69400  0.85245  Biso   1.000  O
  C88      1.0000 0.71050  0.17920  0.81971  Biso   1.000  C
  C89      1.0000 0.78660  0.14230  0.90031  Biso   1.000  C
  H39      1.0000 0.81940  0.09180  0.88190  Biso   1.000  H
  C90      1.0000 0.13330  0.15320  0.87862  Biso   1.000  C
  C91      1.0000 0.32930  0.34490  0.62030  Biso   1.000  C
  C92      1.0000 0.62740  0.36580  0.98493  Biso   1.000  C
  C93      1.0000 0.59400  0.70390  0.77819  Biso   1.000  C
  H40      1.0000 0.59630  0.64450  0.78790  Biso   1.000  H
  C94      1.0000 0.67880  0.13950  0.71577  Biso   1.000  C
  C95      1.0000 0.10220  0.27580  0.77172  Biso   1.000  C
  C96      1.0000 0.51730  0.70980  0.73944  Biso   1.000  C
  H41      1.0000 0.46960  0.65370  0.72290  Biso   1.000  H
  C97      1.0000 0.43790  0.46400  0.77838  Biso   1.000  C
  C98      1.0000 0.65880  0.87370  0.78879  Biso   1.000  C
  H42      1.0000 0.70560  0.93000  0.80580  Biso   1.000  H
  C99      1.0000 0.72560  0.19860  0.87557  Biso   1.000  C
  C100     1.0000 0.36460  0.25900  0.59313  Biso   1.000  C
  H43      1.0000 0.41590  0.22860  0.60890  Biso   1.000  H
  C101     1.0000 0.67710  0.27470  0.90354  Biso   1.000  C
  H44      1.0000 0.63900  0.31570  0.88770  Biso   1.000  H
  C102     1.0000 0.61580  0.19240  0.79285  Biso   1.000  C
  H45      1.0000 0.56200  0.21450  0.81000  Biso   1.000  H
  C103     1.0000 0.02290  0.22450  0.68465  Biso   1.000  C
  H46      1.0000 0.99600  0.17300  0.65620  Biso   1.000  H
  C104     1.0000 0.29610  0.79280  0.59186  Biso   1.000  C
  H47      1.0000 0.25070  0.78960  0.56240  Biso   1.000  H
  C105     1.0000 0.21420  0.21640  0.91245  Biso   1.000  C
  H48      1.0000 0.23610  0.20450  0.94340  Biso   1.000  H
  C106     1.0000 0.24980  0.26510  0.51856  Biso   1.000  C
  H49      1.0000 0.22270  0.23750  0.48480  Biso   1.000  H
  C107     1.0000 0.26240  0.29770  0.89975  Biso   1.000  C
  C108     1.0000 0.16060  0.68020  0.61411  Biso   1.000  C
  C109     1.0000 0.36850  0.38670  0.67497  Biso   1.000  C
  C110     1.0000 0.74800  0.23190  0.97916  Biso   1.000  C
  H50      1.0000 0.75450  0.24200  0.01360  Biso   1.000  H
  C111     1.0000 0.02160  0.32200  0.68267  Biso   1.000  C
  C112     1.0000 0.34870  0.49190  0.75539  Biso   1.000  C
  H51      1.0000 0.31120  0.53740  0.77410  Biso   1.000  H
  C113     1.0000 0.22760  0.31510  0.85376  Biso   1.000  C
  H52      1.0000 0.26030  0.36920  0.84530  Biso   1.000  H
  C114     1.0000 0.31350  0.45280  0.70428  Biso   1.000  C
  H53      1.0000 0.25180  0.47150  0.68950  Biso   1.000  H
  C115     1.0000 0.47410  0.50370  0.83374  Biso   1.000  C
  C116     1.0000 0.78840  0.14490  0.79314  Biso   1.000  C
  H54      1.0000 0.85230  0.13520  0.81020  Biso   1.000  H
  C117     1.0000 0.25430  0.39010  0.59520  Biso   1.000  C
  H55      1.0000 0.22930  0.44690  0.61290  Biso   1.000  H
  C118     1.0000 0.08050  0.06590  0.89150  Biso   1.000  C
  C119     1.0000 0.77230  0.12470  0.74149  Biso   1.000  C
  H56      1.0000 0.82520  0.10090  0.72410  Biso   1.000  H
  C120     1.0000 0.66030  0.11990  0.65966  Biso   1.000  C
