data_HIVQAG_clean
_audit_creation_date              2015-10-16
_audit_creation_method            'Materials Studio'
_symmetry_space_group_name_H-M    'P1'
_symmetry_Int_Tables_number       1
_symmetry_cell_setting            triclinic
loop_
_symmetry_equiv_pos_as_xyz
  x,y,z
_cell_length_a                    9.9165
_cell_length_b                    10.9693
_cell_length_c                    13.0528
_cell_angle_alpha                 90.0000
_cell_angle_beta                  90.0000
_cell_angle_gamma                 101.6330
loop_
_atom_site_label
_atom_site_type_symbol
_atom_site_fract_x
_atom_site_fract_y
_atom_site_fract_z
_atom_site_U_iso_or_equiv
_atom_site_adp_type
_atom_site_occupancy
Mn1    Mn    0.37357   0.75178   0.88756   0.01267  Uiso   1.00
Mn2    Mn    0.87554   0.74682   0.88847   0.01267  Uiso   1.00
Mn3    Mn    0.62643   0.24822   0.38756   0.01267  Uiso   1.00
Mn4    Mn    0.12446   0.25318   0.38847   0.01267  Uiso   1.00
H1     H     0.59250   0.64640   0.18690   0.01267  Uiso   1.00
H2     H     0.39220   0.48130   0.82190   0.01267  Uiso   1.00
H3     H     0.10290   0.51320   0.61720   0.01267  Uiso   1.00
H4     H     0.29910   0.37530   0.20460   0.01267  Uiso   1.00
H5     H     0.04860   0.86100   0.08250   0.01267  Uiso   1.00
H6     H     0.62360   0.25460   0.63110   0.01267  Uiso   1.00
H7     H     0.08650   0.63720   0.75470   0.01267  Uiso   1.00
H8     H     0.95760   0.00890   0.72030   0.01267  Uiso   1.00
H9     H     0.67750   0.85530   0.59110   0.01267  Uiso   1.00
H10    H     0.65950   0.97940   0.45250   0.01267  Uiso   1.00
H11    H     0.04240   0.99110   0.22030   0.01267  Uiso   1.00
H12    H     0.61770   0.13190   0.77300   0.01267  Uiso   1.00
H13    H     0.37640   0.74540   0.13110   0.01267  Uiso   1.00
H14    H     0.60780   0.51870   0.32190   0.01267  Uiso   1.00
H15    H     0.34050   0.02060   0.95250   0.01267  Uiso   1.00
H16    H     0.91350   0.36280   0.25470   0.01267  Uiso   1.00
H17    H     0.38940   0.63840   0.50160   0.01267  Uiso   1.00
H18    H     0.61060   0.36160   0.00160   0.01267  Uiso   1.00
H19    H     0.40750   0.35360   0.68690   0.01267  Uiso   1.00
H20    H     0.32250   0.14470   0.09110   0.01267  Uiso   1.00
H21    H     0.95140   0.13900   0.58250   0.01267  Uiso   1.00
H22    H     0.89710   0.48680   0.11720   0.01267  Uiso   1.00
H23    H     0.70040   0.49960   0.56540   0.01267  Uiso   1.00
H24    H     0.70090   0.62470   0.70460   0.01267  Uiso   1.00
H25    H     0.38470   0.76040   0.64240   0.01267  Uiso   1.00
H26    H     0.29960   0.50040   0.06540   0.01267  Uiso   1.00
H27    H     0.66740   0.86840   0.01750   0.01267  Uiso   1.00
H28    H     0.34690   0.00400   0.65510   0.01267  Uiso   1.00
H29    H     0.33260   0.13160   0.51750   0.01267  Uiso   1.00
H30    H     0.65310   0.99600   0.15510   0.01267  Uiso   1.00
H31    H     0.38230   0.86810   0.27300   0.01267  Uiso   1.00
H32    H     0.61530   0.23960   0.14240   0.01267  Uiso   1.00
C1     C     0.99180   0.39290   0.21600   0.01267  Uiso   1.00
C2     C     0.60820   0.39580   0.06670   0.01267  Uiso   1.00
C3     C     0.63090   0.09980   0.70870   0.01267  Uiso   1.00
C4     C     0.39180   0.60420   0.56670   0.01267  Uiso   1.00
C5     C     0.03160   0.11000   0.59560   0.01267  Uiso   1.00
C6     C     0.78040   0.52480   0.60340   0.01267  Uiso   1.00
C7     C     0.66340   0.93570   0.60080   0.01267  Uiso   1.00
C8     C     0.96460   0.96700   0.17960   0.01267  Uiso   1.00
C9     C     0.90150   0.48680   0.57640   0.01267  Uiso   1.00
C10    C     0.36910   0.82800   0.12250   0.01267  Uiso   1.00
C11    C     0.09850   0.51320   0.07640   0.01267  Uiso   1.00
C12    C     0.34500   0.98800   0.01790   0.01267  Uiso   1.00
C13    C     0.60080   0.51900   0.07700   0.01267  Uiso   1.00
C14    C     0.15830   0.90280   0.78980   0.01267  Uiso   1.00
C15    C     0.21810   0.40030   0.18670   0.01267  Uiso   1.00
C16    C     0.65500   0.01200   0.51790   0.01267  Uiso   1.00
C17    C     0.73520   0.97050   0.14130   0.01267  Uiso   1.00
C18    C     0.40120   0.43590   0.67550   0.01267  Uiso   1.00
C19    C     0.01880   0.53290   0.63430   0.01267  Uiso   1.00
C20    C     0.63090   0.17200   0.62250   0.01267  Uiso   1.00
C21    C     0.21960   0.47520   0.10340   0.01267  Uiso   1.00
C22    C     0.98120   0.46710   0.13430   0.01267  Uiso   1.00
C23    C     0.59880   0.56410   0.17550   0.01267  Uiso   1.00
C24    C     0.36910   0.90020   0.20870   0.01267  Uiso   1.00
C25    C     0.03540   0.03300   0.67960   0.01267  Uiso   1.00
C26    C     0.65590   0.89850   0.79090   0.01267  Uiso   1.00
C27    C     0.39920   0.48100   0.57700   0.01267  Uiso   1.00
C28    C     0.61220   0.32310   0.15130   0.01267  Uiso   1.00
C29    C     0.59030   0.59910   0.98570   0.01267  Uiso   1.00
C30    C     0.78190   0.59970   0.68670   0.01267  Uiso   1.00
C31    C     0.00820   0.60710   0.71600   0.01267  Uiso   1.00
C32    C     0.39370   0.51360   0.75590   0.01267  Uiso   1.00
C33    C     0.96840   0.89000   0.09560   0.01267  Uiso   1.00
C34    C     0.25480   0.10580   0.55780   0.01267  Uiso   1.00
C35    C     0.38780   0.67690   0.65130   0.01267  Uiso   1.00
C36    C     0.65040   0.98100   0.69910   0.01267  Uiso   1.00
C37    C     0.09120   0.59620   0.98590   0.01267  Uiso   1.00
C38    C     0.34960   0.01900   0.19910   0.01267  Uiso   1.00
C39    C     0.15390   0.99260   0.70240   0.01267  Uiso   1.00
C40    C     0.90880   0.40380   0.48590   0.01267  Uiso   1.00
C41    C     0.26480   0.02950   0.64130   0.01267  Uiso   1.00
C42    C     0.74520   0.89420   0.05780   0.01267  Uiso   1.00
C43    C     0.33660   0.06430   0.10080   0.01267  Uiso   1.00
C44    C     0.34410   0.10150   0.29090   0.01267  Uiso   1.00
C45    C     0.84170   0.09720   0.28980   0.01267  Uiso   1.00
C46    C     0.60630   0.48640   0.25590   0.01267  Uiso   1.00
C47    C     0.84610   0.00740   0.20240   0.01267  Uiso   1.00
C48    C     0.40970   0.40090   0.48570   0.01267  Uiso   1.00
N1     N     0.38840   0.63250   0.74500   0.01267  Uiso   1.00
N2     N     0.14010   0.14410   0.53230   0.01267  Uiso   1.00
N3     N     0.61160   0.36750   0.24500   0.01267  Uiso   1.00
N4     N     0.85990   0.85590   0.03230   0.01267  Uiso   1.00
N5     N     0.10860   0.36180   0.24270   0.01267  Uiso   1.00
N6     N     0.35930   0.86980   0.02670   0.01267  Uiso   1.00
N7     N     0.89140   0.63820   0.74270   0.01267  Uiso   1.00
N8     N     0.64070   0.13020   0.52670   0.01267  Uiso   1.00
O1     O     0.23800   0.14480   0.29490   0.01267  Uiso   1.00
O2     O     0.98300   0.63310   0.97390   0.01267  Uiso   1.00
O3     O     0.44190   0.11480   0.35010   0.01267  Uiso   1.00
O4     O     0.73240   0.13850   0.29330   0.01267  Uiso   1.00
O5     O     0.80580   0.38060   0.42780   0.01267  Uiso   1.00
O6     O     0.05950   0.88160   0.84780   0.01267  Uiso   1.00
O7     O     0.51400   0.35410   0.48060   0.01267  Uiso   1.00
O8     O     0.31480   0.38660   0.42110   0.01267  Uiso   1.00
O9     O     0.55810   0.88520   0.85010   0.01267  Uiso   1.00
O10    O     0.94050   0.11840   0.34780   0.01267  Uiso   1.00
O11    O     0.26760   0.86150   0.79330   0.01267  Uiso   1.00
O12    O     0.48600   0.64590   0.98060   0.01267  Uiso   1.00
O13    O     0.19420   0.61940   0.92780   0.01267  Uiso   1.00
O14    O     0.76200   0.85520   0.79490   0.01267  Uiso   1.00
O15    O     0.68520   0.61340   0.92110   0.01267  Uiso   1.00
O16    O     0.01700   0.36690   0.47390   0.01267  Uiso   1.00
