data_HIWKII_clean
_audit_creation_date              2014-07-02
_audit_creation_method            'Materials Studio'
_symmetry_space_group_name_H-M    'P1'
_symmetry_Int_Tables_number       1
_symmetry_cell_setting            triclinic
loop_
_symmetry_equiv_pos_as_xyz
  x,y,z
_cell_length_a                    10.9413
_cell_length_b                    10.9413
_cell_length_c                    12.0520
_cell_angle_alpha                 76.8932
_cell_angle_beta                  76.8932
_cell_angle_gamma                 86.9855
loop_
_atom_site_label
_atom_site_type_symbol
_atom_site_fract_x
_atom_site_fract_y
_atom_site_fract_z
_atom_site_U_iso_or_equiv
_atom_site_adp_type
_atom_site_occupancy
Mn1    Mn    0.69282   0.76850   0.85761   0.01267  Uiso   1.00
Mn2    Mn    0.23150   0.30718   0.64239   0.01267  Uiso   1.00
Mn3    Mn    0.30718   0.23150   0.14239   0.01267  Uiso   1.00
Mn4    Mn    0.76850   0.69282   0.35761   0.01267  Uiso   1.00
Nb1    Nb    0.70506   0.29494   0.75000   0.01267  Uiso   1.00
Nb2    Nb    0.29494   0.70506   0.25000   0.01267  Uiso   1.00
H1     H     0.50780   0.72200   0.57970   0.01267  Uiso   1.00
H2     H     0.42220   0.63480   0.92290   0.01267  Uiso   1.00
H3     H     0.27800   0.49220   0.92030   0.01267  Uiso   1.00
H4     H     0.36520   0.57780   0.57710   0.01267  Uiso   1.00
H5     H     0.49220   0.27800   0.42030   0.01267  Uiso   1.00
H6     H     0.57780   0.36520   0.07710   0.01267  Uiso   1.00
H7     H     0.72200   0.50780   0.07970   0.01267  Uiso   1.00
H8     H     0.63480   0.42220   0.42290   0.01267  Uiso   1.00
C1     C     0.68725   0.08373   0.79900   0.01267  Uiso   1.00
C2     C     0.77801   0.23325   0.91430   0.01267  Uiso   1.00
C3     C     0.73145   0.46303   0.59967   0.01267  Uiso   1.00
C4     C     0.70290   0.47188   0.81899   0.01267  Uiso   1.00
C5     C     0.46008   0.67666   0.64950   0.01267  Uiso   1.00
C6     C     0.40908   0.62508   0.85180   0.01267  Uiso   1.00
C7     C     0.91627   0.31275   0.70100   0.01267  Uiso   1.00
C8     C     0.76675   0.22199   0.58570   0.01267  Uiso   1.00
C9     C     0.53697   0.26855   0.90033   0.01267  Uiso   1.00
C10    C     0.52812   0.29710   0.68101   0.01267  Uiso   1.00
C11    C     0.32334   0.53992   0.85050   0.01267  Uiso   1.00
C12    C     0.37492   0.59092   0.64820   0.01267  Uiso   1.00
C13    C     0.31275   0.91627   0.20100   0.01267  Uiso   1.00
C14    C     0.22199   0.76675   0.08570   0.01267  Uiso   1.00
C15    C     0.26855   0.53697   0.40033   0.01267  Uiso   1.00
C16    C     0.29710   0.52812   0.18101   0.01267  Uiso   1.00
C17    C     0.53992   0.32334   0.35050   0.01267  Uiso   1.00
C18    C     0.59092   0.37492   0.14820   0.01267  Uiso   1.00
C19    C     0.08373   0.68725   0.29900   0.01267  Uiso   1.00
C20    C     0.23325   0.77801   0.41430   0.01267  Uiso   1.00
C21    C     0.46303   0.73145   0.09967   0.01267  Uiso   1.00
C22    C     0.47188   0.70290   0.31899   0.01267  Uiso   1.00
C23    C     0.67666   0.46008   0.14950   0.01267  Uiso   1.00
C24    C     0.62508   0.40908   0.35180   0.01267  Uiso   1.00
N1     N     0.68282   0.97612   0.82390   0.01267  Uiso   1.00
N2     N     0.81510   0.20050   0.99710   0.01267  Uiso   1.00
N3     N     0.74360   0.54748   0.52104   0.01267  Uiso   1.00
N4     N     0.70136   0.56232   0.85248   0.01267  Uiso   1.00
N5     N     0.47507   0.69559   0.75173   0.01267  Uiso   1.00
N6     N     0.02388   0.31718   0.67610   0.01267  Uiso   1.00
N7     N     0.79950   0.18490   0.50290   0.01267  Uiso   1.00
N8     N     0.45252   0.25640   0.97896   0.01267  Uiso   1.00
N9     N     0.43768   0.29864   0.64752   0.01267  Uiso   1.00
N10    N     0.30441   0.52493   0.74827   0.01267  Uiso   1.00
N11    N     0.31718   0.02388   0.17610   0.01267  Uiso   1.00
N12    N     0.18490   0.79950   0.00290   0.01267  Uiso   1.00
N13    N     0.25640   0.45252   0.47896   0.01267  Uiso   1.00
N14    N     0.29864   0.43768   0.14752   0.01267  Uiso   1.00
N15    N     0.52493   0.30441   0.24827   0.01267  Uiso   1.00
N16    N     0.97612   0.68282   0.32390   0.01267  Uiso   1.00
N17    N     0.20050   0.81510   0.49710   0.01267  Uiso   1.00
N18    N     0.54748   0.74360   0.02104   0.01267  Uiso   1.00
N19    N     0.56232   0.70136   0.35248   0.01267  Uiso   1.00
N20    N     0.69559   0.47507   0.25173   0.01267  Uiso   1.00
O1     O     0.55247   0.78279   0.75174   0.01267  Uiso   1.00
O2     O     0.21721   0.44753   0.74826   0.01267  Uiso   1.00
O3     O     0.44753   0.21721   0.24826   0.01267  Uiso   1.00
O4     O     0.78279   0.55247   0.25174   0.01267  Uiso   1.00
