data_HIWKEE_clean
_audit_creation_date              2014-07-02
_audit_creation_method            'Materials Studio'
_symmetry_space_group_name_H-M    'P1'
_symmetry_Int_Tables_number       1
_symmetry_cell_setting            triclinic
loop_
_symmetry_equiv_pos_as_xyz
  x,y,z
_cell_length_a                    10.9470
_cell_length_b                    17.9080
_cell_length_c                    19.3080
_cell_angle_alpha                 63.4460
_cell_angle_beta                  75.2270
_cell_angle_gamma                 73.7880
loop_
_atom_site_label
_atom_site_type_symbol
_atom_site_fract_x
_atom_site_fract_y
_atom_site_fract_z
_atom_site_U_iso_or_equiv
_atom_site_adp_type
_atom_site_occupancy
Mn1    Mn    0.50797   0.74245   0.25204   0.01267  Uiso   1.00
Mn2    Mn    0.83374   0.19317   0.42058   0.01267  Uiso   1.00
Mn3    Mn    0.24461   0.31254   0.06099   0.01267  Uiso   1.00
Mn4    Mn    0.49203   0.25755   0.74796   0.01267  Uiso   1.00
Mn5    Mn    0.16626   0.80683   0.57942   0.01267  Uiso   1.00
Mn6    Mn    0.75539   0.68746   0.93901   0.01267  Uiso   1.00
Mn7    Mn    0.00000   0.00000   0.00000   0.01267  Uiso   1.00
Mn8    Mn    0.00000   0.50000   0.50000   0.01267  Uiso   1.00
Nb1    Nb    0.10395   0.00417   0.26714   0.01267  Uiso   1.00
Nb2    Nb    0.93804   0.50510   0.22181   0.01267  Uiso   1.00
Nb3    Nb    0.89605   0.99583   0.73286   0.01267  Uiso   1.00
Nb4    Nb    0.06196   0.49490   0.77819   0.01267  Uiso   1.00
H1     H     0.90040   0.83320   0.03730   0.01267  Uiso   1.00
H2     H     0.74060   0.75750   0.10990   0.01267  Uiso   1.00
H3     H     0.59350   0.91840   0.20730   0.01267  Uiso   1.00
H4     H     0.75560   0.99290   0.13600   0.01267  Uiso   1.00
H5     H     0.40060   0.57950   0.29480   0.01267  Uiso   1.00
H6     H     0.22930   0.51230   0.36250   0.01267  Uiso   1.00
H7     H     0.10630   0.66550   0.46840   0.01267  Uiso   1.00
H8     H     0.27330   0.73560   0.39780   0.01267  Uiso   1.00
H9     H     0.87070   0.98360   0.49120   0.01267  Uiso   1.00
H10    H     0.79950   0.88130   0.48240   0.01267  Uiso   1.00
H11    H     0.51040   0.04640   0.38830   0.01267  Uiso   1.00
H12    H     0.58000   0.15090   0.39710   0.01267  Uiso   1.00
H13    H     0.18050   0.23000   0.24550   0.01267  Uiso   1.00
H14    H     0.23550   0.20990   0.35890   0.01267  Uiso   1.00
H15    H     0.53430   0.31220   0.24270   0.01267  Uiso   1.00
H16    H     0.47640   0.33450   0.12660   0.01267  Uiso   1.00
H17    H     0.09960   0.16680   0.96270   0.01267  Uiso   1.00
H18    H     0.25940   0.24250   0.89010   0.01267  Uiso   1.00
H19    H     0.40650   0.08160   0.79270   0.01267  Uiso   1.00
H20    H     0.24440   0.00710   0.86400   0.01267  Uiso   1.00
H21    H     0.59940   0.42050   0.70520   0.01267  Uiso   1.00
H22    H     0.77070   0.48770   0.63750   0.01267  Uiso   1.00
H23    H     0.89370   0.33450   0.53160   0.01267  Uiso   1.00
H24    H     0.72670   0.26440   0.60220   0.01267  Uiso   1.00
H25    H     0.12930   0.01640   0.50880   0.01267  Uiso   1.00
H26    H     0.20050   0.11870   0.51760   0.01267  Uiso   1.00
H27    H     0.48960   0.95360   0.61170   0.01267  Uiso   1.00
H28    H     0.42000   0.84910   0.60290   0.01267  Uiso   1.00
H29    H     0.81950   0.77000   0.75450   0.01267  Uiso   1.00
H30    H     0.76450   0.79010   0.64110   0.01267  Uiso   1.00
H31    H     0.46570   0.68780   0.75730   0.01267  Uiso   1.00
H32    H     0.52360   0.66550   0.87340   0.01267  Uiso   1.00
C1     C     0.07510   0.00636   0.15409   0.01267  Uiso   1.00
C2     C     0.26750   0.90448   0.24696   0.01267  Uiso   1.00
C3     C     0.28730   0.02240   0.28570   0.01267  Uiso   1.00
C4     C     0.04310   0.08500   0.33558   0.01267  Uiso   1.00
C5     C     0.14260   0.13055   0.17222   0.01267  Uiso   1.00
C6     C     0.00310   0.89730   0.29860   0.01267  Uiso   1.00
C7     C     0.89900   0.07230   0.25175   0.01267  Uiso   1.00
C8     C     0.12060   0.91492   0.39349   0.01267  Uiso   1.00
C9     C     0.03770   0.43240   0.14649   0.01267  Uiso   1.00
C10    C     0.75030   0.58493   0.25121   0.01267  Uiso   1.00
C11    C     0.88050   0.59599   0.10278   0.01267  Uiso   1.00
C12    C     0.93380   0.37299   0.31743   0.01267  Uiso   1.00
C13    C     0.95020   0.50401   0.33629   0.01267  Uiso   1.00
C14    C     0.78050   0.45491   0.21030   0.01267  Uiso   1.00
C15    C     0.99190   0.62830   0.19436   0.01267  Uiso   1.00
C16    C     0.15090   0.47890   0.22510   0.01267  Uiso   1.00
C17    C     0.83890   0.85130   0.07260   0.01267  Uiso   1.00
C18    C     0.74180   0.80581   0.11622   0.01267  Uiso   1.00
C19    C     0.65640   0.89940   0.17310   0.01267  Uiso   1.00
C20    C     0.75420   0.94450   0.12990   0.01267  Uiso   1.00
C21    C     0.34040   0.59860   0.32990   0.01267  Uiso   1.00
C22    C     0.23780   0.55750   0.37130   0.01267  Uiso   1.00
C23    C     0.16570   0.64700   0.43260   0.01267  Uiso   1.00
C24    C     0.26680   0.68920   0.39020   0.01267  Uiso   1.00
C25    C     0.79650   0.99840   0.46930   0.01267  Uiso   1.00
C26    C     0.75300   0.93670   0.46400   0.01267  Uiso   1.00
C27    C     0.58530   0.03220   0.40950   0.01267  Uiso   1.00
C28    C     0.62750   0.09570   0.41450   0.01267  Uiso   1.00
C29    C     0.25410   0.24770   0.24330   0.01267  Uiso   1.00
C30    C     0.28700   0.23530   0.31180   0.01267  Uiso   1.00
C31    C     0.46050   0.29500   0.24420   0.01267  Uiso   1.00
C32    C     0.42560   0.30820   0.17380   0.01267  Uiso   1.00
C33    C     0.92490   0.99364   0.84591   0.01267  Uiso   1.00
C34    C     0.73250   0.09552   0.75304   0.01267  Uiso   1.00
C35    C     0.71270   0.97760   0.71430   0.01267  Uiso   1.00
C36    C     0.95690   0.91500   0.66442   0.01267  Uiso   1.00
C37    C     0.85740   0.86945   0.82778   0.01267  Uiso   1.00
C38    C     0.99690   0.10270   0.70140   0.01267  Uiso   1.00
C39    C     0.10100   0.92770   0.74825   0.01267  Uiso   1.00
C40    C     0.87940   0.08508   0.60651   0.01267  Uiso   1.00
C41    C     0.96230   0.56760   0.85351   0.01267  Uiso   1.00
C42    C     0.24970   0.41507   0.74879   0.01267  Uiso   1.00
C43    C     0.11950   0.40401   0.89722   0.01267  Uiso   1.00
C44    C     0.06620   0.62701   0.68257   0.01267  Uiso   1.00
C45    C     0.04980   0.49599   0.66371   0.01267  Uiso   1.00
C46    C     0.21950   0.54509   0.78970   0.01267  Uiso   1.00
C47    C     0.00810   0.37170   0.80564   0.01267  Uiso   1.00
C48    C     0.84910   0.52110   0.77490   0.01267  Uiso   1.00
C49    C     0.16110   0.14870   0.92740   0.01267  Uiso   1.00
C50    C     0.25820   0.19419   0.88378   0.01267  Uiso   1.00
C51    C     0.34360   0.10060   0.82690   0.01267  Uiso   1.00
C52    C     0.24580   0.05550   0.87010   0.01267  Uiso   1.00
C53    C     0.65960   0.40140   0.67010   0.01267  Uiso   1.00
C54    C     0.76220   0.44250   0.62870   0.01267  Uiso   1.00
C55    C     0.83430   0.35300   0.56740   0.01267  Uiso   1.00
C56    C     0.73320   0.31080   0.60980   0.01267  Uiso   1.00
C57    C     0.20350   0.00160   0.53070   0.01267  Uiso   1.00
C58    C     0.24700   0.06330   0.53600   0.01267  Uiso   1.00
C59    C     0.41470   0.96780   0.59050   0.01267  Uiso   1.00
C60    C     0.37250   0.90430   0.58550   0.01267  Uiso   1.00
C61    C     0.74590   0.75230   0.75670   0.01267  Uiso   1.00
C62    C     0.71300   0.76470   0.68820   0.01267  Uiso   1.00
C63    C     0.53950   0.70500   0.75580   0.01267  Uiso   1.00
C64    C     0.57440   0.69180   0.82620   0.01267  Uiso   1.00
N1     N     0.05440   0.00573   0.09905   0.01267  Uiso   1.00
N2     N     0.35360   0.85314   0.23978   0.01267  Uiso   1.00
N3     N     0.38160   0.02980   0.29480   0.01267  Uiso   1.00
N4     N     0.00610   0.12348   0.37339   0.01267  Uiso   1.00
N5     N     0.16460   0.19495   0.12532   0.01267  Uiso   1.00
N6     N     0.95700   0.84200   0.31080   0.01267  Uiso   1.00
N7     N     0.79730   0.11030   0.24090   0.01267  Uiso   1.00
N8     N     0.12750   0.87115   0.45814   0.01267  Uiso   1.00
N9     N     0.09160   0.39458   0.10921   0.01267  Uiso   1.00
N10    N     0.65650   0.62982   0.26076   0.01267  Uiso   1.00
N11    N     0.84110   0.64224   0.04583   0.01267  Uiso   1.00
N12    N     0.91450   0.30917   0.36782   0.01267  Uiso   1.00
N13    N     0.95840   0.50146   0.39548   0.01267  Uiso   1.00
N14    N     0.69890   0.42740   0.20820   0.01267  Uiso   1.00
N15    N     0.01910   0.68970   0.18620   0.01267  Uiso   1.00
N16    N     0.25740   0.47480   0.22400   0.01267  Uiso   1.00
N17    N     0.84650   0.92017   0.07974   0.01267  Uiso   1.00
N18    N     0.65050   0.82921   0.16675   0.01267  Uiso   1.00
N19    N     0.35480   0.66467   0.33899   0.01267  Uiso   1.00
N20    N     0.15140   0.58134   0.42346   0.01267  Uiso   1.00
N21    N     0.73430   0.07933   0.44356   0.01267  Uiso   1.00
N22    N     0.64760   0.95220   0.43380   0.01267  Uiso   1.00
N23    N     0.32250   0.28419   0.17321   0.01267  Uiso   1.00
N24    N     0.39030   0.25870   0.31240   0.01267  Uiso   1.00
N25    N     0.94560   0.99427   0.90095   0.01267  Uiso   1.00
N26    N     0.64640   0.14686   0.76022   0.01267  Uiso   1.00
N27    N     0.61840   0.97020   0.70520   0.01267  Uiso   1.00
N28    N     0.99390   0.87652   0.62661   0.01267  Uiso   1.00
N29    N     0.83540   0.80505   0.87468   0.01267  Uiso   1.00
N30    N     0.04300   0.15800   0.68920   0.01267  Uiso   1.00
N31    N     0.20270   0.88970   0.75910   0.01267  Uiso   1.00
N32    N     0.87250   0.12885   0.54186   0.01267  Uiso   1.00
N33    N     0.90840   0.60542   0.89079   0.01267  Uiso   1.00
N34    N     0.34350   0.37018   0.73924   0.01267  Uiso   1.00
N35    N     0.15890   0.35776   0.95417   0.01267  Uiso   1.00
N36    N     0.08550   0.69083   0.63218   0.01267  Uiso   1.00
N37    N     0.04160   0.49854   0.60452   0.01267  Uiso   1.00
N38    N     0.30110   0.57260   0.79180   0.01267  Uiso   1.00
N39    N     0.98090   0.31030   0.81380   0.01267  Uiso   1.00
N40    N     0.74260   0.52520   0.77600   0.01267  Uiso   1.00
N41    N     0.15350   0.07983   0.92026   0.01267  Uiso   1.00
N42    N     0.34950   0.17079   0.83325   0.01267  Uiso   1.00
N43    N     0.64520   0.33533   0.66101   0.01267  Uiso   1.00
N44    N     0.84860   0.41866   0.57654   0.01267  Uiso   1.00
N45    N     0.26570   0.92067   0.55644   0.01267  Uiso   1.00
N46    N     0.35240   0.04780   0.56620   0.01267  Uiso   1.00
N47    N     0.67750   0.71581   0.82679   0.01267  Uiso   1.00
N48    N     0.60970   0.74130   0.68760   0.01267  Uiso   1.00
