data_image0
_cell_length_a       8.5595
_cell_length_b       13.5759
_cell_length_c       9.3231
_cell_angle_alpha    90
_cell_angle_beta     96.024
_cell_angle_gamma    90

_symmetry_space_group_name_H-M    "P 1"
_symmetry_int_tables_number       1

loop_
  _symmetry_equiv_pos_as_xyz
  'x, y, z'

loop_
  _atom_site_label
  _atom_site_occupancy
  _atom_site_fract_x
  _atom_site_fract_y
  _atom_site_fract_z
  _atom_site_thermal_displace_type
  _atom_site_B_iso_or_equiv
  _atom_site_type_symbol
  Zn1      1.0000 0.35885  0.01862  0.29844  Biso   1.000  Zn
  Zn2      1.0000 0.59558  0.13969  0.90782  Biso   1.000  Zn
  Zn3      1.0000 0.85052  0.75917  0.22691  Biso   1.000  Zn
  P1       1.0000 0.64116  0.95541  0.12928  Biso   1.000  P
  P2       1.0000 0.29432  0.20248  0.07469  Biso   1.000  P
  P3       1.0000 0.21491  0.79988  0.25689  Biso   1.000  P
  P4       1.0000 0.38997  0.12217  0.59978  Biso   1.000  P
  O1       1.0000 0.69330  0.03550  0.02960  Biso   1.000  O
  O2       1.0000 0.57050  0.99520  0.25900  Biso   1.000  O
  O3       1.0000 0.78040  0.88990  0.17000  Biso   1.000  O
  O4       1.0000 0.27300  0.13170  0.19760  Biso   1.000  O
  O5       1.0000 0.15940  0.18840  0.95570  Biso   1.000  O
  O6       1.0000 0.45280  0.20320  0.02000  Biso   1.000  O
  O7       1.0000 0.06380  0.77500  0.32400  Biso   1.000  O
  O8       1.0000 0.24220  0.73450  0.13030  Biso   1.000  O
  O9       1.0000 0.22200  0.90970  0.22160  Biso   1.000  O
  O10      1.0000 0.33320  0.03570  0.50270  Biso   1.000  O
  O11      1.0000 0.50030  0.08810  0.72650  Biso   1.000  O
  O12      1.0000 0.25440  0.18140  0.64110  Biso   1.000  O
  H1       1.0000 0.53510  0.90770  0.06470  Biso   1.000  H
  H2       1.0000 0.27230  0.28850  0.12340  Biso   1.000  H
  H3       1.0000 0.34480  0.78350  0.34140  Biso   1.000  H
  H4       1.0000 0.47190  0.18070  0.52790  Biso   1.000  H
  Zn4      1.0000 0.64115  0.51862  0.70156  Biso   1.000  Zn
  Zn5      1.0000 0.40442  0.63969  0.09218  Biso   1.000  Zn
  Zn6      1.0000 0.14948  0.25917  0.77309  Biso   1.000  Zn
  P5       1.0000 0.35884  0.45541  0.87072  Biso   1.000  P
  P6       1.0000 0.70568  0.70248  0.92531  Biso   1.000  P
  P7       1.0000 0.78509  0.29988  0.74311  Biso   1.000  P
  P8       1.0000 0.61003  0.62217  0.40022  Biso   1.000  P
  O13      1.0000 0.30670  0.53550  0.97040  Biso   1.000  O
  O14      1.0000 0.42950  0.49520  0.74100  Biso   1.000  O
  O15      1.0000 0.21960  0.38990  0.83000  Biso   1.000  O
  O16      1.0000 0.72700  0.63170  0.80240  Biso   1.000  O
  O17      1.0000 0.84060  0.68840  0.04430  Biso   1.000  O
  O18      1.0000 0.54720  0.70320  0.98000  Biso   1.000  O
  O19      1.0000 0.93620  0.27500  0.67600  Biso   1.000  O
  O20      1.0000 0.75780  0.23450  0.86970  Biso   1.000  O
  O21      1.0000 0.77800  0.40970  0.77840  Biso   1.000  O
  O22      1.0000 0.66680  0.53570  0.49730  Biso   1.000  O
  O23      1.0000 0.49970  0.58810  0.27350  Biso   1.000  O
  O24      1.0000 0.74560  0.68140  0.35890  Biso   1.000  O
  H5       1.0000 0.46490  0.40770  0.93530  Biso   1.000  H
  H6       1.0000 0.72770  0.78850  0.87660  Biso   1.000  H
  H7       1.0000 0.65520  0.28350  0.65860  Biso   1.000  H
  H8       1.0000 0.52810  0.68070  0.47210  Biso   1.000  H
