data_HIYLUY_clean
_audit_creation_date              2015-10-16
_audit_creation_method            'Materials Studio'
_symmetry_space_group_name_H-M    'P1'
_symmetry_Int_Tables_number       1
_symmetry_cell_setting            triclinic
loop_
_symmetry_equiv_pos_as_xyz
  x,y,z
_cell_length_a                    14.3950
_cell_length_b                    15.2030
_cell_length_c                    33.3710
_cell_angle_alpha                 90.0000
_cell_angle_beta                  90.0000
_cell_angle_gamma                 90.0000
loop_
_atom_site_label
_atom_site_type_symbol
_atom_site_fract_x
_atom_site_fract_y
_atom_site_fract_z
_atom_site_U_iso_or_equiv
_atom_site_adp_type
_atom_site_occupancy
K1     K     0.68597   0.28411   0.04592   0.01267  Uiso   1.00
K2     K     0.68597   0.28411   0.45408   0.01267  Uiso   1.00
K3     K     0.18597   0.21589   0.95408   0.01267  Uiso   1.00
K4     K     0.19068   0.23297   0.14305   0.01267  Uiso   1.00
K5     K     0.80932   0.76703   0.85695   0.01267  Uiso   1.00
K6     K     0.18597   0.21589   0.54592   0.01267  Uiso   1.00
K7     K     0.18531   0.24250   0.75000   0.01267  Uiso   1.00
K8     K     0.69068   0.26703   0.64305   0.01267  Uiso   1.00
K9     K     0.81403   0.78411   0.04592   0.01267  Uiso   1.00
K10    K     0.68531   0.25750   0.25000   0.01267  Uiso   1.00
K11    K     0.30932   0.73297   0.14305   0.01267  Uiso   1.00
K12    K     0.80932   0.76703   0.64305   0.01267  Uiso   1.00
K13    K     0.81469   0.75750   0.25000   0.01267  Uiso   1.00
K14    K     0.31469   0.74250   0.75000   0.01267  Uiso   1.00
K15    K     0.31403   0.71589   0.95408   0.01267  Uiso   1.00
K16    K     0.31403   0.71589   0.54592   0.01267  Uiso   1.00
K17    K     0.19068   0.23297   0.35695   0.01267  Uiso   1.00
K18    K     0.81403   0.78411   0.45408   0.01267  Uiso   1.00
K19    K     0.69068   0.26703   0.85695   0.01267  Uiso   1.00
K20    K     0.30932   0.73297   0.35695   0.01267  Uiso   1.00
Ho1    Ho    0.87044   0.30395   0.15080   0.01267  Uiso   1.00
Ho2    Ho    0.37044   0.19605   0.84920   0.01267  Uiso   1.00
Ho3    Ho    0.11240   0.70201   0.05105   0.01267  Uiso   1.00
Ho4    Ho    0.88760   0.29799   0.55105   0.01267  Uiso   1.00
Ho5    Ho    0.64009   0.82088   0.75000   0.01267  Uiso   1.00
Ho6    Ho    0.87044   0.30395   0.34920   0.01267  Uiso   1.00
Ho7    Ho    0.14009   0.67912   0.25000   0.01267  Uiso   1.00
Ho8    Ho    0.85991   0.32088   0.75000   0.01267  Uiso   1.00
Ho9    Ho    0.37044   0.19605   0.65080   0.01267  Uiso   1.00
Ho10   Ho    0.61240   0.79799   0.94895   0.01267  Uiso   1.00
Ho11   Ho    0.62956   0.80395   0.15080   0.01267  Uiso   1.00
Ho12   Ho    0.61240   0.79799   0.55105   0.01267  Uiso   1.00
Ho13   Ho    0.62956   0.80395   0.34920   0.01267  Uiso   1.00
Ho14   Ho    0.12956   0.69605   0.84920   0.01267  Uiso   1.00
Ho15   Ho    0.35991   0.17912   0.25000   0.01267  Uiso   1.00
Ho16   Ho    0.88760   0.29799   0.94895   0.01267  Uiso   1.00
Ho17   Ho    0.38760   0.20201   0.05105   0.01267  Uiso   1.00
Ho18   Ho    0.11240   0.70201   0.44895   0.01267  Uiso   1.00
Ho19   Ho    0.38760   0.20201   0.44895   0.01267  Uiso   1.00
Ho20   Ho    0.12956   0.69605   0.65080   0.01267  Uiso   1.00
C1     C     0.83750   0.54150   0.75000   0.01267  Uiso   1.00
C2     C     0.17150   0.48670   0.44922   0.01267  Uiso   1.00
C3     C     0.00820   0.50760   0.64980   0.01267  Uiso   1.00
C4     C     0.01660   0.59110   0.75000   0.01267  Uiso   1.00
C5     C     0.13810   0.37210   0.25000   0.01267  Uiso   1.00
C6     C     0.27910   0.81800   0.64684   0.01267  Uiso   1.00
C7     C     0.00290   0.41100   0.04976   0.01267  Uiso   1.00
C8     C     0.48900   0.08190   0.35064   0.01267  Uiso   1.00
C9     C     0.99290   0.50190   0.75000   0.01267  Uiso   1.00
C10    C     0.38410   0.12410   0.75000   0.01267  Uiso   1.00
C11    C     0.10770   0.62320   0.15029   0.01267  Uiso   1.00
C12    C     0.93240   0.56780   0.04813   0.01267  Uiso   1.00
C13    C     0.56320   0.08170   0.85042   0.01267  Uiso   1.00
C14    C     0.14600   0.38920   0.64726   0.01267  Uiso   1.00
C15    C     0.66260   0.10380   0.94933   0.01267  Uiso   1.00
C16    C     0.16260   0.39620   0.05067   0.01267  Uiso   1.00
C17    C     0.73780   0.46230   0.95040   0.01267  Uiso   1.00
C18    C     0.16260   0.39620   0.44933   0.01267  Uiso   1.00
C19    C     0.56760   0.06780   0.04813   0.01267  Uiso   1.00
C20    C     0.93680   0.58170   0.85042   0.01267  Uiso   1.00
C21    C     0.05990   0.42390   0.75000   0.01267  Uiso   1.00
C22    C     0.29260   0.79660   0.25000   0.01267  Uiso   1.00
C23    C     0.33540   0.97860   0.64751   0.01267  Uiso   1.00
C24    C     0.98340   0.40890   0.25000   0.01267  Uiso   1.00
C25    C     0.26220   0.53770   0.45040   0.01267  Uiso   1.00
C26    C     0.50820   0.99240   0.35020   0.01267  Uiso   1.00
C27    C     0.24250   0.33180   0.05010   0.01267  Uiso   1.00
C28    C     0.83740   0.60380   0.94933   0.01267  Uiso   1.00
C29    C     0.77910   0.68200   0.14684   0.01267  Uiso   1.00
C30    C     0.79260   0.70340   0.75000   0.01267  Uiso   1.00
C31    C     0.82850   0.51330   0.55078   0.01267  Uiso   1.00
C32    C     0.23890   0.01990   0.64486   0.01267  Uiso   1.00
C33    C     0.44010   0.92390   0.75000   0.01267  Uiso   1.00
C34    C     0.51160   0.99820   0.54929   0.01267  Uiso   1.00
C35    C     0.74250   0.16820   0.94990   0.01267  Uiso   1.00
C36    C     0.00820   0.50760   0.85020   0.01267  Uiso   1.00
C37    C     0.63810   0.12790   0.75000   0.01267  Uiso   1.00
C38    C     0.32850   0.98670   0.44922   0.01267  Uiso   1.00
C39    C     0.41070   0.13870   0.95044   0.01267  Uiso   1.00
C40    C     0.76110   0.98010   0.35514   0.01267  Uiso   1.00
C41    C     0.82850   0.51330   0.94922   0.01267  Uiso   1.00
C42    C     0.36190   0.87210   0.25000   0.01267  Uiso   1.00
C43    C     0.23910   0.99630   0.25000   0.01267  Uiso   1.00
C44    C     0.73910   0.50370   0.75000   0.01267  Uiso   1.00
C45    C     0.26090   0.49630   0.25000   0.01267  Uiso   1.00
C46    C     0.55990   0.07610   0.25000   0.01267  Uiso   1.00
C47    C     0.67150   0.01330   0.94922   0.01267  Uiso   1.00
C48    C     0.93240   0.56780   0.45187   0.01267  Uiso   1.00
C49    C     0.51660   0.90890   0.25000   0.01267  Uiso   1.00
C50    C     0.06760   0.43220   0.95187   0.01267  Uiso   1.00
C51    C     0.26110   0.51990   0.64486   0.01267  Uiso   1.00
C52    C     0.72090   0.18200   0.35316   0.01267  Uiso   1.00
C53    C     0.91070   0.36130   0.45044   0.01267  Uiso   1.00
C54    C     0.48900   0.08190   0.14936   0.01267  Uiso   1.00
C55    C     0.56320   0.08170   0.64958   0.01267  Uiso   1.00
C56    C     0.58930   0.86130   0.45044   0.01267  Uiso   1.00
C57    C     0.66460   0.02140   0.14751   0.01267  Uiso   1.00
C58    C     0.01160   0.50180   0.04929   0.01267  Uiso   1.00
C59    C     0.66250   0.04150   0.75000   0.01267  Uiso   1.00
C60    C     0.00290   0.41100   0.45024   0.01267  Uiso   1.00
C61    C     0.61590   0.87590   0.25000   0.01267  Uiso   1.00
C62    C     0.48840   0.00180   0.45071   0.01267  Uiso   1.00
C63    C     0.49710   0.91100   0.45024   0.01267  Uiso   1.00
C64    C     0.08930   0.63870   0.54956   0.01267  Uiso   1.00
C65    C     0.24250   0.33180   0.44990   0.01267  Uiso   1.00
C66    C     0.76220   0.96230   0.54960   0.01267  Uiso   1.00
C67    C     0.85400   0.61080   0.35274   0.01267  Uiso   1.00
C68    C     0.00710   0.49810   0.25000   0.01267  Uiso   1.00
C69    C     0.23780   0.03770   0.45040   0.01267  Uiso   1.00
C70    C     0.93680   0.58170   0.64958   0.01267  Uiso   1.00
C71    C     0.98900   0.41810   0.64936   0.01267  Uiso   1.00
C72    C     0.86190   0.62790   0.75000   0.01267  Uiso   1.00
C73    C     0.22090   0.31800   0.64684   0.01267  Uiso   1.00
C74    C     0.85400   0.61080   0.14726   0.01267  Uiso   1.00
C75    C     0.23780   0.03770   0.04960   0.01267  Uiso   1.00
C76    C     0.14600   0.38920   0.85274   0.01267  Uiso   1.00
C77    C     0.91070   0.36130   0.04956   0.01267  Uiso   1.00
C78    C     0.76110   0.98010   0.14486   0.01267  Uiso   1.00
C79    C     0.16250   0.45850   0.25000   0.01267  Uiso   1.00
C80    C     0.22090   0.31800   0.85316   0.01267  Uiso   1.00
C81    C     0.26110   0.51990   0.85514   0.01267  Uiso   1.00
C82    C     0.32850   0.98670   0.05078   0.01267  Uiso   1.00
C83    C     0.60770   0.87680   0.84971   0.01267  Uiso   1.00
C84    C     0.10770   0.62320   0.34971   0.01267  Uiso   1.00
C85    C     0.72090   0.18200   0.14684   0.01267  Uiso   1.00
C86    C     0.16460   0.47860   0.64751   0.01267  Uiso   1.00
C87    C     0.49290   0.99810   0.25000   0.01267  Uiso   1.00
C88    C     0.77910   0.68200   0.35316   0.01267  Uiso   1.00
C89    C     0.75750   0.66820   0.94990   0.01267  Uiso   1.00
C90    C     0.99180   0.49240   0.14980   0.01267  Uiso   1.00
C91    C     0.43240   0.93220   0.54813   0.01267  Uiso   1.00
C92    C     0.51100   0.91810   0.64936   0.01267  Uiso   1.00
C93    C     0.99710   0.58900   0.54976   0.01267  Uiso   1.00
C94    C     0.89230   0.37680   0.84971   0.01267  Uiso   1.00
C95    C     0.25750   0.83180   0.44990   0.01267  Uiso   1.00
C96    C     0.17150   0.48670   0.05078   0.01267  Uiso   1.00
C97    C     0.89230   0.37680   0.65029   0.01267  Uiso   1.00
C98    C     0.49180   0.00760   0.64980   0.01267  Uiso   1.00
C99    C     0.49710   0.91100   0.04976   0.01267  Uiso   1.00
C100   C     0.06320   0.41830   0.35042   0.01267  Uiso   1.00
C101   C     0.50290   0.08900   0.95024   0.01267  Uiso   1.00
C102   C     0.64600   0.11080   0.14726   0.01267  Uiso   1.00
C103   C     0.73890   0.48010   0.35514   0.01267  Uiso   1.00
C104   C     0.67150   0.01330   0.55078   0.01267  Uiso   1.00
C105   C     0.39230   0.12320   0.15029   0.01267  Uiso   1.00
C106   C     0.43680   0.91830   0.35042   0.01267  Uiso   1.00
C107   C     0.41070   0.13870   0.54956   0.01267  Uiso   1.00
C108   C     0.01160   0.50180   0.45071   0.01267  Uiso   1.00
C109   C     0.49180   0.00760   0.85020   0.01267  Uiso   1.00
C110   C     0.35400   0.88920   0.64726   0.01267  Uiso   1.00
C111   C     0.51100   0.91810   0.85064   0.01267  Uiso   1.00
C112   C     0.27910   0.81800   0.85316   0.01267  Uiso   1.00
C113   C     0.25750   0.83180   0.05010   0.01267  Uiso   1.00
C114   C     0.60770   0.87680   0.65029   0.01267  Uiso   1.00
C115   C     0.43240   0.93220   0.95187   0.01267  Uiso   1.00
C116   C     0.33740   0.89620   0.44933   0.01267  Uiso   1.00
C117   C     0.20740   0.29660   0.25000   0.01267  Uiso   1.00
C118   C     0.88410   0.37590   0.25000   0.01267  Uiso   1.00
C119   C     0.99710   0.58900   0.95024   0.01267  Uiso   1.00
C120   C     0.73780   0.46230   0.54960   0.01267  Uiso   1.00
C121   C     0.50820   0.99240   0.14980   0.01267  Uiso   1.00
C122   C     0.06760   0.43220   0.54813   0.01267  Uiso   1.00
C123   C     0.50710   0.00190   0.75000   0.01267  Uiso   1.00
C124   C     0.48340   0.09110   0.75000   0.01267  Uiso   1.00
C125   C     0.43680   0.91830   0.14958   0.01267  Uiso   1.00
C126   C     0.73890   0.48010   0.14486   0.01267  Uiso   1.00
C127   C     0.01100   0.58190   0.35064   0.01267  Uiso   1.00
C128   C     0.98900   0.41810   0.85064   0.01267  Uiso   1.00
C129   C     0.08930   0.63870   0.95044   0.01267  Uiso   1.00
C130   C     0.26220   0.53770   0.04960   0.01267  Uiso   1.00
C131   C     0.06320   0.41830   0.14958   0.01267  Uiso   1.00
C132   C     0.39230   0.12320   0.34971   0.01267  Uiso   1.00
C133   C     0.56760   0.06780   0.45187   0.01267  Uiso   1.00
C134   C     0.16460   0.47860   0.85249   0.01267  Uiso   1.00
C135   C     0.83740   0.60380   0.55067   0.01267  Uiso   1.00
C136   C     0.66260   0.10380   0.55067   0.01267  Uiso   1.00
C137   C     0.66460   0.02140   0.35249   0.01267  Uiso   1.00
C138   C     0.70740   0.20340   0.75000   0.01267  Uiso   1.00
C139   C     0.35400   0.88920   0.85274   0.01267  Uiso   1.00
C140   C     0.83540   0.52140   0.35249   0.01267  Uiso   1.00
C141   C     0.50290   0.08900   0.54976   0.01267  Uiso   1.00
C142   C     0.99180   0.49240   0.35020   0.01267  Uiso   1.00
C143   C     0.74250   0.16820   0.55010   0.01267  Uiso   1.00
C144   C     0.33740   0.89620   0.05067   0.01267  Uiso   1.00
C145   C     0.98840   0.49820   0.95071   0.01267  Uiso   1.00
C146   C     0.11590   0.62410   0.75000   0.01267  Uiso   1.00
C147   C     0.64600   0.11080   0.35274   0.01267  Uiso   1.00
C148   C     0.33540   0.97860   0.85249   0.01267  Uiso   1.00
C149   C     0.76090   0.00370   0.75000   0.01267  Uiso   1.00
C150   C     0.98840   0.49820   0.54929   0.01267  Uiso   1.00
C151   C     0.01100   0.58190   0.14936   0.01267  Uiso   1.00
C152   C     0.94010   0.57610   0.25000   0.01267  Uiso   1.00
C153   C     0.51160   0.99820   0.95071   0.01267  Uiso   1.00
C154   C     0.75750   0.66820   0.55010   0.01267  Uiso   1.00
C155   C     0.83540   0.52140   0.14751   0.01267  Uiso   1.00
C156   C     0.23890   0.01990   0.85514   0.01267  Uiso   1.00
C157   C     0.48840   0.00180   0.04929   0.01267  Uiso   1.00
C158   C     0.33750   0.95850   0.25000   0.01267  Uiso   1.00
C159   C     0.58930   0.86130   0.04956   0.01267  Uiso   1.00
C160   C     0.76220   0.96230   0.95040   0.01267  Uiso   1.00
N1     N     0.05820   0.35830   0.64781   0.01267  Uiso   1.00
N2     N     0.59600   0.96140   0.94976   0.01267  Uiso   1.00
N3     N     0.05820   0.35830   0.85219   0.01267  Uiso   1.00
N4     N     0.94180   0.64170   0.35219   0.01267  Uiso   1.00
N5     N     0.09640   0.53630   0.85137   0.01267  Uiso   1.00
N6     N     0.55820   0.14170   0.35219   0.01267  Uiso   1.00
N7     N     0.59640   0.96370   0.14863   0.01267  Uiso   1.00
N8     N     0.04790   0.34650   0.25000   0.01267  Uiso   1.00
N9     N     0.07840   0.35860   0.05021   0.01267  Uiso   1.00
N10    N     0.94180   0.64170   0.14781   0.01267  Uiso   1.00
N11    N     0.57840   0.14140   0.55021   0.01267  Uiso   1.00
N12    N     0.57840   0.14140   0.94979   0.01267  Uiso   1.00
N13    N     0.40400   0.03860   0.05024   0.01267  Uiso   1.00
N14    N     0.09600   0.53860   0.05024   0.01267  Uiso   1.00
N15    N     0.92160   0.64140   0.55021   0.01267  Uiso   1.00
N16    N     0.92160   0.64140   0.94979   0.01267  Uiso   1.00
N17    N     0.44180   0.85830   0.64781   0.01267  Uiso   1.00
N18    N     0.95210   0.65350   0.75000   0.01267  Uiso   1.00
N19    N     0.59620   0.97800   0.75000   0.01267  Uiso   1.00
N20    N     0.90400   0.46140   0.94976   0.01267  Uiso   1.00
N21    N     0.44180   0.85830   0.85219   0.01267  Uiso   1.00
N22    N     0.40360   0.03630   0.85137   0.01267  Uiso   1.00
N23    N     0.90380   0.47800   0.75000   0.01267  Uiso   1.00
N24    N     0.42160   0.85860   0.44979   0.01267  Uiso   1.00
N25    N     0.40360   0.03630   0.64863   0.01267  Uiso   1.00
N26    N     0.09640   0.53630   0.64863   0.01267  Uiso   1.00
N27    N     0.90400   0.46140   0.55024   0.01267  Uiso   1.00
N28    N     0.54790   0.15350   0.75000   0.01267  Uiso   1.00
N29    N     0.07840   0.35860   0.44979   0.01267  Uiso   1.00
N30    N     0.42160   0.85860   0.05021   0.01267  Uiso   1.00
N31    N     0.59640   0.96370   0.35137   0.01267  Uiso   1.00
N32    N     0.09620   0.52200   0.25000   0.01267  Uiso   1.00
N33    N     0.55820   0.14170   0.14781   0.01267  Uiso   1.00
N34    N     0.45210   0.84650   0.25000   0.01267  Uiso   1.00
N35    N     0.40380   0.02200   0.25000   0.01267  Uiso   1.00
N36    N     0.90360   0.46370   0.35137   0.01267  Uiso   1.00
N37    N     0.40400   0.03860   0.44976   0.01267  Uiso   1.00
N38    N     0.90360   0.46370   0.14863   0.01267  Uiso   1.00
N39    N     0.09600   0.53860   0.44976   0.01267  Uiso   1.00
N40    N     0.59600   0.96140   0.55024   0.01267  Uiso   1.00
O1     O     0.12160   0.65900   0.51617   0.01267  Uiso   1.00
O2     O     0.25790   0.78350   0.61445   0.01267  Uiso   1.00
O3     O     0.75510   0.20560   0.32052   0.01267  Uiso   1.00
O4     O     0.52130   0.15100   0.25000   0.01267  Uiso   1.00
O5     O     0.14750   0.46110   0.95270   0.01267  Uiso   1.00
O6     O     0.76130   0.89680   0.35546   0.01267  Uiso   1.00
O7     O     0.34730   0.14080   0.78333   0.01267  Uiso   1.00
O8     O     0.17020   0.97150   0.64290   0.01267  Uiso   1.00
O9     O     0.12270   0.65870   0.58267   0.01267  Uiso   1.00
O10    O     0.15270   0.64080   0.71667   0.01267  Uiso   1.00
O11    O     0.67020   0.52850   0.35710   0.01267  Uiso   1.00
O12    O     0.36320   0.15110   0.38273   0.01267  Uiso   1.00
O13    O     0.37840   0.15900   0.51617   0.01267  Uiso   1.00
O14    O     0.21580   0.81310   0.41798   0.01267  Uiso   1.00
O15    O     0.02130   0.34900   0.75000   0.01267  Uiso   1.00
O16    O     0.71580   0.68690   0.91798   0.01267  Uiso   1.00
O17    O     0.73870   0.39680   0.14454   0.01267  Uiso   1.00
O18    O     0.24210   0.28350   0.61445   0.01267  Uiso   1.00
O19    O     0.85250   0.53890   0.45270   0.01267  Uiso   1.00
O20    O     0.65270   0.85920   0.28333   0.01267  Uiso   1.00
O21    O     0.24120   0.79350   0.48200   0.01267  Uiso   1.00
O22    O     0.28420   0.31310   0.08202   0.01267  Uiso   1.00
O23    O     0.14870   0.62630   0.31714   0.01267  Uiso   1.00
O24    O     0.45790   0.85190   0.95172   0.01267  Uiso   1.00
O25    O     0.62270   0.84130   0.41733   0.01267  Uiso   1.00
O26    O     0.04210   0.35190   0.95172   0.01267  Uiso   1.00
O27    O     0.62160   0.84100   0.01617   0.01267  Uiso   1.00
O28    O     0.26630   0.76700   0.28256   0.01267  Uiso   1.00
O29    O     0.23280   0.07880   0.25000   0.01267  Uiso   1.00
O30    O     0.82980   0.02850   0.14290   0.01267  Uiso   1.00
O31    O     0.66480   0.50440   0.54870   0.01267  Uiso   1.00
O32    O     0.24490   0.79440   0.82052   0.01267  Uiso   1.00
O33    O     0.17020   0.97150   0.85710   0.01267  Uiso   1.00
O34    O     0.73370   0.23300   0.78256   0.01267  Uiso   1.00
O35    O     0.35250   0.96110   0.54730   0.01267  Uiso   1.00
O36    O     0.85670   0.55950   0.25000   0.01267  Uiso   1.00
O37    O     0.73370   0.23300   0.71744   0.01267  Uiso   1.00
O38    O     0.65270   0.85920   0.21667   0.01267  Uiso   1.00
O39    O     0.78420   0.18690   0.91798   0.01267  Uiso   1.00
O40    O     0.76630   0.73300   0.71744   0.01267  Uiso   1.00
O41    O     0.24210   0.28350   0.88555   0.01267  Uiso   1.00
O42    O     0.13680   0.65110   0.38273   0.01267  Uiso   1.00
O43    O     0.63680   0.84890   0.88273   0.01267  Uiso   1.00
O44    O     0.85400   0.56240   0.85266   0.01267  Uiso   1.00
O45    O     0.85400   0.56240   0.64734   0.01267  Uiso   1.00
O46    O     0.62270   0.84130   0.08267   0.01267  Uiso   1.00
O47    O     0.73280   0.42120   0.75000   0.01267  Uiso   1.00
O48    O     0.85130   0.37370   0.68286   0.01267  Uiso   1.00
O49    O     0.86320   0.34890   0.88273   0.01267  Uiso   1.00
O50    O     0.28420   0.31310   0.41798   0.01267  Uiso   1.00
O51    O     0.35250   0.96110   0.95270   0.01267  Uiso   1.00
O52    O     0.97140   0.65830   0.84947   0.01267  Uiso   1.00
O53    O     0.64870   0.87370   0.81714   0.01267  Uiso   1.00
O54    O     0.76630   0.73300   0.78256   0.01267  Uiso   1.00
O55    O     0.23870   0.10320   0.85546   0.01267  Uiso   1.00
O56    O     0.24530   0.12030   0.04971   0.01267  Uiso   1.00
O57    O     0.52860   0.15830   0.65053   0.01267  Uiso   1.00
O58    O     0.83520   0.00440   0.95130   0.01267  Uiso   1.00
O59    O     0.74490   0.70560   0.32052   0.01267  Uiso   1.00
O60    O     0.45790   0.85190   0.54828   0.01267  Uiso   1.00
O61    O     0.34730   0.14080   0.71667   0.01267  Uiso   1.00
O62    O     0.95790   0.64810   0.45172   0.01267  Uiso   1.00
O63    O     0.71580   0.68690   0.58202   0.01267  Uiso   1.00
O64    O     0.87730   0.34130   0.41733   0.01267  Uiso   1.00
O65    O     0.75790   0.71650   0.38555   0.01267  Uiso   1.00
O66    O     0.14870   0.62630   0.18286   0.01267  Uiso   1.00
O67    O     0.04210   0.35190   0.54828   0.01267  Uiso   1.00
O68    O     0.74120   0.70650   0.51800   0.01267  Uiso   1.00
O69    O     0.74120   0.70650   0.98200   0.01267  Uiso   1.00
O70    O     0.14750   0.46110   0.54730   0.01267  Uiso   1.00
O71    O     0.14600   0.43760   0.35266   0.01267  Uiso   1.00
O72    O     0.74490   0.70560   0.17948   0.01267  Uiso   1.00
O73    O     0.47140   0.84170   0.15053   0.01267  Uiso   1.00
O74    O     0.64870   0.87370   0.68286   0.01267  Uiso   1.00
O75    O     0.15270   0.64080   0.78333   0.01267  Uiso   1.00
O76    O     0.74210   0.21650   0.11445   0.01267  Uiso   1.00
O77    O     0.84730   0.35920   0.28333   0.01267  Uiso   1.00
O78    O     0.75880   0.20650   0.51800   0.01267  Uiso   1.00
O79    O     0.25510   0.29440   0.82052   0.01267  Uiso   1.00
O80    O     0.23870   0.10320   0.64454   0.01267  Uiso   1.00
O81    O     0.25510   0.29440   0.67948   0.01267  Uiso   1.00
O82    O     0.33520   0.49560   0.04870   0.01267  Uiso   1.00
O83    O     0.78420   0.18690   0.58202   0.01267  Uiso   1.00
O84    O     0.24530   0.12030   0.45029   0.01267  Uiso   1.00
O85    O     0.64750   0.03890   0.45270   0.01267  Uiso   1.00
O86    O     0.02860   0.34170   0.15053   0.01267  Uiso   1.00
O87    O     0.75470   0.87970   0.95029   0.01267  Uiso   1.00
O88    O     0.84730   0.35920   0.21667   0.01267  Uiso   1.00
O89    O     0.25790   0.78350   0.88555   0.01267  Uiso   1.00
O90    O     0.87840   0.34100   0.48383   0.01267  Uiso   1.00
O91    O     0.74210   0.21650   0.38555   0.01267  Uiso   1.00
O92    O     0.87840   0.34100   0.01617   0.01267  Uiso   1.00
O93    O     0.32980   0.47150   0.64290   0.01267  Uiso   1.00
O94    O     0.12270   0.65870   0.91733   0.01267  Uiso   1.00
O95    O     0.35400   0.93760   0.35266   0.01267  Uiso   1.00
O96    O     0.75790   0.71650   0.11445   0.01267  Uiso   1.00
O97    O     0.13680   0.65110   0.11727   0.01267  Uiso   1.00
O98    O     0.66480   0.50440   0.95130   0.01267  Uiso   1.00
O99    O     0.76720   0.92120   0.75000   0.01267  Uiso   1.00
O100   O     0.25880   0.29350   0.48200   0.01267  Uiso   1.00
O101   O     0.64600   0.06240   0.64734   0.01267  Uiso   1.00
O102   O     0.85130   0.37370   0.81714   0.01267  Uiso   1.00
O103   O     0.02860   0.34170   0.34947   0.01267  Uiso   1.00
O104   O     0.36320   0.15110   0.11727   0.01267  Uiso   1.00
O105   O     0.87730   0.34130   0.08267   0.01267  Uiso   1.00
O106   O     0.23370   0.26700   0.21744   0.01267  Uiso   1.00
O107   O     0.97870   0.65100   0.25000   0.01267  Uiso   1.00
O108   O     0.85250   0.53890   0.04730   0.01267  Uiso   1.00
O109   O     0.37730   0.15870   0.58267   0.01267  Uiso   1.00
O110   O     0.33520   0.49560   0.45130   0.01267  Uiso   1.00
O111   O     0.47870   0.84900   0.75000   0.01267  Uiso   1.00
O112   O     0.64750   0.03890   0.04730   0.01267  Uiso   1.00
O113   O     0.24120   0.79350   0.01800   0.01267  Uiso   1.00
O114   O     0.17370   0.94230   0.25000   0.01267  Uiso   1.00
O115   O     0.16480   0.99560   0.04870   0.01267  Uiso   1.00
O116   O     0.73870   0.39680   0.35546   0.01267  Uiso   1.00
O117   O     0.82630   0.05770   0.75000   0.01267  Uiso   1.00
O118   O     0.32630   0.44230   0.25000   0.01267  Uiso   1.00
O119   O     0.95790   0.64810   0.04828   0.01267  Uiso   1.00
O120   O     0.25880   0.29350   0.01800   0.01267  Uiso   1.00
O121   O     0.54210   0.14810   0.45172   0.01267  Uiso   1.00
O122   O     0.86320   0.34890   0.61727   0.01267  Uiso   1.00
O123   O     0.26130   0.60320   0.64454   0.01267  Uiso   1.00
O124   O     0.74530   0.37970   0.95029   0.01267  Uiso   1.00
O125   O     0.67020   0.52850   0.14290   0.01267  Uiso   1.00
O126   O     0.52860   0.15830   0.84947   0.01267  Uiso   1.00
O127   O     0.12160   0.65900   0.98383   0.01267  Uiso   1.00
O128   O     0.75510   0.20560   0.17948   0.01267  Uiso   1.00
O129   O     0.83520   0.00440   0.54870   0.01267  Uiso   1.00
O130   O     0.26720   0.57880   0.25000   0.01267  Uiso   1.00
O131   O     0.82980   0.02850   0.35710   0.01267  Uiso   1.00
O132   O     0.32980   0.47150   0.85710   0.01267  Uiso   1.00
O133   O     0.76130   0.89680   0.14454   0.01267  Uiso   1.00
O134   O     0.23370   0.26700   0.28256   0.01267  Uiso   1.00
O135   O     0.25470   0.62030   0.04971   0.01267  Uiso   1.00
O136   O     0.35130   0.12630   0.31714   0.01267  Uiso   1.00
O137   O     0.35130   0.12630   0.18286   0.01267  Uiso   1.00
O138   O     0.62160   0.84100   0.48383   0.01267  Uiso   1.00
O139   O     0.21580   0.81310   0.08202   0.01267  Uiso   1.00
O140   O     0.54210   0.14810   0.04828   0.01267  Uiso   1.00
O141   O     0.35670   0.94050   0.75000   0.01267  Uiso   1.00
O142   O     0.64330   0.05950   0.25000   0.01267  Uiso   1.00
O143   O     0.16480   0.99560   0.45130   0.01267  Uiso   1.00
O144   O     0.26130   0.60320   0.85546   0.01267  Uiso   1.00
O145   O     0.75470   0.87970   0.54971   0.01267  Uiso   1.00
O146   O     0.75880   0.20650   0.98200   0.01267  Uiso   1.00
O147   O     0.64600   0.06240   0.85266   0.01267  Uiso   1.00
O148   O     0.63680   0.84890   0.61727   0.01267  Uiso   1.00
O149   O     0.35400   0.93760   0.14734   0.01267  Uiso   1.00
O150   O     0.37730   0.15870   0.91733   0.01267  Uiso   1.00
O151   O     0.47140   0.84170   0.34947   0.01267  Uiso   1.00
O152   O     0.25470   0.62030   0.45029   0.01267  Uiso   1.00
O153   O     0.24490   0.79440   0.67948   0.01267  Uiso   1.00
O154   O     0.14330   0.44050   0.75000   0.01267  Uiso   1.00
O155   O     0.26630   0.76700   0.21744   0.01267  Uiso   1.00
O156   O     0.37840   0.15900   0.98383   0.01267  Uiso   1.00
O157   O     0.74530   0.37970   0.54971   0.01267  Uiso   1.00
O158   O     0.14600   0.43760   0.14734   0.01267  Uiso   1.00
O159   O     0.97140   0.65830   0.65053   0.01267  Uiso   1.00
O160   O     0.67370   0.55770   0.75000   0.01267  Uiso   1.00
