data_HIYYEU_clean
_audit_creation_date              2014-07-02
_audit_creation_method            'Materials Studio'
_symmetry_space_group_name_H-M    'P1'
_symmetry_Int_Tables_number       1
_symmetry_cell_setting            triclinic
loop_
_symmetry_equiv_pos_as_xyz
  x,y,z
_cell_length_a                    14.7173
_cell_length_b                    14.7173
_cell_length_c                    16.6563
_cell_angle_alpha                 79.3109
_cell_angle_beta                  73.1309
_cell_angle_gamma                 117.4950
loop_
_atom_site_label
_atom_site_type_symbol
_atom_site_fract_x
_atom_site_fract_y
_atom_site_fract_z
_atom_site_U_iso_or_equiv
_atom_site_adp_type
_atom_site_occupancy
Ni1    Ni    0.50000   0.00000   0.50000   0.01267  Uiso   1.00
Ni2    Ni    0.00000   0.00000   0.00000   0.01267  Uiso   1.00
Ni3    Ni    0.50000   0.00000  -0.00000   0.01267  Uiso   1.00
Ni4    Ni    0.50000   0.50000   0.50000   0.01267  Uiso   1.00
Mo1    Mo    0.59476   0.84476   0.25000   0.01267  Uiso   1.00
Mo2    Mo    0.40524   0.15524   0.75000   0.01267  Uiso   1.00
H1     H     0.33780   0.88800   0.65380   0.01267  Uiso   1.00
H2     H     0.58040   0.89190   0.51410   0.01267  Uiso   1.00
H3     H     0.38100   0.87640   0.93840   0.01267  Uiso   1.00
H4     H     0.37600   0.87990   0.15470   0.01267  Uiso   1.00
H5     H     0.38410   0.74860   0.58890   0.01267  Uiso   1.00
H6     H     0.31920   0.72600   0.69340   0.01267  Uiso   1.00
H7     H     0.48410   0.87800   0.68450   0.01267  Uiso   1.00
H8     H     0.51360   0.79370   0.65470   0.01267  Uiso   1.00
H9     H     0.68630   0.04190   0.56640   0.01267  Uiso   1.00
H10    H     0.76270   0.04280   0.39430   0.01267  Uiso   1.00
H11    H     0.84720   0.11120   0.43300   0.01267  Uiso   1.00
H12    H     0.68330   0.88770   0.63440   0.01267  Uiso   1.00
H13    H     0.80490   0.00120   0.57810   0.01267  Uiso   1.00
H14    H     0.76520   0.90820   0.53600   0.01267  Uiso   1.00
H15    H     0.23040   0.69140   0.55940   0.01267  Uiso   1.00
H16    H     0.16090   0.73500   0.52630   0.01267  Uiso   1.00
H17    H     0.29640   0.80480   0.47440   0.01267  Uiso   1.00
H18    H     0.13940   0.78590   0.72990   0.01267  Uiso   1.00
H19    H     0.06720   0.71440   0.68400   0.01267  Uiso   1.00
H20    H     0.14440   0.68300   0.71700   0.01267  Uiso   1.00
H21    H     0.36100   0.74530   0.09230   0.01267  Uiso   1.00
H22    H     0.27250   0.70930   0.04820   0.01267  Uiso   1.00
H23    H     0.23310   0.84290   0.07640   0.01267  Uiso   1.00
H24    H     0.21030   0.76310   0.17000   0.01267  Uiso   1.00
H25    H     0.30270   0.00260   0.13550   0.01267  Uiso   1.00
H26    H     0.46250   0.03410   0.20160   0.01267  Uiso   1.00
H27    H     0.38560   0.08250   0.22470   0.01267  Uiso   1.00
H28    H     0.15970   0.83480   0.25450   0.01267  Uiso   1.00
H29    H     0.19270   0.94420   0.27630   0.01267  Uiso   1.00
H30    H     0.23540   0.86830   0.30910   0.01267  Uiso   1.00
H31    H     0.37420   0.77090   0.85210   0.01267  Uiso   1.00
H32    H     0.46340   0.73510   0.82970   0.01267  Uiso   1.00
H33    H     0.36080   0.67570   0.92870   0.01267  Uiso   1.00
H34    H     0.48610   0.71890   0.00300   0.01267  Uiso   1.00
H35    H     0.59320   0.77470   0.90730   0.01267  Uiso   1.00
H36    H     0.59170   0.84230   0.97200   0.01267  Uiso   1.00
H37    H     0.04180   0.99160   0.84620   0.01267  Uiso   1.00
H38    H     0.90600   0.09450   0.98590   0.01267  Uiso   1.00
H39    H     0.31480   0.31940   0.56160   0.01267  Uiso   1.00
H40    H     0.53460   0.53070   0.34530   0.01267  Uiso   1.00
H41    H     0.83750   0.97300   0.91110   0.01267  Uiso   1.00
H42    H     0.91940   0.01260   0.80660   0.01267  Uiso   1.00
H43    H     0.06250   0.16860   0.81550   0.01267  Uiso   1.00
H44    H     0.94840   0.16830   0.84530   0.01267  Uiso   1.00
H45    H     0.10830   0.25270   0.93360   0.01267  Uiso   1.00
H46    H     0.93710   0.15700   0.10570   0.01267  Uiso   1.00
H47    H     0.04420   0.28020   0.06700   0.01267  Uiso   1.00
H48    H     0.02210   0.31770   0.86560   0.01267  Uiso   1.00
H49    H     0.07930   0.38300   0.92190   0.01267  Uiso   1.00
H50    H     0.94420   0.30120   0.96400   0.01267  Uiso   1.00
H51    H     0.75080   0.78980   0.94060   0.01267  Uiso   1.00
H52    H     0.76130   0.68720   0.97370   0.01267  Uiso   1.00
H53    H     0.77920   0.77080   0.02560   0.01267  Uiso   1.00
H54    H     0.01580   0.86930   0.77010   0.01267  Uiso   1.00
H55    H     0.89840   0.75120   0.81600   0.01267  Uiso   1.00
H56    H     0.90000   0.86140   0.78300   0.01267  Uiso   1.00
H57    H     0.33760   0.45330   0.40770   0.01267  Uiso   1.00
H58    H     0.25750   0.32070   0.45180   0.01267  Uiso   1.00
H59    H     0.41930   0.30950   0.42360   0.01267  Uiso   1.00
H60    H     0.43310   0.38030   0.33000   0.01267  Uiso   1.00
H61    H     0.63810   0.43820   0.36450   0.01267  Uiso   1.00
H62    H     0.73570   0.66410   0.29840   0.01267  Uiso   1.00
H63    H     0.80720   0.61030   0.27530   0.01267  Uiso   1.00
H64    H     0.58930   0.41420   0.24550   0.01267  Uiso   1.00
H65    H     0.72050   0.46900   0.22370   0.01267  Uiso   1.00
H66    H     0.67740   0.54450   0.19090   0.01267  Uiso   1.00
H67    H     0.12300   0.22630   0.64790   0.01267  Uiso   1.00
H68    H     0.06480   0.29310   0.67030   0.01267  Uiso   1.00
H69    H     0.10440   0.28950   0.57130   0.01267  Uiso   1.00
H70    H     0.22190   0.48910   0.49700   0.01267  Uiso   1.00
H71    H     0.18200   0.50050   0.59270   0.01267  Uiso   1.00
H72    H     0.31430   0.56370   0.52800   0.01267  Uiso   1.00
H73    H     0.66220   0.11200   0.34620   0.01267  Uiso   1.00
H74    H     0.41960   0.10810   0.48590   0.01267  Uiso   1.00
H75    H     0.61900   0.12360   0.06160   0.01267  Uiso   1.00
H76    H     0.62400   0.12010   0.84530   0.01267  Uiso   1.00
H77    H     0.61590   0.25140   0.41110   0.01267  Uiso   1.00
H78    H     0.68080   0.27400   0.30660   0.01267  Uiso   1.00
H79    H     0.51590   0.12200   0.31550   0.01267  Uiso   1.00
H80    H     0.48640   0.20630   0.34530   0.01267  Uiso   1.00
H81    H     0.31370   0.95810   0.43360   0.01267  Uiso   1.00
H82    H     0.23730   0.95720   0.60570   0.01267  Uiso   1.00
H83    H     0.15280   0.88880   0.56700   0.01267  Uiso   1.00
H84    H     0.31670   0.11230   0.36560   0.01267  Uiso   1.00
H85    H     0.19510   0.99880   0.42190   0.01267  Uiso   1.00
H86    H     0.23480   0.09180   0.46400   0.01267  Uiso   1.00
H87    H     0.76960   0.30860   0.44060   0.01267  Uiso   1.00
H88    H     0.83910   0.26500   0.47370   0.01267  Uiso   1.00
H89    H     0.70360   0.19520   0.52560   0.01267  Uiso   1.00
H90    H     0.86060   0.21410   0.27010   0.01267  Uiso   1.00
H91    H     0.93280   0.28560   0.31600   0.01267  Uiso   1.00
H92    H     0.85560   0.31700   0.28300   0.01267  Uiso   1.00
H93    H     0.63900   0.25470   0.90770   0.01267  Uiso   1.00
H94    H     0.72750   0.29070   0.95180   0.01267  Uiso   1.00
H95    H     0.76690   0.15710   0.92360   0.01267  Uiso   1.00
H96    H     0.78970   0.23690   0.83000   0.01267  Uiso   1.00
H97    H     0.69730   0.99740   0.86450   0.01267  Uiso   1.00
H98    H     0.53750   0.96590   0.79840   0.01267  Uiso   1.00
H99    H     0.61440   0.91750   0.77530   0.01267  Uiso   1.00
H100   H     0.84030   0.16520   0.74550   0.01267  Uiso   1.00
H101   H     0.80730   0.05580   0.72370   0.01267  Uiso   1.00
H102   H     0.76460   0.13170   0.69090   0.01267  Uiso   1.00
H103   H     0.62580   0.22910   0.14790   0.01267  Uiso   1.00
H104   H     0.53660   0.26490   0.17030   0.01267  Uiso   1.00
H105   H     0.63920   0.32430   0.07130   0.01267  Uiso   1.00
H106   H     0.51390   0.28110   0.99700   0.01267  Uiso   1.00
H107   H     0.40680   0.22530   0.09270   0.01267  Uiso   1.00
H108   H     0.40830   0.15770   0.02800   0.01267  Uiso   1.00
H109   H     0.95820   0.00840   0.15380   0.01267  Uiso   1.00
H110   H     0.09400   0.90550   0.01410   0.01267  Uiso   1.00
H111   H     0.68520   0.68060   0.43840   0.01267  Uiso   1.00
H112   H     0.46540   0.46930   0.65470   0.01267  Uiso   1.00
H113   H     0.16250   0.02700   0.08890   0.01267  Uiso   1.00
H114   H     0.08060   0.98740   0.19340   0.01267  Uiso   1.00
H115   H     0.93750   0.83140   0.18450   0.01267  Uiso   1.00
H116   H     0.05160   0.83170   0.15470   0.01267  Uiso   1.00
H117   H     0.89170   0.74730   0.06640   0.01267  Uiso   1.00
H118   H     0.06290   0.84300   0.89430   0.01267  Uiso   1.00
H119   H     0.95580   0.71980   0.93300   0.01267  Uiso   1.00
H120   H     0.97790   0.68230   0.13440   0.01267  Uiso   1.00
H121   H     0.92070   0.61700   0.07810   0.01267  Uiso   1.00
H122   H     0.05580   0.69880   0.03600   0.01267  Uiso   1.00
H123   H     0.24920   0.21020   0.05940   0.01267  Uiso   1.00
H124   H     0.23870   0.31280   0.02630   0.01267  Uiso   1.00
H125   H     0.22080   0.22920   0.97440   0.01267  Uiso   1.00
H126   H     0.98420   0.13070   0.22990   0.01267  Uiso   1.00
H127   H     0.10160   0.24880   0.18400   0.01267  Uiso   1.00
H128   H     0.10000   0.13860   0.21700   0.01267  Uiso   1.00
H129   H     0.66240   0.54670   0.59230   0.01267  Uiso   1.00
H130   H     0.74250   0.67930   0.54820   0.01267  Uiso   1.00
H131   H     0.58070   0.69050   0.57640   0.01267  Uiso   1.00
H132   H     0.56690   0.61970   0.67000   0.01267  Uiso   1.00
H133   H     0.36190   0.56180   0.63550   0.01267  Uiso   1.00
H134   H     0.26430   0.33590   0.70160   0.01267  Uiso   1.00
H135   H     0.19280   0.38970   0.72470   0.01267  Uiso   1.00
H136   H     0.41070   0.58580   0.75450   0.01267  Uiso   1.00
H137   H     0.27950   0.53100   0.77630   0.01267  Uiso   1.00
H138   H     0.32260   0.45550   0.80910   0.01267  Uiso   1.00
H139   H     0.87700   0.77370   0.35210   0.01267  Uiso   1.00
H140   H     0.93520   0.70690   0.32970   0.01267  Uiso   1.00
H141   H     0.89560   0.71050   0.42870   0.01267  Uiso   1.00
H142   H     0.77810   0.51090   0.50300   0.01267  Uiso   1.00
H143   H     0.81800   0.49950   0.40730   0.01267  Uiso   1.00
H144   H     0.68570   0.43630   0.47200   0.01267  Uiso   1.00
C1     C     0.57537   0.90034   0.13195   0.01267  Uiso   1.00
C2     C     0.37849   0.78428   0.63343   0.01267  Uiso   1.00
C3     C     0.49110   0.84565   0.63779   0.01267  Uiso   1.00
C4     C     0.68767   0.99343   0.53170   0.01267  Uiso   1.00
C5     C     0.76956   0.08086   0.43736   0.01267  Uiso   1.00
C6     C     0.23914   0.82077   0.59673   0.01267  Uiso   1.00
C7     C     0.73983   0.94324   0.57373   0.01267  Uiso   1.00
C8     C     0.23097   0.75731   0.53360   0.01267  Uiso   1.00
C9     C     0.13840   0.74405   0.69041   0.01267  Uiso   1.00
C10    C     0.32821   0.77228   0.05755   0.01267  Uiso   1.00
C11    C     0.26980   0.82001   0.10955   0.01267  Uiso   1.00
C12    C     0.32570   0.96340   0.17250   0.01267  Uiso   1.00
C13    C     0.42118   0.06100   0.17828   0.01267  Uiso   1.00
C14    C     0.48984   0.83314   0.90658   0.01267  Uiso   1.00
C15    C     0.21894   0.89679   0.26093   0.01267  Uiso   1.00
C16    C     0.41530   0.74583   0.87655   0.01267  Uiso   1.00
C17    C     0.54514   0.78826   0.95120   0.01267  Uiso   1.00
C18    C     0.53072   0.89211   0.35507   0.01267  Uiso   1.00
C19    C     0.41369   0.76378   0.29149   0.01267  Uiso   1.00
C20    C     0.72249   0.88400   0.30117   0.01267  Uiso   1.00
C21    C     0.53229   0.70732   0.36805   0.01267  Uiso   1.00
C22    C     0.91771   0.01192   0.86657   0.01267  Uiso   1.00
C23    C     0.98344   0.12889   0.86221   0.01267  Uiso   1.00
C24    C     0.02513   0.21937   0.96830   0.01267  Uiso   1.00
C25    C     0.01822   0.20692   0.06264   0.01267  Uiso   1.00
C26    C     0.91750   0.83587   0.90327   0.01267  Uiso   1.00
C27    C     0.01697   0.31356   0.92627   0.01267  Uiso   1.00
C28    C     0.79091   0.76457   0.96640   0.01267  Uiso   1.00
C29    C     0.93446   0.82881   0.80959   0.01267  Uiso   1.00
C30    C     0.32983   0.38576   0.44245   0.01267  Uiso   1.00
C31    C     0.42956   0.37935   0.39045   0.01267  Uiso   1.00
C32    C     0.63590   0.49820   0.32750   0.01267  Uiso   1.00
C33    C     0.73928   0.59946   0.32172   0.01267  Uiso   1.00
C34    C     0.23972   0.39642   0.59342   0.01267  Uiso   1.00
C35    C     0.65772   0.47987   0.23907   0.01267  Uiso   1.00
C36    C     0.12238   0.29185   0.62345   0.01267  Uiso   1.00
C37    C     0.23946   0.49634   0.54880   0.01267  Uiso   1.00
C38    C     0.74718   0.88579   0.14493   0.01267  Uiso   1.00
C39    C     0.55527   0.70518   0.20851   0.01267  Uiso   1.00
C40    C     0.68517   0.02366   0.19883   0.01267  Uiso   1.00
C41    C     0.42463   0.09966   0.86805   0.01267  Uiso   1.00
C42    C     0.62151   0.21572   0.36657   0.01267  Uiso   1.00
C43    C     0.50890   0.15435   0.36221   0.01267  Uiso   1.00
C44    C     0.31233   0.00657   0.46830   0.01267  Uiso   1.00
C45    C     0.23044   0.91914   0.56264   0.01267  Uiso   1.00
C46    C     0.76086   0.17923   0.40327   0.01267  Uiso   1.00
C47    C     0.26017   0.05676   0.42627   0.01267  Uiso   1.00
C48    C     0.76903   0.24269   0.46640   0.01267  Uiso   1.00
C49    C     0.86160   0.25595   0.30959   0.01267  Uiso   1.00
C50    C     0.67179   0.22772   0.94245   0.01267  Uiso   1.00
C51    C     0.73020   0.17999   0.89045   0.01267  Uiso   1.00
C52    C     0.67430   0.03660   0.82750   0.01267  Uiso   1.00
C53    C     0.57882   0.93900   0.82172   0.01267  Uiso   1.00
C54    C     0.51016   0.16686   0.09342   0.01267  Uiso   1.00
C55    C     0.78106   0.10321   0.73907   0.01267  Uiso   1.00
C56    C     0.58470   0.25417   0.12345   0.01267  Uiso   1.00
C57    C     0.45486   0.21174   0.04880   0.01267  Uiso   1.00
C58    C     0.46928   0.10789   0.64493   0.01267  Uiso   1.00
C59    C     0.58631   0.23622   0.70851   0.01267  Uiso   1.00
C60    C     0.27751   0.11600   0.69883   0.01267  Uiso   1.00
C61    C     0.46771   0.29268   0.63195   0.01267  Uiso   1.00
C62    C     0.08229   0.98808   0.13343   0.01267  Uiso   1.00
C63    C     0.01656   0.87111   0.13779   0.01267  Uiso   1.00
C64    C     0.97487   0.78063   0.03170   0.01267  Uiso   1.00
C65    C     0.98178   0.79308   0.93736   0.01267  Uiso   1.00
C66    C     0.08250   0.16413   0.09673   0.01267  Uiso   1.00
C67    C     0.98303   0.68644   0.07373   0.01267  Uiso   1.00
C68    C     0.20909   0.23543   0.03360   0.01267  Uiso   1.00
C69    C     0.06554   0.17119   0.19041   0.01267  Uiso   1.00
C70    C     0.67017   0.61424   0.55755   0.01267  Uiso   1.00
C71    C     0.57044   0.62065   0.60955   0.01267  Uiso   1.00
C72    C     0.36410   0.50180   0.67250   0.01267  Uiso   1.00
C73    C     0.26072   0.40054   0.67828   0.01267  Uiso   1.00
C74    C     0.76028   0.60358   0.40658   0.01267  Uiso   1.00
C75    C     0.34228   0.52013   0.76093   0.01267  Uiso   1.00
C76    C     0.87762   0.70815   0.37655   0.01267  Uiso   1.00
C77    C     0.76054   0.50366   0.45120   0.01267  Uiso   1.00
C78    C     0.25282   0.11421   0.85507   0.01267  Uiso   1.00
C79    C     0.44473   0.29482   0.79149   0.01267  Uiso   1.00
C80    C     0.31483   0.97634   0.80117   0.01267  Uiso   1.00
N1     N     0.34827   0.86383   0.60618   0.01267  Uiso   1.00
N2     N     0.57855   0.93430   0.54883   0.01267  Uiso   1.00
N3     N     0.41926   0.86102   0.96886   0.01267  Uiso   1.00
N4     N     0.35461   0.91567   0.11948   0.01267  Uiso   1.00
N5     N     0.49945   0.91956   0.41103   0.01267  Uiso   1.00
N6     N     0.31694   0.71831   0.31321   0.01267  Uiso   1.00
N7     N     0.79156   0.90191   0.32749   0.01267  Uiso   1.00
N8     N     0.56592   0.93400   0.06896   0.01267  Uiso   1.00
N9     N     0.97001   0.95445   0.89382   0.01267  Uiso   1.00
N10    N     0.98313   0.12738   0.95117   0.01267  Uiso   1.00
N11    N     0.32988   0.38812   0.53114   0.01267  Uiso   1.00
N12    N     0.53515   0.47409   0.38052   0.01267  Uiso   1.00
N13    N     0.83059   0.91048   0.08897   0.01267  Uiso   1.00
N14    N     0.53152   0.63015   0.18679   0.01267  Uiso   1.00
N15    N     0.72940   0.11905   0.17251   0.01267  Uiso   1.00
N16    N     0.50296   0.63488   0.43104   0.01267  Uiso   1.00
N17    N     0.65173   0.13617   0.39382   0.01267  Uiso   1.00
N18    N     0.42145   0.06570   0.45117   0.01267  Uiso   1.00
N19    N     0.58074   0.13898   0.03114   0.01267  Uiso   1.00
N20    N     0.64539   0.08433   0.88052   0.01267  Uiso   1.00
N21    N     0.50055   0.08044   0.58897   0.01267  Uiso   1.00
N22    N     0.68306   0.28169   0.68679   0.01267  Uiso   1.00
N23    N     0.20844   0.09809   0.67251   0.01267  Uiso   1.00
N24    N     0.43408   0.06600   0.93104   0.01267  Uiso   1.00
N25    N     0.02999   0.04555   0.10618   0.01267  Uiso   1.00
N26    N     0.01687   0.87262   0.04883   0.01267  Uiso   1.00
N27    N     0.67012   0.61188   0.46886   0.01267  Uiso   1.00
N28    N     0.46485   0.52591   0.61948   0.01267  Uiso   1.00
N29    N     0.16941   0.08952   0.91103   0.01267  Uiso   1.00
N30    N     0.46848   0.36985   0.81321   0.01267  Uiso   1.00
N31    N     0.27060   0.88095   0.82749   0.01267  Uiso   1.00
N32    N     0.49704   0.36512   0.56896   0.01267  Uiso   1.00
