data_HIYZEV01_clean
_audit_creation_date              2014-07-02
_audit_creation_method            'Materials Studio'
_symmetry_space_group_name_H-M    'P1'
_symmetry_Int_Tables_number       1
_symmetry_cell_setting            triclinic
loop_
_symmetry_equiv_pos_as_xyz
  x,y,z
_cell_length_a                    9.7160
_cell_length_b                    12.1930
_cell_length_c                    12.4423
_cell_angle_alpha                 103.8630
_cell_angle_beta                  112.1240
_cell_angle_gamma                 107.2800
loop_
_atom_site_label
_atom_site_type_symbol
_atom_site_fract_x
_atom_site_fract_y
_atom_site_fract_z
_atom_site_U_iso_or_equiv
_atom_site_adp_type
_atom_site_occupancy
Mn1    Mn    0.21525   0.32873   0.12322   0.01267  Uiso   1.00
Mn2    Mn    0.78475   0.67127   0.87678   0.01267  Uiso   1.00
Mn3    Mn    0.00000   0.00000   0.00000   0.01267  Uiso   1.00
Mn4    Mn    0.00000   0.50000   0.00000   0.01267  Uiso   1.00
H1     H     0.47570   0.35510   0.51210   0.01267  Uiso   1.00
H2     H     0.56080   0.15130   0.71730   0.01267  Uiso   1.00
H3     H     0.34860   0.97230   0.54600   0.01267  Uiso   1.00
H4     H     0.21220   0.98290   0.35440   0.01267  Uiso   1.00
H5     H     0.67900   0.01310   0.84720   0.01267  Uiso   1.00
H6     H     0.39800   0.89810   0.75510   0.01267  Uiso   1.00
H7     H     0.24670   0.97590   0.82820   0.01267  Uiso   1.00
H8     H     0.65320   0.29760   0.06850   0.01267  Uiso   1.00
H9     H     0.52430   0.64490   0.48790   0.01267  Uiso   1.00
H10    H     0.43920   0.84870   0.28270   0.01267  Uiso   1.00
H11    H     0.65140   0.02770   0.45400   0.01267  Uiso   1.00
H12    H     0.78780   0.01710   0.64560   0.01267  Uiso   1.00
H13    H     0.32100   0.98690   0.15280   0.01267  Uiso   1.00
H14    H     0.60200   0.10190   0.24490   0.01267  Uiso   1.00
H15    H     0.75330   0.02410   0.17180   0.01267  Uiso   1.00
H16    H     0.34680   0.70240   0.93150   0.01267  Uiso   1.00
C1     C     0.24310   0.17280   0.28600   0.01267  Uiso   1.00
C2     C     0.33140   0.16940   0.41260   0.01267  Uiso   1.00
C3     C     0.45290   0.27780   0.51810   0.01267  Uiso   1.00
C4     C     0.53990   0.27110   0.63200   0.01267  Uiso   1.00
C5     C     0.50200   0.15630   0.64140   0.01267  Uiso   1.00
C6     C     0.37680   0.04890   0.53840   0.01267  Uiso   1.00
C7     C     0.29400   0.05570   0.42420   0.01267  Uiso   1.00
C8     C     0.87610   0.24100   0.02590   0.01267  Uiso   1.00
C9     C     0.69450   0.16650   0.96760   0.01267  Uiso   1.00
C10    C     0.61740   0.04660   0.87390   0.01267  Uiso   1.00
C11    C     0.44960   0.97690   0.82010   0.01267  Uiso   1.00
C12    C     0.35900   0.02390   0.86280   0.01267  Uiso   1.00
C13    C     0.43510   0.14350   0.95790   0.01267  Uiso   1.00
C14    C     0.60300   0.21620   0.00820   0.01267  Uiso   1.00
C15    C     0.67350   0.38690   0.74650   0.01267  Uiso   1.00
C16    C     0.33830   0.19070   0.00950   0.01267  Uiso   1.00
C17    C     0.75690   0.82720   0.71400   0.01267  Uiso   1.00
C18    C     0.66860   0.83060   0.58740   0.01267  Uiso   1.00
C19    C     0.54710   0.72220   0.48190   0.01267  Uiso   1.00
C20    C     0.46010   0.72890   0.36800   0.01267  Uiso   1.00
C21    C     0.49800   0.84370   0.35860   0.01267  Uiso   1.00
C22    C     0.62320   0.95110   0.46160   0.01267  Uiso   1.00
C23    C     0.70600   0.94430   0.57580   0.01267  Uiso   1.00
C24    C     0.12390   0.75900   0.97410   0.01267  Uiso   1.00
C25    C     0.30550   0.83350   0.03240   0.01267  Uiso   1.00
C26    C     0.38260   0.95340   0.12610   0.01267  Uiso   1.00
C27    C     0.55040   0.02310   0.17990   0.01267  Uiso   1.00
C28    C     0.64100   0.97610   0.13720   0.01267  Uiso   1.00
C29    C     0.56490   0.85650   0.04210   0.01267  Uiso   1.00
C30    C     0.39700   0.78380   0.99180   0.01267  Uiso   1.00
C31    C     0.32650   0.61310   0.25350   0.01267  Uiso   1.00
C32    C     0.66170   0.80930   0.99050   0.01267  Uiso   1.00
O1     O     0.28230   0.27675   0.27810   0.01267  Uiso   1.00
O2     O     0.13693   0.06965   0.19663   0.01267  Uiso   1.00
O3     O     0.96387   0.18350   0.02027   0.01267  Uiso   1.00
O4     O     0.93991   0.35861   0.08001   0.01267  Uiso   1.00
O5     O     0.78651   0.37497   0.82711   0.01267  Uiso   1.00
O6     O     0.66105   0.48738   0.75165   0.01267  Uiso   1.00
O7     O     0.39670   0.30530   0.07540   0.01267  Uiso   1.00
O8     O     0.20120   0.11390   0.98450   0.01267  Uiso   1.00
O9     O     0.71770   0.72325   0.72190   0.01267  Uiso   1.00
O10    O     0.86307   0.93035   0.80337   0.01267  Uiso   1.00
O11    O     0.03613   0.81650   0.97973   0.01267  Uiso   1.00
O12    O     0.06009   0.64139   0.91999   0.01267  Uiso   1.00
O13    O     0.21349   0.62503   0.17289   0.01267  Uiso   1.00
O14    O     0.33895   0.51262   0.24835   0.01267  Uiso   1.00
O15    O     0.60330   0.69470   0.92460   0.01267  Uiso   1.00
O16    O     0.79880   0.88610   0.01550   0.01267  Uiso   1.00
