data_HIZQUD_clean
_audit_creation_date              2014-07-02
_audit_creation_method            'Materials Studio'
_symmetry_space_group_name_H-M    'P1'
_symmetry_Int_Tables_number       1
_symmetry_cell_setting            triclinic
loop_
_symmetry_equiv_pos_as_xyz
  x,y,z
_cell_length_a                    10.7885
_cell_length_b                    13.6583
_cell_length_c                    14.7188
_cell_angle_alpha                 76.1028
_cell_angle_beta                  68.5010
_cell_angle_gamma                 66.7377
loop_
_atom_site_label
_atom_site_type_symbol
_atom_site_fract_x
_atom_site_fract_y
_atom_site_fract_z
_atom_site_U_iso_or_equiv
_atom_site_adp_type
_atom_site_occupancy
Cd1    Cd    0.99532   0.03870   0.61262   0.01267  Uiso   1.00
Cd2    Cd    0.64664   0.46130   0.88738   0.01267  Uiso   1.00
Cd3    Cd    0.00468   0.96130   0.38738   0.01267  Uiso   1.00
Cd4    Cd    0.35336   0.53870   0.11262   0.01267  Uiso   1.00
Cd5    Cd    0.71817   0.25000   0.75000   0.01267  Uiso   1.00
Cd6    Cd    0.28183   0.75000   0.25000   0.01267  Uiso   1.00
H1     H     0.45570   0.04070   0.90990   0.01267  Uiso   1.00
H2     H     0.36450   0.90850   0.01010   0.01267  Uiso   1.00
H3     H     0.68710   0.68460   0.84540   0.01267  Uiso   1.00
H4     H     0.78330   0.81590   0.75030   0.01267  Uiso   1.00
H5     H     0.14400   0.86850   0.89530   0.01267  Uiso   1.00
H6     H     0.86030   0.16440   0.94100   0.01267  Uiso   1.00
H7     H     0.40630   0.45930   0.59010   0.01267  Uiso   1.00
H8     H     0.28310   0.59150   0.48990   0.01267  Uiso   1.00
H9     H     0.21710   0.81540   0.65460   0.01267  Uiso   1.00
H10    H     0.34950   0.68410   0.74970   0.01267  Uiso   1.00
H11    H     0.90780   0.63150   0.60470   0.01267  Uiso   1.00
H12    H     0.96570   0.33560   0.55900   0.01267  Uiso   1.00
H13    H     0.54430   0.95930   0.09010   0.01267  Uiso   1.00
H14    H     0.63550   0.09150   0.98990   0.01267  Uiso   1.00
H15    H     0.31290   0.31540   0.15460   0.01267  Uiso   1.00
H16    H     0.21670   0.18410   0.24970   0.01267  Uiso   1.00
H17    H     0.85600   0.13150   0.10470   0.01267  Uiso   1.00
H18    H     0.13970   0.83560   0.05900   0.01267  Uiso   1.00
H19    H     0.59370   0.54070   0.40990   0.01267  Uiso   1.00
H20    H     0.71690   0.40850   0.51010   0.01267  Uiso   1.00
H21    H     0.78290   0.18460   0.34540   0.01267  Uiso   1.00
H22    H     0.65050   0.31590   0.25030   0.01267  Uiso   1.00
H23    H     0.09220   0.36850   0.39530   0.01267  Uiso   1.00
H24    H     0.03430   0.66440   0.44100   0.01267  Uiso   1.00
C1     C     0.69517   0.02415   0.76131   0.01267  Uiso   1.00
C2     C     0.62892   0.94109   0.82127   0.01267  Uiso   1.00
C3     C     0.50434   0.96792   0.89760   0.01267  Uiso   1.00
C4     C     0.44914   0.88937   0.95675   0.01267  Uiso   1.00
C5     C     0.51763   0.78346   0.93788   0.01267  Uiso   1.00
C6     C     0.64081   0.75691   0.85987   0.01267  Uiso   1.00
C7     C     0.69731   0.83524   0.80254   0.01267  Uiso   1.00
C8     C     0.46045   0.69873   0.00191   0.01267  Uiso   1.00
C9     C     0.00187   0.03840   0.79786   0.01267  Uiso   1.00
C10    C     0.00202   0.01922   0.90234   0.01267  Uiso   1.00
C11    C     0.08482   0.92244   0.93792   0.01267  Uiso   1.00
C12    C     0.91743   0.09697   0.96477   0.01267  Uiso   1.00
C13    C     0.48063   0.47585   0.73869   0.01267  Uiso   1.00
C14    C     0.39128   0.55891   0.67873   0.01267  Uiso   1.00
C15    C     0.36986   0.53208   0.60240   0.01267  Uiso   1.00
C16    C     0.29526   0.61063   0.54325   0.01267  Uiso   1.00
C17    C     0.23897   0.71654   0.56212   0.01267  Uiso   1.00
C18    C     0.25759   0.74309   0.64013   0.01267  Uiso   1.00
C19    C     0.33509   0.66476   0.69746   0.01267  Uiso   1.00
C20    C     0.16109   0.80127   0.49809   0.01267  Uiso   1.00
C21    C     0.83813   0.46160   0.70214   0.01267  Uiso   1.00
C22    C     0.92358   0.48078   0.59766   0.01267  Uiso   1.00
C23    C     0.94518   0.57756   0.56208   0.01267  Uiso   1.00
C24    C     0.97917   0.40303   0.53523   0.01267  Uiso   1.00
C25    C     0.30483   0.97585   0.23869   0.01267  Uiso   1.00
C26    C     0.37108   0.05891   0.17873   0.01267  Uiso   1.00
C27    C     0.49566   0.03208   0.10240   0.01267  Uiso   1.00
C28    C     0.55086   0.11063   0.04325   0.01267  Uiso   1.00
C29    C     0.48237   0.21654   0.06212   0.01267  Uiso   1.00
C30    C     0.35919   0.24309   0.14013   0.01267  Uiso   1.00
C31    C     0.30269   0.16476   0.19746   0.01267  Uiso   1.00
C32    C     0.53955   0.30127   0.99809   0.01267  Uiso   1.00
C33    C     0.99813   0.96160   0.20214   0.01267  Uiso   1.00
C34    C     0.99798   0.98078   0.09766   0.01267  Uiso   1.00
C35    C     0.91518   0.07756   0.06208   0.01267  Uiso   1.00
C36    C     0.08257   0.90303   0.03523   0.01267  Uiso   1.00
C37    C     0.51937   0.52415   0.26131   0.01267  Uiso   1.00
C38    C     0.60872   0.44109   0.32127   0.01267  Uiso   1.00
C39    C     0.63014   0.46792   0.39760   0.01267  Uiso   1.00
C40    C     0.70474   0.38937   0.45675   0.01267  Uiso   1.00
C41    C     0.76103   0.28346   0.43788   0.01267  Uiso   1.00
C42    C     0.74241   0.25691   0.35987   0.01267  Uiso   1.00
C43    C     0.66491   0.33524   0.30254   0.01267  Uiso   1.00
C44    C     0.83891   0.19873   0.50191   0.01267  Uiso   1.00
C45    C     0.16187   0.53840   0.29786   0.01267  Uiso   1.00
C46    C     0.07642   0.51922   0.40234   0.01267  Uiso   1.00
C47    C     0.05482   0.42244   0.43792   0.01267  Uiso   1.00
C48    C     0.02083   0.59697   0.46477   0.01267  Uiso   1.00
O1     O     0.63655   0.11657   0.78791   0.01267  Uiso   1.00
O2     O     0.80279   0.99373   0.69109   0.01267  Uiso   1.00
O3     O     0.36299   0.72006   0.08146   0.01267  Uiso   1.00
O4     O     0.50777   0.60672   0.97482   0.01267  Uiso   1.00
O5     O     0.93201   0.12864   0.76484   0.01267  Uiso   1.00
O6     O     0.07370   0.96327   0.74573   0.01267  Uiso   1.00
O7     O     0.54103   0.38343   0.71209   0.01267  Uiso   1.00
O8     O     0.48761   0.50627   0.80891   0.01267  Uiso   1.00
O9     O     0.16451   0.77994   0.41854   0.01267  Uiso   1.00
O10    O     0.08931   0.89328   0.52518   0.01267  Uiso   1.00
O11    O     0.82549   0.37136   0.73516   0.01267  Uiso   1.00
O12    O     0.78270   0.53673   0.75427   0.01267  Uiso   1.00
O13    O     0.36345   0.88343   0.21209   0.01267  Uiso   1.00
O14    O     0.19721   0.00627   0.30891   0.01267  Uiso   1.00
O15    O     0.63701   0.27994   0.91854   0.01267  Uiso   1.00
O16    O     0.49223   0.39328   0.02518   0.01267  Uiso   1.00
O17    O     0.06799   0.87136   0.23516   0.01267  Uiso   1.00
O18    O     0.92630   0.03673   0.25427   0.01267  Uiso   1.00
O19    O     0.45897   0.61657   0.28791   0.01267  Uiso   1.00
O20    O     0.51239   0.49373   0.19109   0.01267  Uiso   1.00
O21    O     0.83549   0.22006   0.58146   0.01267  Uiso   1.00
O22    O     0.91069   0.10672   0.47482   0.01267  Uiso   1.00
O23    O     0.17451   0.62864   0.26484   0.01267  Uiso   1.00
O24    O     0.21730   0.46327   0.24573   0.01267  Uiso   1.00
