data_image0
_cell_length_a       10.652
_cell_length_b       15.4
_cell_length_c       10.924
_cell_angle_alpha    90
_cell_angle_beta     92.14
_cell_angle_gamma    90

_symmetry_space_group_name_H-M    "P 1"
_symmetry_int_tables_number       1

loop_
  _symmetry_equiv_pos_as_xyz
  'x, y, z'

loop_
  _atom_site_label
  _atom_site_occupancy
  _atom_site_fract_x
  _atom_site_fract_y
  _atom_site_fract_z
  _atom_site_thermal_displace_type
  _atom_site_B_iso_or_equiv
  _atom_site_type_symbol
  Ag1      1.0000 0.23320  0.73260  0.23930  Biso   1.000  Ag
  N1       1.0000 0.80400  0.91820  0.80860  Biso   1.000  N
  C1       1.0000 0.90620  0.91370  0.90380  Biso   1.000  C
  C2       1.0000 0.96680  0.82440  0.91130  Biso   1.000  C
  N2       1.0000 0.87580  0.75330  0.92790  Biso   1.000  N
  C3       1.0000 0.80480  0.76060  0.04130  Biso   1.000  C
  C4       1.0000 0.66360  0.75140  0.01900  Biso   1.000  C
  N3       1.0000 0.61140  0.81020  0.92460  Biso   1.000  N
  C5       1.0000 0.62860  0.90380  0.95320  Biso   1.000  C
  C6       1.0000 0.68550  0.95560  0.85020  Biso   1.000  C
  C7       1.0000 0.84450  0.96030  0.69730  Biso   1.000  C
  C8       1.0000 0.86710  0.05540  0.71760  Biso   1.000  C
  N4       1.0000 0.87960  0.12720  0.73950  Biso   1.000  N
  C9       1.0000 0.93400  0.66830  0.91540  Biso   1.000  C
  C10      1.0000 0.03030  0.65390  0.01560  Biso   1.000  C
  N5       1.0000 0.10010  0.65150  0.09660  Biso   1.000  N
  C11      1.0000 0.48120  0.78910  0.89100  Biso   1.000  C
  C12      1.0000 0.40030  0.79280  0.99850  Biso   1.000  C
  N6       1.0000 0.34650  0.79410  0.08530  Biso   1.000  N
  H1       1.0000 0.97110  0.95740  0.88560  Biso   1.000  H
  H2       1.0000 0.87200  0.92840  0.98430  Biso   1.000  H
  H3       1.0000 0.02940  0.82370  0.98060  Biso   1.000  H
  H4       1.0000 0.01220  0.81380  0.83530  Biso   1.000  H
  H5       1.0000 0.83430  0.71510  0.09950  Biso   1.000  H
  H6       1.0000 0.82280  0.81770  0.07970  Biso   1.000  H
  H7       1.0000 0.62160  0.76270  0.09670  Biso   1.000  H
  H8       1.0000 0.64450  0.69080  0.99440  Biso   1.000  H
  H9       1.0000 0.54600  0.92930  0.97150  Biso   1.000  H
  H10      1.0000 0.68370  0.90940  0.02780  Biso   1.000  H
  H11      1.0000 0.70130  0.01580  0.87880  Biso   1.000  H
  H12      1.0000 0.62410  0.95830  0.78000  Biso   1.000  H
  H13      1.0000 0.92280  0.93260  0.67070  Biso   1.000  H
  H14      1.0000 0.77930  0.95250  0.63130  Biso   1.000  H
  H15      1.0000 0.86880  0.62260  0.91840  Biso   1.000  H
  H16      1.0000 0.97390  0.66440  0.83520  Biso   1.000  H
  H17      1.0000 0.44920  0.83060  0.82800  Biso   1.000  H
  H18      1.0000 0.47720  0.73010  0.85510  Biso   1.000  H
  N7       1.0000 0.30400  0.58180  0.30860  Biso   1.000  N
  C13      1.0000 0.40620  0.58630  0.40380  Biso   1.000  C
  C14      1.0000 0.46680  0.67560  0.41130  Biso   1.000  C
  N8       1.0000 0.37580  0.74670  0.42790  Biso   1.000  N
  C15      1.0000 0.30480  0.73940  0.54130  Biso   1.000  C
  C16      1.0000 0.16360  0.74860  0.51900  Biso   1.000  C
  N9       1.0000 0.11140  0.68980  0.42460  Biso   1.000  N
  C17      1.0000 0.12860  0.59620  0.45320  Biso   1.000  C
  C18      1.0000 0.18550  0.54440  0.35020  Biso   1.000  C
  C19      1.0000 0.34450  0.53970  0.19730  Biso   1.000  C
  C20      1.0000 0.36710  0.44460  0.21760  Biso   1.000  C
  N10      1.0000 0.37960  0.37280  0.23950  Biso   1.000  N
  C21      1.0000 0.43400  0.83170  0.41540  Biso   1.000  C
  C22      1.0000 0.53030  0.84610  0.51560  Biso   1.000  C
  N11      1.0000 0.60010  0.84850  0.59660  Biso   1.000  N
  C23      1.0000 0.98120  0.71090  0.39100  Biso   1.000  C
  C24      1.0000 0.90030  0.70720  0.49850  Biso   1.000  C
  N12      1.0000 0.84650  0.70590  0.58530  Biso   1.000  N
  H19      1.0000 0.47110  0.54260  0.38560  Biso   1.000  H
  H20      1.0000 0.37200  0.57160  0.48430  Biso   1.000  H
  H21      1.0000 0.52940  0.67630  0.48060  Biso   1.000  H
  H22      1.0000 0.51220  0.68620  0.33530  Biso   1.000  H
  H23      1.0000 0.33430  0.78490  0.59950  Biso   1.000  H
  H24      1.0000 0.32280  0.68230  0.57970  Biso   1.000  H
  H25      1.0000 0.12160  0.73730  0.59670  Biso   1.000  H
  H26      1.0000 0.14450  0.80920  0.49440  Biso   1.000  H
  H27      1.0000 0.04600  0.57070  0.47150  Biso   1.000  H
  H28      1.0000 0.18370  0.59060  0.52780  Biso   1.000  H
  H29      1.0000 0.20130  0.48420  0.37880  Biso   1.000  H
  H30      1.0000 0.12410  0.54170  0.28000  Biso   1.000  H
  H31      1.0000 0.42280  0.56740  0.17070  Biso   1.000  H
  H32      1.0000 0.27930  0.54750  0.13130  Biso   1.000  H
  H33      1.0000 0.36880  0.87740  0.41840  Biso   1.000  H
  H34      1.0000 0.47390  0.83560  0.33520  Biso   1.000  H
  H35      1.0000 0.94920  0.66940  0.32800  Biso   1.000  H
  H36      1.0000 0.97720  0.76990  0.35510  Biso   1.000  H
  Ag2      1.0000 0.73320  0.76740  0.73930  Biso   1.000  Ag
  Ag3      1.0000 0.26680  0.23260  0.26070  Biso   1.000  Ag
  N13      1.0000 0.69600  0.41820  0.69140  Biso   1.000  N
  C25      1.0000 0.59380  0.41370  0.59620  Biso   1.000  C
  C26      1.0000 0.53320  0.32440  0.58870  Biso   1.000  C
  N14      1.0000 0.62420  0.25330  0.57210  Biso   1.000  N
  C27      1.0000 0.69520  0.26060  0.45870  Biso   1.000  C
  C28      1.0000 0.83640  0.25140  0.48100  Biso   1.000  C
  N15      1.0000 0.88860  0.31020  0.57540  Biso   1.000  N
  C29      1.0000 0.87140  0.40380  0.54680  Biso   1.000  C
  C30      1.0000 0.81450  0.45560  0.64980  Biso   1.000  C
  C31      1.0000 0.65550  0.46030  0.80270  Biso   1.000  C
  C32      1.0000 0.63290  0.55540  0.78240  Biso   1.000  C
  N16      1.0000 0.62040  0.62720  0.76050  Biso   1.000  N
  C33      1.0000 0.56600  0.16830  0.58460  Biso   1.000  C
  C34      1.0000 0.46970  0.15390  0.48440  Biso   1.000  C
  N17      1.0000 0.39990  0.15150  0.40340  Biso   1.000  N
  C35      1.0000 0.01880  0.28910  0.60900  Biso   1.000  C
  C36      1.0000 0.09970  0.29280  0.50150  Biso   1.000  C
  N18      1.0000 0.15350  0.29410  0.41470  Biso   1.000  N
  H37      1.0000 0.52890  0.45740  0.61440  Biso   1.000  H
  H38      1.0000 0.62800  0.42840  0.51570  Biso   1.000  H
  H39      1.0000 0.47060  0.32370  0.51940  Biso   1.000  H
  H40      1.0000 0.48780  0.31380  0.66470  Biso   1.000  H
  H41      1.0000 0.66570  0.21510  0.40050  Biso   1.000  H
  H42      1.0000 0.67720  0.31770  0.42030  Biso   1.000  H
  H43      1.0000 0.87840  0.26270  0.40330  Biso   1.000  H
  H44      1.0000 0.85550  0.19080  0.50560  Biso   1.000  H
  H45      1.0000 0.95400  0.42930  0.52850  Biso   1.000  H
  H46      1.0000 0.81630  0.40940  0.47220  Biso   1.000  H
  H47      1.0000 0.79870  0.51580  0.62120  Biso   1.000  H
  H48      1.0000 0.87590  0.45830  0.72000  Biso   1.000  H
  H49      1.0000 0.57720  0.43260  0.82930  Biso   1.000  H
  H50      1.0000 0.72070  0.45250  0.86870  Biso   1.000  H
  H51      1.0000 0.63120  0.12260  0.58160  Biso   1.000  H
  H52      1.0000 0.52610  0.16440  0.66480  Biso   1.000  H
  H53      1.0000 0.05080  0.33060  0.67200  Biso   1.000  H
  H54      1.0000 0.02280  0.23010  0.64490  Biso   1.000  H
  N19      1.0000 0.19600  0.08180  0.19140  Biso   1.000  N
  C37      1.0000 0.09380  0.08630  0.09620  Biso   1.000  C
  C38      1.0000 0.03320  0.17560  0.08870  Biso   1.000  C
  N20      1.0000 0.12420  0.24670  0.07210  Biso   1.000  N
  C39      1.0000 0.19520  0.23940  0.95870  Biso   1.000  C
  C40      1.0000 0.33640  0.24860  0.98100  Biso   1.000  C
  N21      1.0000 0.38860  0.18980  0.07540  Biso   1.000  N
  C41      1.0000 0.37140  0.09620  0.04680  Biso   1.000  C
  C42      1.0000 0.31450  0.04440  0.14980  Biso   1.000  C
  C43      1.0000 0.15550  0.03970  0.30270  Biso   1.000  C
  C44      1.0000 0.13290  0.94460  0.28240  Biso   1.000  C
  N22      1.0000 0.12040  0.87280  0.26050  Biso   1.000  N
  C45      1.0000 0.06600  0.33170  0.08460  Biso   1.000  C
  C46      1.0000 0.96970  0.34610  0.98440  Biso   1.000  C
  N23      1.0000 0.89990  0.34850  0.90340  Biso   1.000  N
  C47      1.0000 0.51880  0.21090  0.10900  Biso   1.000  C
  C48      1.0000 0.59970  0.20720  0.00150  Biso   1.000  C
  N24      1.0000 0.65350  0.20590  0.91470  Biso   1.000  N
  H55      1.0000 0.02890  0.04260  0.11440  Biso   1.000  H
  H56      1.0000 0.12800  0.07160  0.01570  Biso   1.000  H
  H57      1.0000 0.97060  0.17630  0.01940  Biso   1.000  H
  H58      1.0000 0.98780  0.18620  0.16470  Biso   1.000  H
  H59      1.0000 0.16570  0.28490  0.90050  Biso   1.000  H
  H60      1.0000 0.17720  0.18230  0.92030  Biso   1.000  H
  H61      1.0000 0.37840  0.23730  0.90330  Biso   1.000  H
  H62      1.0000 0.35550  0.30920  0.00560  Biso   1.000  H
  H63      1.0000 0.45400  0.07070  0.02850  Biso   1.000  H
  H64      1.0000 0.31630  0.09060  0.97220  Biso   1.000  H
  H65      1.0000 0.29870  0.98420  0.12120  Biso   1.000  H
  H66      1.0000 0.37590  0.04170  0.22000  Biso   1.000  H
  H67      1.0000 0.07720  0.06740  0.32930  Biso   1.000  H
  H68      1.0000 0.22070  0.04750  0.36870  Biso   1.000  H
  H69      1.0000 0.13120  0.37740  0.08160  Biso   1.000  H
  H70      1.0000 0.02610  0.33560  0.16480  Biso   1.000  H
  H71      1.0000 0.55080  0.16940  0.17200  Biso   1.000  H
  H72      1.0000 0.52280  0.26990  0.14490  Biso   1.000  H
  Ag4      1.0000 0.76680  0.26740  0.76070  Biso   1.000  Ag
