data_image0
_cell_length_a       30.84
_cell_length_b       6.574
_cell_length_c       7.704
_cell_angle_alpha    90
_cell_angle_beta     101.557
_cell_angle_gamma    90

_symmetry_space_group_name_H-M    "P 1"
_symmetry_int_tables_number       1

loop_
  _symmetry_equiv_pos_as_xyz
  'x, y, z'

loop_
  _atom_site_label
  _atom_site_occupancy
  _atom_site_fract_x
  _atom_site_fract_y
  _atom_site_fract_z
  _atom_site_thermal_displace_type
  _atom_site_B_iso_or_equiv
  _atom_site_type_symbol
  Ni1      1.0000 0.27864  0.26860  0.27578  Biso   1.000  Ni
  O1       1.0000 0.30640  0.48950  0.45890  Biso   1.000  O
  O2       1.0000 0.30780  0.40950  0.09160  Biso   1.000  O
  C1       1.0000 0.37870  0.79390  0.33630  Biso   1.000  C
  H1       1.0000 0.37910  0.65960  0.29110  Biso   1.000  H
  O3       1.0000 0.24990  0.54690  0.91020  Biso   1.000  O
  O4       1.0000 0.24550  0.62360  0.52910  Biso   1.000  O
  C2       1.0000 0.37360  0.17360  0.45780  Biso   1.000  C
  H2       1.0000 0.37200  0.30780  0.50170  Biso   1.000  H
  C3       1.0000 0.45990  0.76900  0.46790  Biso   1.000  C
  N1       1.0000 0.33640  0.09670  0.35090  Biso   1.000  N
  C4       1.0000 0.33970  0.90760  0.30090  Biso   1.000  C
  H3       1.0000 0.31380  0.84370  0.23620  Biso   1.000  H
  C5       1.0000 0.41630  0.87620  0.43640  Biso   1.000  C
  C6       1.0000 0.41260  0.07320  0.50610  Biso   1.000  C
  H4       1.0000 0.43690  0.13370  0.58480  Biso   1.000  H
  N2       1.0000 0.28450  0.89100  0.76880  Biso   1.000  N
  H5       1.0000 0.28510  0.00850  0.70430  Biso   1.000  H
  H6       1.0000 0.29430  0.91980  0.88700  Biso   1.000  H
  C7       1.0000 0.31310  0.72500  0.70760  Biso   1.000  C
  H7       1.0000 0.33950  0.78790  0.67150  Biso   1.000  H
  C8       1.0000 0.28610  0.60040  0.55260  Biso   1.000  C
  C9       1.0000 0.46180  0.56140  0.47300  Biso   1.000  C
  H8       1.0000 0.43470  0.48830  0.45660  Biso   1.000  H
  C10      1.0000 0.29020  0.51560  0.96300  Biso   1.000  C
  C11      1.0000 0.32730  0.58600  0.86070  Biso   1.000  C
  H9       1.0000 0.35110  0.65430  0.94650  Biso   1.000  H
  H10      1.0000 0.34040  0.46310  0.81750  Biso   1.000  H
  Ni2      1.0000 0.77864  0.76860  0.27578  Biso   1.000  Ni
  O5       1.0000 0.80640  0.98950  0.45890  Biso   1.000  O
  O6       1.0000 0.80780  0.90950  0.09160  Biso   1.000  O
  C12      1.0000 0.87870  0.29390  0.33630  Biso   1.000  C
  H11      1.0000 0.87910  0.15960  0.29110  Biso   1.000  H
  O7       1.0000 0.74990  0.04690  0.91020  Biso   1.000  O
  O8       1.0000 0.74550  0.12360  0.52910  Biso   1.000  O
  C13      1.0000 0.87360  0.67360  0.45780  Biso   1.000  C
  H12      1.0000 0.87200  0.80780  0.50170  Biso   1.000  H
  C14      1.0000 0.95990  0.26900  0.46790  Biso   1.000  C
  N3       1.0000 0.83640  0.59670  0.35090  Biso   1.000  N
  C15      1.0000 0.83970  0.40760  0.30090  Biso   1.000  C
  H13      1.0000 0.81380  0.34370  0.23620  Biso   1.000  H
  C16      1.0000 0.91630  0.37620  0.43640  Biso   1.000  C
  C17      1.0000 0.91260  0.57320  0.50610  Biso   1.000  C
  H14      1.0000 0.93690  0.63370  0.58480  Biso   1.000  H
  N4       1.0000 0.78450  0.39100  0.76880  Biso   1.000  N
  H15      1.0000 0.78510  0.50850  0.70430  Biso   1.000  H
  H16      1.0000 0.79430  0.41980  0.88700  Biso   1.000  H
  C18      1.0000 0.81310  0.22500  0.70760  Biso   1.000  C
  H17      1.0000 0.83950  0.28790  0.67150  Biso   1.000  H
  C19      1.0000 0.78610  0.10040  0.55260  Biso   1.000  C
  C20      1.0000 0.96180  0.06140  0.47300  Biso   1.000  C
  H18      1.0000 0.93470  0.98830  0.45660  Biso   1.000  H
  C21      1.0000 0.79020  0.01560  0.96300  Biso   1.000  C
  C22      1.0000 0.82730  0.08600  0.86070  Biso   1.000  C
  H19      1.0000 0.85110  0.15430  0.94650  Biso   1.000  H
  H20      1.0000 0.84040  0.96310  0.81750  Biso   1.000  H
  Ni3      1.0000 0.72136  0.26860  0.72422  Biso   1.000  Ni
  O9       1.0000 0.69360  0.48950  0.54110  Biso   1.000  O
  O10      1.0000 0.69220  0.40950  0.90840  Biso   1.000  O
  C23      1.0000 0.62130  0.79390  0.66370  Biso   1.000  C
  H21      1.0000 0.62090  0.65960  0.70890  Biso   1.000  H
  O11      1.0000 0.75010  0.54690  0.08980  Biso   1.000  O
  O12      1.0000 0.75450  0.62360  0.47090  Biso   1.000  O
  C24      1.0000 0.62640  0.17360  0.54220  Biso   1.000  C
  H22      1.0000 0.62800  0.30780  0.49830  Biso   1.000  H
  C25      1.0000 0.54010  0.76900  0.53210  Biso   1.000  C
  N5       1.0000 0.66360  0.09670  0.64910  Biso   1.000  N
  C26      1.0000 0.66030  0.90760  0.69910  Biso   1.000  C
  H23      1.0000 0.68620  0.84370  0.76380  Biso   1.000  H
  C27      1.0000 0.58370  0.87620  0.56360  Biso   1.000  C
  C28      1.0000 0.58740  0.07320  0.49390  Biso   1.000  C
  H24      1.0000 0.56310  0.13370  0.41520  Biso   1.000  H
  N6       1.0000 0.71550  0.89100  0.23120  Biso   1.000  N
  H25      1.0000 0.71490  0.00850  0.29570  Biso   1.000  H
  H26      1.0000 0.70570  0.91980  0.11300  Biso   1.000  H
  C29      1.0000 0.68690  0.72500  0.29240  Biso   1.000  C
  H27      1.0000 0.66050  0.78790  0.32850  Biso   1.000  H
  C30      1.0000 0.71390  0.60040  0.44740  Biso   1.000  C
  C31      1.0000 0.53820  0.56140  0.52700  Biso   1.000  C
  H28      1.0000 0.56530  0.48830  0.54340  Biso   1.000  H
  C32      1.0000 0.70980  0.51560  0.03700  Biso   1.000  C
  C33      1.0000 0.67270  0.58600  0.13930  Biso   1.000  C
  H29      1.0000 0.64890  0.65430  0.05350  Biso   1.000  H
  H30      1.0000 0.65960  0.46310  0.18250  Biso   1.000  H
  Ni4      1.0000 0.22136  0.76860  0.72422  Biso   1.000  Ni
  O13      1.0000 0.19360  0.98950  0.54110  Biso   1.000  O
  O14      1.0000 0.19220  0.90950  0.90840  Biso   1.000  O
  C34      1.0000 0.12130  0.29390  0.66370  Biso   1.000  C
  H31      1.0000 0.12090  0.15960  0.70890  Biso   1.000  H
  O15      1.0000 0.25010  0.04690  0.08980  Biso   1.000  O
  O16      1.0000 0.25450  0.12360  0.47090  Biso   1.000  O
  C35      1.0000 0.12640  0.67360  0.54220  Biso   1.000  C
  H32      1.0000 0.12800  0.80780  0.49830  Biso   1.000  H
  C36      1.0000 0.04010  0.26900  0.53210  Biso   1.000  C
  N7       1.0000 0.16360  0.59670  0.64910  Biso   1.000  N
  C37      1.0000 0.16030  0.40760  0.69910  Biso   1.000  C
  H33      1.0000 0.18620  0.34370  0.76380  Biso   1.000  H
  C38      1.0000 0.08370  0.37620  0.56360  Biso   1.000  C
  C39      1.0000 0.08740  0.57320  0.49390  Biso   1.000  C
  H34      1.0000 0.06310  0.63370  0.41520  Biso   1.000  H
  N8       1.0000 0.21550  0.39100  0.23120  Biso   1.000  N
  H35      1.0000 0.21490  0.50850  0.29570  Biso   1.000  H
  H36      1.0000 0.20570  0.41980  0.11300  Biso   1.000  H
  C40      1.0000 0.18690  0.22500  0.29240  Biso   1.000  C
  H37      1.0000 0.16050  0.28790  0.32850  Biso   1.000  H
  C41      1.0000 0.21390  0.10040  0.44740  Biso   1.000  C
  C42      1.0000 0.03820  0.06140  0.52700  Biso   1.000  C
  H38      1.0000 0.06530  0.98830  0.54340  Biso   1.000  H
  C43      1.0000 0.20980  0.01560  0.03700  Biso   1.000  C
  C44      1.0000 0.17270  0.08600  0.13930  Biso   1.000  C
  H39      1.0000 0.14890  0.15430  0.05350  Biso   1.000  H
  H40      1.0000 0.15960  0.96310  0.18250  Biso   1.000  H
  N9       1.0000 0.50000  0.45400  0.50000  Biso   1.000  N
  C45      1.0000 0.50000  0.87500  0.50000  Biso   1.000  C
  H41      1.0000 0.50000  0.01960  0.50000  Biso   1.000  H
  N10      1.0000 0.00000  0.95400  0.50000  Biso   1.000  N
  C46      1.0000 0.00000  0.37500  0.50000  Biso   1.000  C
  H42      1.0000 0.00000  0.51960  0.50000  Biso   1.000  H
