data_image0
_cell_length_a       9.7205
_cell_length_b       9.7468
_cell_length_c       10.8926
_cell_angle_alpha    83.989
_cell_angle_beta     75.467
_cell_angle_gamma    78.545

_symmetry_space_group_name_H-M    "P 1"
_symmetry_int_tables_number       1

loop_
  _symmetry_equiv_pos_as_xyz
  'x, y, z'

loop_
  _atom_site_label
  _atom_site_occupancy
  _atom_site_fract_x
  _atom_site_fract_y
  _atom_site_fract_z
  _atom_site_thermal_displace_type
  _atom_site_B_iso_or_equiv
  _atom_site_type_symbol
  Mn1      1.0000 0.36465  0.25534  0.52307  Biso   1.000  Mn
  Mn2      1.0000 0.24086  0.55013  0.28165  Biso   1.000  Mn
  P1       1.0000 0.47556  0.97749  0.69689  Biso   1.000  P
  H1       1.0000 0.59300  0.04210  0.66860  Biso   1.000  H
  O1       1.0000 0.41740  0.97630  0.83980  Biso   1.000  O
  O2       1.0000 0.36790  0.06080  0.62540  Biso   1.000  O
  O3       1.0000 0.52760  0.82830  0.65390  Biso   1.000  O
  O4       1.0000 0.70210  0.04610  0.87820  Biso   1.000  O
  O5       1.0000 0.80040  0.22210  0.76970  Biso   1.000  O
  O6       1.0000 0.45710  0.23230  0.96790  Biso   1.000  O
  O7       1.0000 0.56540  0.40390  0.85800  Biso   1.000  O
  O8       1.0000 0.02990  0.55400  0.24170  Biso   1.000  O
  O9       1.0000 0.79540  0.63860  0.31110  Biso   1.000  O
  O10      1.0000 0.08020  0.62590  0.45530  Biso   1.000  O
  O11      1.0000 0.84550  0.70890  0.52470  Biso   1.000  O
  O12      1.0000 0.37550  0.47240  0.41860  Biso   1.000  O
  O13      1.0000 0.46430  0.66510  0.42370  Biso   1.000  O
  C1       1.0000 0.69980  0.17310  0.84320  Biso   1.000  C
  C2       1.0000 0.56080  0.27920  0.89370  Biso   1.000  C
  C3       1.0000 0.92350  0.61070  0.32190  Biso   1.000  C
  C4       1.0000 0.95280  0.65110  0.44520  Biso   1.000  C
  C5       1.0000 0.45360  0.54110  0.45470  Biso   1.000  C
  Mn3      1.0000 0.63535  0.74466  0.47693  Biso   1.000  Mn
  Mn4      1.0000 0.75914  0.44987  0.71835  Biso   1.000  Mn
  P2       1.0000 0.52444  0.02251  0.30311  Biso   1.000  P
  H2       1.0000 0.40700  0.95790  0.33140  Biso   1.000  H
  O14      1.0000 0.58260  0.02370  0.16020  Biso   1.000  O
  O15      1.0000 0.63210  0.93920  0.37460  Biso   1.000  O
  O16      1.0000 0.47240  0.17170  0.34610  Biso   1.000  O
  O17      1.0000 0.29790  0.95390  0.12180  Biso   1.000  O
  O18      1.0000 0.19960  0.77790  0.23030  Biso   1.000  O
  O19      1.0000 0.54290  0.76770  0.03210  Biso   1.000  O
  O20      1.0000 0.43460  0.59610  0.14200  Biso   1.000  O
  O21      1.0000 0.97010  0.44600  0.75830  Biso   1.000  O
  O22      1.0000 0.20460  0.36140  0.68890  Biso   1.000  O
  O23      1.0000 0.91980  0.37410  0.54470  Biso   1.000  O
  O24      1.0000 0.15450  0.29110  0.47530  Biso   1.000  O
  O25      1.0000 0.62450  0.52760  0.58140  Biso   1.000  O
  O26      1.0000 0.53570  0.33490  0.57630  Biso   1.000  O
  C6       1.0000 0.30020  0.82690  0.15680  Biso   1.000  C
  C7       1.0000 0.43920  0.72080  0.10630  Biso   1.000  C
  C8       1.0000 0.07650  0.38930  0.67810  Biso   1.000  C
  C9       1.0000 0.04720  0.34890  0.55480  Biso   1.000  C
  C10      1.0000 0.54640  0.45890  0.54530  Biso   1.000  C
  Mn5      1.0000 0.50000  0.00000  0.00000  Biso   1.000  Mn
