data_image0
_cell_length_a       8.8345
_cell_length_b       35.591
_cell_length_c       16.246
_cell_angle_alpha    90
_cell_angle_beta     93.437
_cell_angle_gamma    90

_symmetry_space_group_name_H-M    "P 1"
_symmetry_int_tables_number       1

loop_
  _symmetry_equiv_pos_as_xyz
  'x, y, z'

loop_
  _atom_site_label
  _atom_site_occupancy
  _atom_site_fract_x
  _atom_site_fract_y
  _atom_site_fract_z
  _atom_site_thermal_displace_type
  _atom_site_B_iso_or_equiv
  _atom_site_type_symbol
  C1       1.0000 0.78580  0.23910  0.29300  Biso   1.000  C
  C2       1.0000 0.32950  0.12420  0.30990  Biso   1.000  C
  C3       1.0000 0.41040  0.14231  0.38670  Biso   1.000  C
  C4       1.0000 0.50080  0.02214  0.36020  Biso   1.000  C
  C5       1.0000 0.34580  0.00271  0.36520  Biso   1.000  C
  C6       1.0000 0.27070  0.06728  0.59980  Biso   1.000  C
  C7       1.0000 0.11710  0.08000  0.55820  Biso   1.000  C
  C8       1.0000 0.95800  0.36598  0.29050  Biso   1.000  C
  C9       1.0000 0.72020  0.25833  0.21260  Biso   1.000  C
  Cr1      1.0000 0.31644  0.07284  0.43526  Biso   1.000  Cr
  O1       1.0000 0.91410  0.25227  0.32120  Biso   1.000  O
  O2       1.0000 0.71280  0.21379  0.32310  Biso   1.000  O
  O3       1.0000 0.79910  0.28591  0.18770  Biso   1.000  O
  O4       1.0000 0.93510  0.33273  0.32030  Biso   1.000  O
  O5       1.0000 0.47100  0.17323  0.37830  Biso   1.000  O
  O6       1.0000 0.32850  0.14141  0.24360  Biso   1.000  O
  O7       1.0000 0.40380  0.12339  0.45340  Biso   1.000  O
  O8       1.0000 0.26300  0.09273  0.32390  Biso   1.000  O
  O9       1.0000 0.51180  0.05419  0.39790  Biso   1.000  O
  O10      1.0000 0.24610  0.02196  0.40280  Biso   1.000  O
  O11      1.0000 0.12050  0.08567  0.48040  Biso   1.000  O
  O12      1.0000 0.37280  0.05957  0.55010  Biso   1.000  O
  O13      1.0000 0.32320  0.97180  0.33350  Biso   1.000  O
  O14      1.0000 0.59910  0.00686  0.32260  Biso   1.000  O
  O15      1.0000 0.92740  0.39604  0.32200  Biso   1.000  O
  O16      1.0000 0.28330  0.06594  0.67610  Biso   1.000  O
  O17      1.0000 0.00530  0.08490  0.59820  Biso   1.000  O
  O18      1.0000 0.60220  0.24659  0.18110  Biso   1.000  O
  C10      1.0000 0.28580  0.73910  0.29300  Biso   1.000  C
  C11      1.0000 0.82950  0.62420  0.30990  Biso   1.000  C
  C12      1.0000 0.91040  0.64231  0.38670  Biso   1.000  C
  C13      1.0000 0.00080  0.52214  0.36020  Biso   1.000  C
  C14      1.0000 0.84580  0.50271  0.36520  Biso   1.000  C
  C15      1.0000 0.77070  0.56728  0.59980  Biso   1.000  C
  C16      1.0000 0.61710  0.58000  0.55820  Biso   1.000  C
  C17      1.0000 0.45800  0.86598  0.29050  Biso   1.000  C
  C18      1.0000 0.22020  0.75833  0.21260  Biso   1.000  C
  Cr2      1.0000 0.81644  0.57284  0.43526  Biso   1.000  Cr
  O19      1.0000 0.41410  0.75227  0.32120  Biso   1.000  O
  O20      1.0000 0.21280  0.71379  0.32310  Biso   1.000  O
  O21      1.0000 0.29910  0.78591  0.18770  Biso   1.000  O
  O22      1.0000 0.43510  0.83273  0.32030  Biso   1.000  O
  O23      1.0000 0.97100  0.67323  0.37830  Biso   1.000  O
  O24      1.0000 0.82850  0.64141  0.24360  Biso   1.000  O
  O25      1.0000 0.90380  0.62339  0.45340  Biso   1.000  O
  O26      1.0000 0.76300  0.59273  0.32390  Biso   1.000  O
  O27      1.0000 0.01180  0.55419  0.39790  Biso   1.000  O
  O28      1.0000 0.74610  0.52196  0.40280  Biso   1.000  O
  O29      1.0000 0.62050  0.58567  0.48040  Biso   1.000  O
  O30      1.0000 0.87280  0.55957  0.55010  Biso   1.000  O
  O31      1.0000 0.82320  0.47180  0.33350  Biso   1.000  O
  O32      1.0000 0.09910  0.50686  0.32260  Biso   1.000  O
  O33      1.0000 0.42740  0.89604  0.32200  Biso   1.000  O
  O34      1.0000 0.78330  0.56594  0.67610  Biso   1.000  O
  O35      1.0000 0.50530  0.58490  0.59820  Biso   1.000  O
  O36      1.0000 0.10220  0.74659  0.18110  Biso   1.000  O
  C19      1.0000 0.21420  0.23910  0.20700  Biso   1.000  C
  C20      1.0000 0.67050  0.12420  0.19010  Biso   1.000  C
  C21      1.0000 0.58960  0.14231  0.11330  Biso   1.000  C
  C22      1.0000 0.49920  0.02214  0.13980  Biso   1.000  C
  C23      1.0000 0.65420  0.00271  0.13480  Biso   1.000  C
  C24      1.0000 0.72930  0.06728  0.90020  Biso   1.000  C
  C25      1.0000 0.88290  0.08000  0.94180  Biso   1.000  C
  C26      1.0000 0.04200  0.36598  0.20950  Biso   1.000  C
  C27      1.0000 0.27980  0.25833  0.28740  Biso   1.000  C
  Cr3      1.0000 0.68356  0.07284  0.06474  Biso   1.000  Cr
  O37      1.0000 0.08590  0.25227  0.17880  Biso   1.000  O
  O38      1.0000 0.28720  0.21379  0.17690  Biso   1.000  O
  O39      1.0000 0.20090  0.28591  0.31230  Biso   1.000  O
  O40      1.0000 0.06490  0.33273  0.17970  Biso   1.000  O
  O41      1.0000 0.52900  0.17323  0.12170  Biso   1.000  O
  O42      1.0000 0.67150  0.14141  0.25640  Biso   1.000  O
  O43      1.0000 0.59620  0.12339  0.04660  Biso   1.000  O
  O44      1.0000 0.73700  0.09273  0.17610  Biso   1.000  O
  O45      1.0000 0.48820  0.05419  0.10210  Biso   1.000  O
  O46      1.0000 0.75390  0.02196  0.09720  Biso   1.000  O
  O47      1.0000 0.87950  0.08567  0.01960  Biso   1.000  O
  O48      1.0000 0.62720  0.05957  0.94990  Biso   1.000  O
  O49      1.0000 0.67680  0.97180  0.16650  Biso   1.000  O
  O50      1.0000 0.40090  0.00686  0.17740  Biso   1.000  O
  O51      1.0000 0.07260  0.39604  0.17800  Biso   1.000  O
  O52      1.0000 0.71670  0.06594  0.82390  Biso   1.000  O
  O53      1.0000 0.99470  0.08490  0.90180  Biso   1.000  O
  O54      1.0000 0.39780  0.24659  0.31890  Biso   1.000  O
  C28      1.0000 0.71420  0.73910  0.20700  Biso   1.000  C
  C29      1.0000 0.17050  0.62420  0.19010  Biso   1.000  C
  C30      1.0000 0.08960  0.64231  0.11330  Biso   1.000  C
  C31      1.0000 0.99920  0.52214  0.13980  Biso   1.000  C
  C32      1.0000 0.15420  0.50271  0.13480  Biso   1.000  C
  C33      1.0000 0.22930  0.56728  0.90020  Biso   1.000  C
  C34      1.0000 0.38290  0.58000  0.94180  Biso   1.000  C
  C35      1.0000 0.54200  0.86598  0.20950  Biso   1.000  C
  C36      1.0000 0.77980  0.75833  0.28740  Biso   1.000  C
  Cr4      1.0000 0.18356  0.57284  0.06474  Biso   1.000  Cr
  O55      1.0000 0.58590  0.75227  0.17880  Biso   1.000  O
  O56      1.0000 0.78720  0.71379  0.17690  Biso   1.000  O
  O57      1.0000 0.70090  0.78591  0.31230  Biso   1.000  O
  O58      1.0000 0.56490  0.83273  0.17970  Biso   1.000  O
  O59      1.0000 0.02900  0.67323  0.12170  Biso   1.000  O
  O60      1.0000 0.17150  0.64141  0.25640  Biso   1.000  O
  O61      1.0000 0.09620  0.62339  0.04660  Biso   1.000  O
  O62      1.0000 0.23700  0.59273  0.17610  Biso   1.000  O
  O63      1.0000 0.98820  0.55419  0.10210  Biso   1.000  O
  O64      1.0000 0.25390  0.52196  0.09720  Biso   1.000  O
  O65      1.0000 0.37950  0.58567  0.01960  Biso   1.000  O
  O66      1.0000 0.12720  0.55957  0.94990  Biso   1.000  O
  O67      1.0000 0.17680  0.47180  0.16650  Biso   1.000  O
  O68      1.0000 0.90090  0.50686  0.17740  Biso   1.000  O
  O69      1.0000 0.57260  0.89604  0.17800  Biso   1.000  O
  O70      1.0000 0.21670  0.56594  0.82390  Biso   1.000  O
  O71      1.0000 0.49470  0.58490  0.90180  Biso   1.000  O
  O72      1.0000 0.89780  0.74659  0.31890  Biso   1.000  O
  C37      1.0000 0.21420  0.76090  0.70700  Biso   1.000  C
  C38      1.0000 0.67050  0.87580  0.69010  Biso   1.000  C
  C39      1.0000 0.58960  0.85769  0.61330  Biso   1.000  C
  C40      1.0000 0.49920  0.97786  0.63980  Biso   1.000  C
  C41      1.0000 0.65420  0.99729  0.63480  Biso   1.000  C
  C42      1.0000 0.72930  0.93272  0.40020  Biso   1.000  C
  C43      1.0000 0.88290  0.92000  0.44180  Biso   1.000  C
  C44      1.0000 0.04200  0.63402  0.70950  Biso   1.000  C
  C45      1.0000 0.27980  0.74167  0.78740  Biso   1.000  C
  Cr5      1.0000 0.68356  0.92716  0.56474  Biso   1.000  Cr
  O73      1.0000 0.08590  0.74773  0.67880  Biso   1.000  O
  O74      1.0000 0.28720  0.78621  0.67690  Biso   1.000  O
  O75      1.0000 0.20090  0.71409  0.81230  Biso   1.000  O
  O76      1.0000 0.06490  0.66727  0.67970  Biso   1.000  O
  O77      1.0000 0.52900  0.82677  0.62170  Biso   1.000  O
  O78      1.0000 0.67150  0.85859  0.75640  Biso   1.000  O
  O79      1.0000 0.59620  0.87661  0.54660  Biso   1.000  O
  O80      1.0000 0.73700  0.90727  0.67610  Biso   1.000  O
  O81      1.0000 0.48820  0.94581  0.60210  Biso   1.000  O
  O82      1.0000 0.75390  0.97804  0.59720  Biso   1.000  O
  O83      1.0000 0.87950  0.91433  0.51960  Biso   1.000  O
  O84      1.0000 0.62720  0.94043  0.44990  Biso   1.000  O
  O85      1.0000 0.67680  0.02820  0.66650  Biso   1.000  O
  O86      1.0000 0.40090  0.99314  0.67740  Biso   1.000  O
  O87      1.0000 0.07260  0.60396  0.67800  Biso   1.000  O
  O88      1.0000 0.71670  0.93406  0.32390  Biso   1.000  O
  O89      1.0000 0.99470  0.91510  0.40180  Biso   1.000  O
  O90      1.0000 0.39780  0.75341  0.81890  Biso   1.000  O
  C46      1.0000 0.71420  0.26090  0.70700  Biso   1.000  C
  C47      1.0000 0.17050  0.37580  0.69010  Biso   1.000  C
  C48      1.0000 0.08960  0.35769  0.61330  Biso   1.000  C
  C49      1.0000 0.99920  0.47786  0.63980  Biso   1.000  C
  C50      1.0000 0.15420  0.49729  0.63480  Biso   1.000  C
  C51      1.0000 0.22930  0.43272  0.40020  Biso   1.000  C
  C52      1.0000 0.38290  0.42000  0.44180  Biso   1.000  C
  C53      1.0000 0.54200  0.13402  0.70950  Biso   1.000  C
  C54      1.0000 0.77980  0.24167  0.78740  Biso   1.000  C
  Cr6      1.0000 0.18356  0.42716  0.56474  Biso   1.000  Cr
  O91      1.0000 0.58590  0.24773  0.67880  Biso   1.000  O
  O92      1.0000 0.78720  0.28621  0.67690  Biso   1.000  O
  O93      1.0000 0.70090  0.21409  0.81230  Biso   1.000  O
  O94      1.0000 0.56490  0.16727  0.67970  Biso   1.000  O
  O95      1.0000 0.02900  0.32677  0.62170  Biso   1.000  O
  O96      1.0000 0.17150  0.35859  0.75640  Biso   1.000  O
  O97      1.0000 0.09620  0.37661  0.54660  Biso   1.000  O
  O98      1.0000 0.23700  0.40727  0.67610  Biso   1.000  O
  O99      1.0000 0.98820  0.44581  0.60210  Biso   1.000  O
  O100     1.0000 0.25390  0.47804  0.59720  Biso   1.000  O
  O101     1.0000 0.37950  0.41433  0.51960  Biso   1.000  O
  O102     1.0000 0.12720  0.44043  0.44990  Biso   1.000  O
  O103     1.0000 0.17680  0.52820  0.66650  Biso   1.000  O
  O104     1.0000 0.90090  0.49314  0.67740  Biso   1.000  O
  O105     1.0000 0.57260  0.10396  0.67800  Biso   1.000  O
  O106     1.0000 0.21670  0.43406  0.32390  Biso   1.000  O
  O107     1.0000 0.49470  0.41510  0.40180  Biso   1.000  O
  O108     1.0000 0.89780  0.25341  0.81890  Biso   1.000  O
  C55      1.0000 0.78580  0.76090  0.79300  Biso   1.000  C
  C56      1.0000 0.32950  0.87580  0.80990  Biso   1.000  C
  C57      1.0000 0.41040  0.85769  0.88670  Biso   1.000  C
  C58      1.0000 0.50080  0.97786  0.86020  Biso   1.000  C
  C59      1.0000 0.34580  0.99729  0.86520  Biso   1.000  C
  C60      1.0000 0.27070  0.93272  0.09980  Biso   1.000  C
  C61      1.0000 0.11710  0.92000  0.05820  Biso   1.000  C
  C62      1.0000 0.95800  0.63402  0.79050  Biso   1.000  C
  C63      1.0000 0.72020  0.74167  0.71260  Biso   1.000  C
  Cr7      1.0000 0.31644  0.92716  0.93526  Biso   1.000  Cr
  O109     1.0000 0.91410  0.74773  0.82120  Biso   1.000  O
  O110     1.0000 0.71280  0.78621  0.82310  Biso   1.000  O
  O111     1.0000 0.79910  0.71409  0.68770  Biso   1.000  O
  O112     1.0000 0.93510  0.66727  0.82030  Biso   1.000  O
  O113     1.0000 0.47100  0.82677  0.87830  Biso   1.000  O
  O114     1.0000 0.32850  0.85859  0.74360  Biso   1.000  O
  O115     1.0000 0.40380  0.87661  0.95340  Biso   1.000  O
  O116     1.0000 0.26300  0.90727  0.82390  Biso   1.000  O
  O117     1.0000 0.51180  0.94581  0.89790  Biso   1.000  O
  O118     1.0000 0.24610  0.97804  0.90280  Biso   1.000  O
  O119     1.0000 0.12050  0.91433  0.98040  Biso   1.000  O
  O120     1.0000 0.37280  0.94043  0.05010  Biso   1.000  O
  O121     1.0000 0.32320  0.02820  0.83350  Biso   1.000  O
  O122     1.0000 0.59910  0.99314  0.82260  Biso   1.000  O
  O123     1.0000 0.92740  0.60396  0.82200  Biso   1.000  O
  O124     1.0000 0.28330  0.93406  0.17610  Biso   1.000  O
  O125     1.0000 0.00530  0.91510  0.09820  Biso   1.000  O
  O126     1.0000 0.60220  0.75341  0.68110  Biso   1.000  O
  C64      1.0000 0.28580  0.26090  0.79300  Biso   1.000  C
  C65      1.0000 0.82950  0.37580  0.80990  Biso   1.000  C
  C66      1.0000 0.91040  0.35769  0.88670  Biso   1.000  C
  C67      1.0000 0.00080  0.47786  0.86020  Biso   1.000  C
  C68      1.0000 0.84580  0.49729  0.86520  Biso   1.000  C
  C69      1.0000 0.77070  0.43272  0.09980  Biso   1.000  C
  C70      1.0000 0.61710  0.42000  0.05820  Biso   1.000  C
  C71      1.0000 0.45800  0.13402  0.79050  Biso   1.000  C
  C72      1.0000 0.22020  0.24167  0.71260  Biso   1.000  C
  Cr8      1.0000 0.81644  0.42716  0.93526  Biso   1.000  Cr
  O127     1.0000 0.41410  0.24773  0.82120  Biso   1.000  O
  O128     1.0000 0.21280  0.28621  0.82310  Biso   1.000  O
  O129     1.0000 0.29910  0.21409  0.68770  Biso   1.000  O
  O130     1.0000 0.43510  0.16727  0.82030  Biso   1.000  O
  O131     1.0000 0.97100  0.32677  0.87830  Biso   1.000  O
  O132     1.0000 0.82850  0.35859  0.74360  Biso   1.000  O
  O133     1.0000 0.90380  0.37661  0.95340  Biso   1.000  O
  O134     1.0000 0.76300  0.40727  0.82390  Biso   1.000  O
  O135     1.0000 0.01180  0.44581  0.89790  Biso   1.000  O
  O136     1.0000 0.74610  0.47804  0.90280  Biso   1.000  O
  O137     1.0000 0.62050  0.41433  0.98040  Biso   1.000  O
  O138     1.0000 0.87280  0.44043  0.05010  Biso   1.000  O
  O139     1.0000 0.82320  0.52820  0.83350  Biso   1.000  O
  O140     1.0000 0.09910  0.49314  0.82260  Biso   1.000  O
  O141     1.0000 0.42740  0.10396  0.82200  Biso   1.000  O
  O142     1.0000 0.78330  0.43406  0.17610  Biso   1.000  O
  O143     1.0000 0.50530  0.41510  0.09820  Biso   1.000  O
  O144     1.0000 0.10220  0.25341  0.68110  Biso   1.000  O
  Cr9      1.0000 0.00000  0.29117  0.25000  Biso   1.000  Cr
  Mn1      1.0000 0.00000  0.44948  0.25000  Biso   1.000  Mn
  Cr10     1.0000 0.50000  0.79117  0.25000  Biso   1.000  Cr
  Mn2      1.0000 0.50000  0.94948  0.25000  Biso   1.000  Mn
  Cr11     1.0000 0.00000  0.70883  0.75000  Biso   1.000  Cr
  Mn3      1.0000 0.00000  0.55052  0.75000  Biso   1.000  Mn
  Cr12     1.0000 0.50000  0.20883  0.75000  Biso   1.000  Cr
  Mn4      1.0000 0.50000  0.05052  0.75000  Biso   1.000  Mn
  Mn5      1.0000 0.50000  0.19466  0.25000  Biso   1.000  Mn
  Mn6      1.0000 0.00000  0.69466  0.25000  Biso   1.000  Mn
  Mn7      1.0000 0.50000  0.80534  0.75000  Biso   1.000  Mn
  Mn8      1.0000 0.00000  0.30534  0.75000  Biso   1.000  Mn
