data_HOGJIX_clean
_audit_creation_date              2014-07-02
_audit_creation_method            'Materials Studio'
_symmetry_space_group_name_H-M    'P1'
_symmetry_Int_Tables_number       1
_symmetry_cell_setting            triclinic
loop_
_symmetry_equiv_pos_as_xyz
  x,y,z
_cell_length_a                    19.4253
_cell_length_b                    19.4253
_cell_length_c                    21.7050
_cell_angle_alpha                 64.1789
_cell_angle_beta                  64.1789
_cell_angle_gamma                 60.6199
loop_
_atom_site_label
_atom_site_type_symbol
_atom_site_fract_x
_atom_site_fract_y
_atom_site_fract_z
_atom_site_U_iso_or_equiv
_atom_site_adp_type
_atom_site_occupancy
Zn1    Zn    0.30204   0.18801   0.31260   0.01267  Uiso   1.00
Zn2    Zn    0.26091   0.27532   0.17311   0.01267  Uiso   1.00
Zn3    Zn    0.82041   0.26986   0.18076   0.01267  Uiso   1.00
Zn4    Zn    0.81199   0.69796   0.18740   0.01267  Uiso   1.00
Zn5    Zn    0.72468   0.73909   0.32689   0.01267  Uiso   1.00
Zn6    Zn    0.73014   0.17959   0.31924   0.01267  Uiso   1.00
Zn7    Zn    0.69796   0.81199   0.68740   0.01267  Uiso   1.00
Zn8    Zn    0.73909   0.72468   0.82689   0.01267  Uiso   1.00
Zn9    Zn    0.17959   0.73014   0.81924   0.01267  Uiso   1.00
Zn10   Zn    0.18801   0.30204   0.81260   0.01267  Uiso   1.00
Zn11   Zn    0.27532   0.26091   0.67311   0.01267  Uiso   1.00
Zn12   Zn    0.26986   0.82041   0.68076   0.01267  Uiso   1.00
H1     H     0.13290   0.37830   0.40850   0.01267  Uiso   1.00
H2     H     0.03970   0.48570   0.24010   0.01267  Uiso   1.00
H3     H     0.92020   0.57900   0.40990   0.01267  Uiso   1.00
H4     H     0.41410   0.41430   0.08550   0.01267  Uiso   1.00
H5     H     0.62570   0.40610   0.08910   0.01267  Uiso   1.00
H6     H     0.51520   0.25140   0.24870   0.01267  Uiso   1.00
H7     H     0.13620   0.07200   0.40140   0.01267  Uiso   1.00
H8     H     0.92470   0.07410   0.40670   0.01267  Uiso   1.00
H9     H     0.04660   0.20600   0.23030   0.01267  Uiso   1.00
H10    H     0.62170   0.86710   0.09150   0.01267  Uiso   1.00
H11    H     0.51430   0.96030   0.25990   0.01267  Uiso   1.00
H12    H     0.42100   0.07980   0.09010   0.01267  Uiso   1.00
H13    H     0.58570   0.58590   0.41450   0.01267  Uiso   1.00
H14    H     0.59390   0.37430   0.41090   0.01267  Uiso   1.00
H15    H     0.74860   0.48480   0.25130   0.01267  Uiso   1.00
H16    H     0.92800   0.86380   0.09860   0.01267  Uiso   1.00
H17    H     0.92590   0.07530   0.09330   0.01267  Uiso   1.00
H18    H     0.79400   0.95340   0.26970   0.01267  Uiso   1.00
H19    H     0.86710   0.62170   0.59150   0.01267  Uiso   1.00
H20    H     0.96030   0.51430   0.75990   0.01267  Uiso   1.00
H21    H     0.07980   0.42100   0.59010   0.01267  Uiso   1.00
H22    H     0.58590   0.58570   0.91450   0.01267  Uiso   1.00
H23    H     0.37430   0.59390   0.91090   0.01267  Uiso   1.00
H24    H     0.48480   0.74860   0.75130   0.01267  Uiso   1.00
H25    H     0.86380   0.92800   0.59860   0.01267  Uiso   1.00
H26    H     0.07530   0.92590   0.59330   0.01267  Uiso   1.00
H27    H     0.95340   0.79400   0.76970   0.01267  Uiso   1.00
H28    H     0.37830   0.13290   0.90850   0.01267  Uiso   1.00
H29    H     0.48570   0.03970   0.74010   0.01267  Uiso   1.00
H30    H     0.57900   0.92020   0.90990   0.01267  Uiso   1.00
H31    H     0.41430   0.41410   0.58550   0.01267  Uiso   1.00
H32    H     0.40610   0.62570   0.58910   0.01267  Uiso   1.00
H33    H     0.25140   0.51520   0.74870   0.01267  Uiso   1.00
H34    H     0.07200   0.13620   0.90140   0.01267  Uiso   1.00
H35    H     0.07410   0.92470   0.90670   0.01267  Uiso   1.00
H36    H     0.20600   0.04660   0.73030   0.01267  Uiso   1.00
C1     C     0.16580   0.35658   0.28566   0.01267  Uiso   1.00
C2     C     0.09561   0.42249   0.31958   0.01267  Uiso   1.00
C3     C     0.09144   0.42002   0.38580   0.01267  Uiso   1.00
C4     C     0.03562   0.48316   0.28619   0.01267  Uiso   1.00
C5     C     0.02608   0.47912   0.41910   0.01267  Uiso   1.00
C6     C     0.96472   0.53916   0.38680   0.01267  Uiso   1.00
C7     C     0.96827   0.54123   0.32113   0.01267  Uiso   1.00
C8     C     0.90077   0.60537   0.28805   0.01267  Uiso   1.00
C9     C     0.39031   0.29149   0.20124   0.01267  Uiso   1.00
C10    C     0.45643   0.32587   0.17049   0.01267  Uiso   1.00
C11    C     0.45651   0.39071   0.10770   0.01267  Uiso   1.00
C12    C     0.51995   0.42015   0.07850   0.01267  Uiso   1.00
C13    C     0.58240   0.38580   0.11020   0.01267  Uiso   1.00
C14    C     0.58176   0.32188   0.17251   0.01267  Uiso   1.00
C15    C     0.51751   0.29299   0.20436   0.01267  Uiso   1.00
C16    C     0.65068   0.28300   0.20563   0.01267  Uiso   1.00
C17    C     0.16922   0.17740   0.27622   0.01267  Uiso   1.00
C18    C     0.10081   0.14679   0.31051   0.01267  Uiso   1.00
C19    C     0.09488   0.09128   0.37920   0.01267  Uiso   1.00
C20    C     0.02985   0.06425   0.41500   0.01267  Uiso   1.00
C21    C     0.96993   0.09173   0.38201   0.01267  Uiso   1.00
C22    C     0.97579   0.14411   0.31387   0.01267  Uiso   1.00
C23    C     0.04189   0.17089   0.27781   0.01267  Uiso   1.00
C24    C     0.90818   0.17556   0.28120   0.01267  Uiso   1.00
C25    C     0.64342   0.83420   0.21434   0.01267  Uiso   1.00
C26    C     0.57751   0.90439   0.18042   0.01267  Uiso   1.00
C27    C     0.57998   0.90856   0.11420   0.01267  Uiso   1.00
C28    C     0.51684   0.96438   0.21381   0.01267  Uiso   1.00
C29    C     0.52088   0.97392   0.08090   0.01267  Uiso   1.00
C30    C     0.46084   0.03528   0.11320   0.01267  Uiso   1.00
C31    C     0.45877   0.03173   0.17887   0.01267  Uiso   1.00
C32    C     0.39463   0.09923   0.21195   0.01267  Uiso   1.00
C33    C     0.70851   0.60969   0.29876   0.01267  Uiso   1.00
C34    C     0.67413   0.54357   0.32951   0.01267  Uiso   1.00
C35    C     0.60929   0.54349   0.39230   0.01267  Uiso   1.00
C36    C     0.57985   0.48005   0.42150   0.01267  Uiso   1.00
C37    C     0.61420   0.41760   0.38980   0.01267  Uiso   1.00
C38    C     0.67812   0.41824   0.32749   0.01267  Uiso   1.00
C39    C     0.70701   0.48249   0.29564   0.01267  Uiso   1.00
C40    C     0.71700   0.34932   0.29437   0.01267  Uiso   1.00
C41    C     0.82260   0.83078   0.22378   0.01267  Uiso   1.00
C42    C     0.85321   0.89919   0.18949   0.01267  Uiso   1.00
C43    C     0.90872   0.90512   0.12080   0.01267  Uiso   1.00
C44    C     0.93575   0.97015   0.08500   0.01267  Uiso   1.00
C45    C     0.90827   0.03007   0.11799   0.01267  Uiso   1.00
C46    C     0.85589   0.02421   0.18613   0.01267  Uiso   1.00
C47    C     0.82911   0.95811   0.22219   0.01267  Uiso   1.00
C48    C     0.82444   0.09182   0.21880   0.01267  Uiso   1.00
C49    C     0.83420   0.64342   0.71434   0.01267  Uiso   1.00
C50    C     0.90439   0.57751   0.68042   0.01267  Uiso   1.00
C51    C     0.90856   0.57998   0.61420   0.01267  Uiso   1.00
C52    C     0.96438   0.51684   0.71381   0.01267  Uiso   1.00
C53    C     0.97392   0.52088   0.58090   0.01267  Uiso   1.00
C54    C     0.03528   0.46084   0.61320   0.01267  Uiso   1.00
C55    C     0.03173   0.45877   0.67887   0.01267  Uiso   1.00
C56    C     0.09923   0.39463   0.71195   0.01267  Uiso   1.00
C57    C     0.60969   0.70851   0.79876   0.01267  Uiso   1.00
C58    C     0.54357   0.67413   0.82951   0.01267  Uiso   1.00
C59    C     0.54349   0.60929   0.89230   0.01267  Uiso   1.00
C60    C     0.48005   0.57985   0.92150   0.01267  Uiso   1.00
C61    C     0.41760   0.61420   0.88980   0.01267  Uiso   1.00
C62    C     0.41824   0.67812   0.82749   0.01267  Uiso   1.00
C63    C     0.48249   0.70701   0.79564   0.01267  Uiso   1.00
C64    C     0.34932   0.71700   0.79437   0.01267  Uiso   1.00
C65    C     0.83078   0.82260   0.72378   0.01267  Uiso   1.00
C66    C     0.89919   0.85321   0.68949   0.01267  Uiso   1.00
C67    C     0.90512   0.90872   0.62080   0.01267  Uiso   1.00
C68    C     0.97015   0.93575   0.58500   0.01267  Uiso   1.00
C69    C     0.03007   0.90827   0.61799   0.01267  Uiso   1.00
C70    C     0.02421   0.85589   0.68613   0.01267  Uiso   1.00
C71    C     0.95811   0.82911   0.72219   0.01267  Uiso   1.00
C72    C     0.09182   0.82444   0.71880   0.01267  Uiso   1.00
C73    C     0.35658   0.16580   0.78566   0.01267  Uiso   1.00
C74    C     0.42249   0.09561   0.81958   0.01267  Uiso   1.00
C75    C     0.42002   0.09144   0.88580   0.01267  Uiso   1.00
C76    C     0.48316   0.03562   0.78619   0.01267  Uiso   1.00
C77    C     0.47912   0.02608   0.91910   0.01267  Uiso   1.00
C78    C     0.53916   0.96472   0.88680   0.01267  Uiso   1.00
C79    C     0.54123   0.96827   0.82113   0.01267  Uiso   1.00
C80    C     0.60537   0.90077   0.78805   0.01267  Uiso   1.00
C81    C     0.29149   0.39031   0.70124   0.01267  Uiso   1.00
C82    C     0.32587   0.45643   0.67049   0.01267  Uiso   1.00
C83    C     0.39071   0.45651   0.60770   0.01267  Uiso   1.00
C84    C     0.42015   0.51995   0.57850   0.01267  Uiso   1.00
C85    C     0.38580   0.58240   0.61020   0.01267  Uiso   1.00
C86    C     0.32188   0.58176   0.67251   0.01267  Uiso   1.00
C87    C     0.29299   0.51751   0.70436   0.01267  Uiso   1.00
C88    C     0.28300   0.65068   0.70563   0.01267  Uiso   1.00
C89    C     0.17740   0.16922   0.77622   0.01267  Uiso   1.00
C90    C     0.14679   0.10081   0.81051   0.01267  Uiso   1.00
C91    C     0.09128   0.09488   0.87920   0.01267  Uiso   1.00
C92    C     0.06425   0.02985   0.91500   0.01267  Uiso   1.00
C93    C     0.09173   0.96993   0.88201   0.01267  Uiso   1.00
C94    C     0.14411   0.97579   0.81387   0.01267  Uiso   1.00
C95    C     0.17089   0.04189   0.77781   0.01267  Uiso   1.00
C96    C     0.17556   0.90818   0.78120   0.01267  Uiso   1.00
N1     N     0.02841   0.47321   0.48630   0.01267  Uiso   1.00
N2     N     0.52597   0.48697   0.01440   0.01267  Uiso   1.00
N3     N     0.02991   0.00951   0.48479   0.01267  Uiso   1.00
N4     N     0.52679   0.97159   0.01370   0.01267  Uiso   1.00
N5     N     0.51303   0.47403   0.48560   0.01267  Uiso   1.00
N6     N     0.99049   0.97009   0.01521   0.01267  Uiso   1.00
N7     N     0.97159   0.52679   0.51370   0.01267  Uiso   1.00
N8     N     0.47403   0.51303   0.98560   0.01267  Uiso   1.00
N9     N     0.97009   0.99049   0.51521   0.01267  Uiso   1.00
N10    N     0.47321   0.02841   0.98630   0.01267  Uiso   1.00
N11    N     0.48697   0.52597   0.51440   0.01267  Uiso   1.00
N12    N     0.00951   0.02991   0.98479   0.01267  Uiso   1.00
O1     O     0.21384   0.30038   0.32225   0.01267  Uiso   1.00
O2     O     0.17008   0.36142   0.22461   0.01267  Uiso   1.00
O3     O     0.91083   0.61267   0.22442   0.01267  Uiso   1.00
O4     O     0.83751   0.64577   0.32779   0.01267  Uiso   1.00
O5     O     0.38769   0.23879   0.26237   0.01267  Uiso   1.00
O6     O     0.34375   0.31701   0.16359   0.01267  Uiso   1.00
O7     O     0.21094   0.16090   0.31510   0.01267  Uiso   1.00
O8     O     0.17786   0.22120   0.21148   0.01267  Uiso   1.00
O9     O     0.70829   0.30947   0.17070   0.01267  Uiso   1.00
O10    O     0.64636   0.22726   0.26408   0.01267  Uiso   1.00
O11    O     0.91975   0.21669   0.21621   0.01267  Uiso   1.00
O12    O     0.84467   0.15943   0.32134   0.01267  Uiso   1.00
O13    O     0.69962   0.78616   0.17775   0.01267  Uiso   1.00
O14    O     0.63858   0.82992   0.27539   0.01267  Uiso   1.00
O15    O     0.38733   0.08917   0.27558   0.01267  Uiso   1.00
O16    O     0.35423   0.16249   0.17221   0.01267  Uiso   1.00
O17    O     0.76121   0.61231   0.23763   0.01267  Uiso   1.00
O18    O     0.68299   0.65625   0.33641   0.01267  Uiso   1.00
O19    O     0.83910   0.78906   0.18490   0.01267  Uiso   1.00
O20    O     0.77880   0.82214   0.28852   0.01267  Uiso   1.00
O21    O     0.69053   0.29171   0.32930   0.01267  Uiso   1.00
O22    O     0.77274   0.35364   0.23592   0.01267  Uiso   1.00
O23    O     0.78331   0.08025   0.28379   0.01267  Uiso   1.00
O24    O     0.84057   0.15533   0.17866   0.01267  Uiso   1.00
O25    O     0.78616   0.69962   0.67775   0.01267  Uiso   1.00
O26    O     0.82992   0.63858   0.77539   0.01267  Uiso   1.00
O27    O     0.08917   0.38733   0.77558   0.01267  Uiso   1.00
O28    O     0.16249   0.35423   0.67221   0.01267  Uiso   1.00
O29    O     0.61231   0.76121   0.73763   0.01267  Uiso   1.00
O30    O     0.65625   0.68299   0.83641   0.01267  Uiso   1.00
O31    O     0.78906   0.83910   0.68490   0.01267  Uiso   1.00
O32    O     0.82214   0.77880   0.78852   0.01267  Uiso   1.00
O33    O     0.29171   0.69053   0.82930   0.01267  Uiso   1.00
O34    O     0.35364   0.77274   0.73592   0.01267  Uiso   1.00
O35    O     0.08025   0.78331   0.78379   0.01267  Uiso   1.00
O36    O     0.15533   0.84057   0.67866   0.01267  Uiso   1.00
O37    O     0.30038   0.21384   0.82225   0.01267  Uiso   1.00
O38    O     0.36142   0.17008   0.72461   0.01267  Uiso   1.00
O39    O     0.61267   0.91083   0.72442   0.01267  Uiso   1.00
O40    O     0.64577   0.83751   0.82779   0.01267  Uiso   1.00
O41    O     0.23879   0.38769   0.76237   0.01267  Uiso   1.00
O42    O     0.31701   0.34375   0.66359   0.01267  Uiso   1.00
O43    O     0.16090   0.21094   0.81510   0.01267  Uiso   1.00
O44    O     0.22120   0.17786   0.71148   0.01267  Uiso   1.00
O45    O     0.30947   0.70829   0.67070   0.01267  Uiso   1.00
O46    O     0.22726   0.64636   0.76408   0.01267  Uiso   1.00
O47    O     0.21669   0.91975   0.71621   0.01267  Uiso   1.00
O48    O     0.15943   0.84467   0.82134   0.01267  Uiso   1.00
