data_image0
_cell_length_a       17.481
_cell_length_b       24.505
_cell_length_c       21.049
_cell_angle_alpha    90
_cell_angle_beta     92.995
_cell_angle_gamma    90

_symmetry_space_group_name_H-M    "P 1"
_symmetry_int_tables_number       1

loop_
  _symmetry_equiv_pos_as_xyz
  'x, y, z'

loop_
  _atom_site_label
  _atom_site_occupancy
  _atom_site_fract_x
  _atom_site_fract_y
  _atom_site_fract_z
  _atom_site_thermal_displace_type
  _atom_site_B_iso_or_equiv
  _atom_site_type_symbol
  Ru1      1.0000 0.96438  0.53267  0.47402  Biso   1.000  Ru
  Ru2      1.0000 0.55706  0.61762  0.27879  Biso   1.000  Ru
  S1       1.0000 0.56192  0.75916  0.44241  Biso   1.000  S
  F1       1.0000 0.17260  0.56930  0.20930  Biso   1.000  F
  F2       1.0000 0.34510  0.46730  0.32740  Biso   1.000  F
  F3       1.0000 0.15140  0.75790  0.60970  Biso   1.000  F
  F4       1.0000 0.24920  0.63580  0.73290  Biso   1.000  F
  F5       1.0000 0.19130  0.60770  0.46830  Biso   1.000  F
  F6       1.0000 0.60580  0.33370  0.31320  Biso   1.000  F
  F7       1.0000 0.58990  0.90330  0.30500  Biso   1.000  F
  O1       1.0000 0.04100  0.53618  0.40610  Biso   1.000  O
  O2       1.0000 0.11210  0.47204  0.45660  Biso   1.000  O
  O3       1.0000 0.02420  0.59115  0.52490  Biso   1.000  O
  O4       1.0000 0.09360  0.52644  0.57650  Biso   1.000  O
  O5       1.0000 0.38600  0.61626  0.30420  Biso   1.000  O
  O6       1.0000 0.49800  0.61912  0.36060  Biso   1.000  O
  O7       1.0000 0.55540  0.53312  0.27998  Biso   1.000  O
  O8       1.0000 0.55680  0.70162  0.27720  Biso   1.000  O
  N1       1.0000 0.88850  0.59410  0.42590  Biso   1.000  N
  N2       1.0000 0.66870  0.62010  0.33820  Biso   1.000  N
  N3       1.0000 0.62560  0.71450  0.42800  Biso   1.000  N
  N4       1.0000 0.61000  0.79930  0.49100  Biso   1.000  N
  C1       1.0000 0.09980  0.50540  0.41100  Biso   1.000  C
  C2       1.0000 0.15630  0.50910  0.36120  Biso   1.000  C
  C3       1.0000 0.13640  0.53760  0.30490  Biso   1.000  C
  C4       1.0000 0.18990  0.54140  0.25890  Biso   1.000  C
  C5       1.0000 0.26110  0.51670  0.26590  Biso   1.000  C
  C6       1.0000 0.27820  0.48730  0.32110  Biso   1.000  C
  C7       1.0000 0.22650  0.48340  0.36790  Biso   1.000  C
  C8       1.0000 0.07600  0.57580  0.56570  Biso   1.000  C
  C9       1.0000 0.11930  0.61770  0.60270  Biso   1.000  C
  C10      1.0000 0.11380  0.67050  0.58630  Biso   1.000  C
  C11      1.0000 0.15770  0.71040  0.61750  Biso   1.000  C
  C12      1.0000 0.20660  0.69540  0.67060  Biso   1.000  C
  C13      1.0000 0.21150  0.63970  0.68810  Biso   1.000  C
  C14      1.0000 0.16590  0.60230  0.65490  Biso   1.000  C
  C15      1.0000 0.42580  0.61830  0.35600  Biso   1.000  C
  C16      1.0000 0.38410  0.61990  0.41710  Biso   1.000  C
  C17      1.0000 0.30460  0.61360  0.41390  Biso   1.000  C
  C18      1.0000 0.26880  0.61550  0.46920  Biso   1.000  C
  C19      1.0000 0.30540  0.62510  0.52780  Biso   1.000  C
  C20      1.0000 0.38560  0.63150  0.53000  Biso   1.000  C
  C21      1.0000 0.42370  0.62820  0.47480  Biso   1.000  C
  C22      1.0000 0.55870  0.42000  0.28270  Biso   1.000  C
  C23      1.0000 0.55870  0.36300  0.28180  Biso   1.000  C
  C24      1.0000 0.55600  0.81540  0.28320  Biso   1.000  C
  C25      1.0000 0.55660  0.87200  0.28490  Biso   1.000  C
  C26      1.0000 0.83610  0.62180  0.42510  Biso   1.000  C
  C27      1.0000 0.76830  0.65340  0.42220  Biso   1.000  C
  C28      1.0000 0.71140  0.63500  0.37680  Biso   1.000  C
  C29      1.0000 0.75960  0.69970  0.46070  Biso   1.000  C
  C30      1.0000 0.68940  0.72920  0.46070  Biso   1.000  C
  C31      1.0000 0.68000  0.77750  0.49810  Biso   1.000  C
  H1       1.0000 0.08730  0.55380  0.29850  Biso   1.000  H
  H2       1.0000 0.29710  0.51970  0.23380  Biso   1.000  H
  H3       1.0000 0.23920  0.46280  0.40520  Biso   1.000  H
  H4       1.0000 0.07880  0.68090  0.55240  Biso   1.000  H
  H5       1.0000 0.23550  0.72230  0.69390  Biso   1.000  H
  H6       1.0000 0.16650  0.56520  0.66810  Biso   1.000  H
  H7       1.0000 0.27690  0.60820  0.37440  Biso   1.000  H
  H8       1.0000 0.27760  0.62740  0.56530  Biso   1.000  H
  H9       1.0000 0.41300  0.63800  0.56940  Biso   1.000  H
  H10      1.0000 0.47790  0.63170  0.47620  Biso   1.000  H
  H11      1.0000 0.59840  0.43950  0.30540  Biso   1.000  H
  H12      1.0000 0.59570  0.79600  0.30590  Biso   1.000  H
  Ru3      1.0000 0.46438  0.03267  0.47402  Biso   1.000  Ru
  Ru4      1.0000 0.05706  0.11762  0.27879  Biso   1.000  Ru
  S2       1.0000 0.06192  0.25916  0.44241  Biso   1.000  S
  F8       1.0000 0.67260  0.06930  0.20930  Biso   1.000  F
  F9       1.0000 0.84510  0.96730  0.32740  Biso   1.000  F
  F10      1.0000 0.65140  0.25790  0.60970  Biso   1.000  F
  F11      1.0000 0.74920  0.13580  0.73290  Biso   1.000  F
  F12      1.0000 0.69130  0.10770  0.46830  Biso   1.000  F
  F13      1.0000 0.10580  0.83370  0.31320  Biso   1.000  F
  F14      1.0000 0.08990  0.40330  0.30500  Biso   1.000  F
  O9       1.0000 0.54100  0.03618  0.40610  Biso   1.000  O
  O10      1.0000 0.61210  0.97204  0.45660  Biso   1.000  O
  O11      1.0000 0.52420  0.09115  0.52490  Biso   1.000  O
  O12      1.0000 0.59360  0.02644  0.57650  Biso   1.000  O
  O13      1.0000 0.88600  0.11626  0.30420  Biso   1.000  O
  O14      1.0000 0.99800  0.11912  0.36060  Biso   1.000  O
  O15      1.0000 0.05540  0.03312  0.27998  Biso   1.000  O
  O16      1.0000 0.05680  0.20162  0.27720  Biso   1.000  O
  N5       1.0000 0.38850  0.09410  0.42590  Biso   1.000  N
  N6       1.0000 0.16870  0.12010  0.33820  Biso   1.000  N
  N7       1.0000 0.12560  0.21450  0.42800  Biso   1.000  N
  N8       1.0000 0.11000  0.29930  0.49100  Biso   1.000  N
  C32      1.0000 0.59980  0.00540  0.41100  Biso   1.000  C
  C33      1.0000 0.65630  0.00910  0.36120  Biso   1.000  C
  C34      1.0000 0.63640  0.03760  0.30490  Biso   1.000  C
  C35      1.0000 0.68990  0.04140  0.25890  Biso   1.000  C
  C36      1.0000 0.76110  0.01670  0.26590  Biso   1.000  C
  C37      1.0000 0.77820  0.98730  0.32110  Biso   1.000  C
  C38      1.0000 0.72650  0.98340  0.36790  Biso   1.000  C
  C39      1.0000 0.57600  0.07580  0.56570  Biso   1.000  C
  C40      1.0000 0.61930  0.11770  0.60270  Biso   1.000  C
  C41      1.0000 0.61380  0.17050  0.58630  Biso   1.000  C
  C42      1.0000 0.65770  0.21040  0.61750  Biso   1.000  C
  C43      1.0000 0.70660  0.19540  0.67060  Biso   1.000  C
  C44      1.0000 0.71150  0.13970  0.68810  Biso   1.000  C
  C45      1.0000 0.66590  0.10230  0.65490  Biso   1.000  C
  C46      1.0000 0.92580  0.11830  0.35600  Biso   1.000  C
  C47      1.0000 0.88410  0.11990  0.41710  Biso   1.000  C
  C48      1.0000 0.80460  0.11360  0.41390  Biso   1.000  C
  C49      1.0000 0.76880  0.11550  0.46920  Biso   1.000  C
  C50      1.0000 0.80540  0.12510  0.52780  Biso   1.000  C
  C51      1.0000 0.88560  0.13150  0.53000  Biso   1.000  C
  C52      1.0000 0.92370  0.12820  0.47480  Biso   1.000  C
  C53      1.0000 0.05870  0.92000  0.28270  Biso   1.000  C
  C54      1.0000 0.05870  0.86300  0.28180  Biso   1.000  C
  C55      1.0000 0.05600  0.31540  0.28320  Biso   1.000  C
  C56      1.0000 0.05660  0.37200  0.28490  Biso   1.000  C
  C57      1.0000 0.33610  0.12180  0.42510  Biso   1.000  C
  C58      1.0000 0.26830  0.15340  0.42220  Biso   1.000  C
  C59      1.0000 0.21140  0.13500  0.37680  Biso   1.000  C
  C60      1.0000 0.25960  0.19970  0.46070  Biso   1.000  C
  C61      1.0000 0.18940  0.22920  0.46070  Biso   1.000  C
  C62      1.0000 0.18000  0.27750  0.49810  Biso   1.000  C
  H13      1.0000 0.58730  0.05380  0.29850  Biso   1.000  H
  H14      1.0000 0.79710  0.01970  0.23380  Biso   1.000  H
  H15      1.0000 0.73920  0.96280  0.40520  Biso   1.000  H
  H16      1.0000 0.57880  0.18090  0.55240  Biso   1.000  H
  H17      1.0000 0.73550  0.22230  0.69390  Biso   1.000  H
  H18      1.0000 0.66650  0.06520  0.66810  Biso   1.000  H
  H19      1.0000 0.77690  0.10820  0.37440  Biso   1.000  H
  H20      1.0000 0.77760  0.12740  0.56530  Biso   1.000  H
  H21      1.0000 0.91300  0.13800  0.56940  Biso   1.000  H
  H22      1.0000 0.97790  0.13170  0.47620  Biso   1.000  H
  H23      1.0000 0.09840  0.93950  0.30540  Biso   1.000  H
  H24      1.0000 0.09570  0.29600  0.30590  Biso   1.000  H
  Ru5      1.0000 0.03562  0.53267  0.02598  Biso   1.000  Ru
  Ru6      1.0000 0.44294  0.61762  0.22121  Biso   1.000  Ru
  S3       1.0000 0.43808  0.75916  0.05759  Biso   1.000  S
  F15      1.0000 0.82740  0.56930  0.29070  Biso   1.000  F
  F16      1.0000 0.65490  0.46730  0.17260  Biso   1.000  F
  F17      1.0000 0.84860  0.75790  0.89030  Biso   1.000  F
  F18      1.0000 0.75080  0.63580  0.76710  Biso   1.000  F
  F19      1.0000 0.80870  0.60770  0.03170  Biso   1.000  F
  F20      1.0000 0.39420  0.33370  0.18680  Biso   1.000  F
  F21      1.0000 0.41010  0.90330  0.19500  Biso   1.000  F
  O17      1.0000 0.95900  0.53618  0.09390  Biso   1.000  O
  O18      1.0000 0.88790  0.47204  0.04340  Biso   1.000  O
  O19      1.0000 0.97580  0.59115  0.97510  Biso   1.000  O
  O20      1.0000 0.90640  0.52644  0.92350  Biso   1.000  O
  O21      1.0000 0.61400  0.61626  0.19580  Biso   1.000  O
  O22      1.0000 0.50200  0.61912  0.13940  Biso   1.000  O
  O23      1.0000 0.44460  0.53312  0.22002  Biso   1.000  O
  O24      1.0000 0.44320  0.70162  0.22280  Biso   1.000  O
  N9       1.0000 0.11150  0.59410  0.07410  Biso   1.000  N
  N10      1.0000 0.33130  0.62010  0.16180  Biso   1.000  N
  N11      1.0000 0.37440  0.71450  0.07200  Biso   1.000  N
  N12      1.0000 0.39000  0.79930  0.00900  Biso   1.000  N
  C63      1.0000 0.90020  0.50540  0.08900  Biso   1.000  C
  C64      1.0000 0.84370  0.50910  0.13880  Biso   1.000  C
  C65      1.0000 0.86360  0.53760  0.19510  Biso   1.000  C
  C66      1.0000 0.81010  0.54140  0.24110  Biso   1.000  C
  C67      1.0000 0.73890  0.51670  0.23410  Biso   1.000  C
  C68      1.0000 0.72180  0.48730  0.17890  Biso   1.000  C
  C69      1.0000 0.77350  0.48340  0.13210  Biso   1.000  C
  C70      1.0000 0.92400  0.57580  0.93430  Biso   1.000  C
  C71      1.0000 0.88070  0.61770  0.89730  Biso   1.000  C
  C72      1.0000 0.88620  0.67050  0.91370  Biso   1.000  C
  C73      1.0000 0.84230  0.71040  0.88250  Biso   1.000  C
  C74      1.0000 0.79340  0.69540  0.82940  Biso   1.000  C
  C75      1.0000 0.78850  0.63970  0.81190  Biso   1.000  C
  C76      1.0000 0.83410  0.60230  0.84510  Biso   1.000  C
  C77      1.0000 0.57420  0.61830  0.14400  Biso   1.000  C
  C78      1.0000 0.61590  0.61990  0.08290  Biso   1.000  C
  C79      1.0000 0.69540  0.61360  0.08610  Biso   1.000  C
  C80      1.0000 0.73120  0.61550  0.03080  Biso   1.000  C
  C81      1.0000 0.69460  0.62510  0.97220  Biso   1.000  C
  C82      1.0000 0.61440  0.63150  0.97000  Biso   1.000  C
  C83      1.0000 0.57630  0.62820  0.02520  Biso   1.000  C
  C84      1.0000 0.44130  0.42000  0.21730  Biso   1.000  C
  C85      1.0000 0.44130  0.36300  0.21820  Biso   1.000  C
  C86      1.0000 0.44400  0.81540  0.21680  Biso   1.000  C
  C87      1.0000 0.44340  0.87200  0.21510  Biso   1.000  C
  C88      1.0000 0.16390  0.62180  0.07490  Biso   1.000  C
  C89      1.0000 0.23170  0.65340  0.07780  Biso   1.000  C
  C90      1.0000 0.28860  0.63500  0.12320  Biso   1.000  C
  C91      1.0000 0.24040  0.69970  0.03930  Biso   1.000  C
  C92      1.0000 0.31060  0.72920  0.03930  Biso   1.000  C
  C93      1.0000 0.32000  0.77750  0.00190  Biso   1.000  C
  H25      1.0000 0.91270  0.55380  0.20150  Biso   1.000  H
  H26      1.0000 0.70290  0.51970  0.26620  Biso   1.000  H
  H27      1.0000 0.76080  0.46280  0.09480  Biso   1.000  H
  H28      1.0000 0.92120  0.68090  0.94760  Biso   1.000  H
  H29      1.0000 0.76450  0.72230  0.80610  Biso   1.000  H
  H30      1.0000 0.83350  0.56520  0.83190  Biso   1.000  H
  H31      1.0000 0.72310  0.60820  0.12560  Biso   1.000  H
  H32      1.0000 0.72240  0.62740  0.93470  Biso   1.000  H
  H33      1.0000 0.58700  0.63800  0.93060  Biso   1.000  H
  H34      1.0000 0.52210  0.63170  0.02380  Biso   1.000  H
  H35      1.0000 0.40160  0.43950  0.19460  Biso   1.000  H
  H36      1.0000 0.40430  0.79600  0.19410  Biso   1.000  H
  Ru7      1.0000 0.53562  0.03267  0.02598  Biso   1.000  Ru
  Ru8      1.0000 0.94294  0.11762  0.22121  Biso   1.000  Ru
  S4       1.0000 0.93808  0.25916  0.05759  Biso   1.000  S
  F22      1.0000 0.32740  0.06930  0.29070  Biso   1.000  F
  F23      1.0000 0.15490  0.96730  0.17260  Biso   1.000  F
  F24      1.0000 0.34860  0.25790  0.89030  Biso   1.000  F
  F25      1.0000 0.25080  0.13580  0.76710  Biso   1.000  F
  F26      1.0000 0.30870  0.10770  0.03170  Biso   1.000  F
  F27      1.0000 0.89420  0.83370  0.18680  Biso   1.000  F
  F28      1.0000 0.91010  0.40330  0.19500  Biso   1.000  F
  O25      1.0000 0.45900  0.03618  0.09390  Biso   1.000  O
  O26      1.0000 0.38790  0.97204  0.04340  Biso   1.000  O
  O27      1.0000 0.47580  0.09115  0.97510  Biso   1.000  O
  O28      1.0000 0.40640  0.02644  0.92350  Biso   1.000  O
  O29      1.0000 0.11400  0.11626  0.19580  Biso   1.000  O
  O30      1.0000 0.00200  0.11912  0.13940  Biso   1.000  O
  O31      1.0000 0.94460  0.03312  0.22002  Biso   1.000  O
  O32      1.0000 0.94320  0.20162  0.22280  Biso   1.000  O
  N13      1.0000 0.61150  0.09410  0.07410  Biso   1.000  N
  N14      1.0000 0.83130  0.12010  0.16180  Biso   1.000  N
  N15      1.0000 0.87440  0.21450  0.07200  Biso   1.000  N
  N16      1.0000 0.89000  0.29930  0.00900  Biso   1.000  N
  C94      1.0000 0.40020  0.00540  0.08900  Biso   1.000  C
  C95      1.0000 0.34370  0.00910  0.13880  Biso   1.000  C
  C96      1.0000 0.36360  0.03760  0.19510  Biso   1.000  C
  C97      1.0000 0.31010  0.04140  0.24110  Biso   1.000  C
  C98      1.0000 0.23890  0.01670  0.23410  Biso   1.000  C
  C99      1.0000 0.22180  0.98730  0.17890  Biso   1.000  C
  C100     1.0000 0.27350  0.98340  0.13210  Biso   1.000  C
  C101     1.0000 0.42400  0.07580  0.93430  Biso   1.000  C
  C102     1.0000 0.38070  0.11770  0.89730  Biso   1.000  C
  C103     1.0000 0.38620  0.17050  0.91370  Biso   1.000  C
  C104     1.0000 0.34230  0.21040  0.88250  Biso   1.000  C
  C105     1.0000 0.29340  0.19540  0.82940  Biso   1.000  C
  C106     1.0000 0.28850  0.13970  0.81190  Biso   1.000  C
  C107     1.0000 0.33410  0.10230  0.84510  Biso   1.000  C
  C108     1.0000 0.07420  0.11830  0.14400  Biso   1.000  C
  C109     1.0000 0.11590  0.11990  0.08290  Biso   1.000  C
  C110     1.0000 0.19540  0.11360  0.08610  Biso   1.000  C
  C111     1.0000 0.23120  0.11550  0.03080  Biso   1.000  C
  C112     1.0000 0.19460  0.12510  0.97220  Biso   1.000  C
  C113     1.0000 0.11440  0.13150  0.97000  Biso   1.000  C
  C114     1.0000 0.07630  0.12820  0.02520  Biso   1.000  C
  C115     1.0000 0.94130  0.92000  0.21730  Biso   1.000  C
  C116     1.0000 0.94130  0.86300  0.21820  Biso   1.000  C
  C117     1.0000 0.94400  0.31540  0.21680  Biso   1.000  C
  C118     1.0000 0.94340  0.37200  0.21510  Biso   1.000  C
  C119     1.0000 0.66390  0.12180  0.07490  Biso   1.000  C
  C120     1.0000 0.73170  0.15340  0.07780  Biso   1.000  C
  C121     1.0000 0.78860  0.13500  0.12320  Biso   1.000  C
  C122     1.0000 0.74040  0.19970  0.03930  Biso   1.000  C
  C123     1.0000 0.81060  0.22920  0.03930  Biso   1.000  C
  C124     1.0000 0.82000  0.27750  0.00190  Biso   1.000  C
  H37      1.0000 0.41270  0.05380  0.20150  Biso   1.000  H
  H38      1.0000 0.20290  0.01970  0.26620  Biso   1.000  H
  H39      1.0000 0.26080  0.96280  0.09480  Biso   1.000  H
  H40      1.0000 0.42120  0.18090  0.94760  Biso   1.000  H
  H41      1.0000 0.26450  0.22230  0.80610  Biso   1.000  H
  H42      1.0000 0.33350  0.06520  0.83190  Biso   1.000  H
  H43      1.0000 0.22310  0.10820  0.12560  Biso   1.000  H
  H44      1.0000 0.22240  0.12740  0.93470  Biso   1.000  H
  H45      1.0000 0.08700  0.13800  0.93060  Biso   1.000  H
  H46      1.0000 0.02210  0.13170  0.02380  Biso   1.000  H
  H47      1.0000 0.90160  0.93950  0.19460  Biso   1.000  H
  H48      1.0000 0.90430  0.29600  0.19410  Biso   1.000  H
  Ru9      1.0000 0.03562  0.46733  0.52598  Biso   1.000  Ru
  Ru10     1.0000 0.44294  0.38238  0.72121  Biso   1.000  Ru
  S5       1.0000 0.43808  0.24084  0.55759  Biso   1.000  S
  F29      1.0000 0.82740  0.43070  0.79070  Biso   1.000  F
  F30      1.0000 0.65490  0.53270  0.67260  Biso   1.000  F
  F31      1.0000 0.84860  0.24210  0.39030  Biso   1.000  F
  F32      1.0000 0.75080  0.36420  0.26710  Biso   1.000  F
  F33      1.0000 0.80870  0.39230  0.53170  Biso   1.000  F
  F34      1.0000 0.39420  0.66630  0.68680  Biso   1.000  F
  F35      1.0000 0.41010  0.09670  0.69500  Biso   1.000  F
  O33      1.0000 0.95900  0.46382  0.59390  Biso   1.000  O
  O34      1.0000 0.88790  0.52796  0.54340  Biso   1.000  O
  O35      1.0000 0.97580  0.40885  0.47510  Biso   1.000  O
  O36      1.0000 0.90640  0.47356  0.42350  Biso   1.000  O
  O37      1.0000 0.61400  0.38374  0.69580  Biso   1.000  O
  O38      1.0000 0.50200  0.38088  0.63940  Biso   1.000  O
  O39      1.0000 0.44460  0.46688  0.72002  Biso   1.000  O
  O40      1.0000 0.44320  0.29838  0.72280  Biso   1.000  O
  N17      1.0000 0.11150  0.40590  0.57410  Biso   1.000  N
  N18      1.0000 0.33130  0.37990  0.66180  Biso   1.000  N
  N19      1.0000 0.37440  0.28550  0.57200  Biso   1.000  N
  N20      1.0000 0.39000  0.20070  0.50900  Biso   1.000  N
  C125     1.0000 0.90020  0.49460  0.58900  Biso   1.000  C
  C126     1.0000 0.84370  0.49090  0.63880  Biso   1.000  C
  C127     1.0000 0.86360  0.46240  0.69510  Biso   1.000  C
  C128     1.0000 0.81010  0.45860  0.74110  Biso   1.000  C
  C129     1.0000 0.73890  0.48330  0.73410  Biso   1.000  C
  C130     1.0000 0.72180  0.51270  0.67890  Biso   1.000  C
  C131     1.0000 0.77350  0.51660  0.63210  Biso   1.000  C
  C132     1.0000 0.92400  0.42420  0.43430  Biso   1.000  C
  C133     1.0000 0.88070  0.38230  0.39730  Biso   1.000  C
  C134     1.0000 0.88620  0.32950  0.41370  Biso   1.000  C
  C135     1.0000 0.84230  0.28960  0.38250  Biso   1.000  C
  C136     1.0000 0.79340  0.30460  0.32940  Biso   1.000  C
  C137     1.0000 0.78850  0.36030  0.31190  Biso   1.000  C
  C138     1.0000 0.83410  0.39770  0.34510  Biso   1.000  C
  C139     1.0000 0.57420  0.38170  0.64400  Biso   1.000  C
  C140     1.0000 0.61590  0.38010  0.58290  Biso   1.000  C
  C141     1.0000 0.69540  0.38640  0.58610  Biso   1.000  C
  C142     1.0000 0.73120  0.38450  0.53080  Biso   1.000  C
  C143     1.0000 0.69460  0.37490  0.47220  Biso   1.000  C
  C144     1.0000 0.61440  0.36850  0.47000  Biso   1.000  C
  C145     1.0000 0.57630  0.37180  0.52520  Biso   1.000  C
  C146     1.0000 0.44130  0.58000  0.71730  Biso   1.000  C
  C147     1.0000 0.44130  0.63700  0.71820  Biso   1.000  C
  C148     1.0000 0.44400  0.18460  0.71680  Biso   1.000  C
  C149     1.0000 0.44340  0.12800  0.71510  Biso   1.000  C
  C150     1.0000 0.16390  0.37820  0.57490  Biso   1.000  C
  C151     1.0000 0.23170  0.34660  0.57780  Biso   1.000  C
  C152     1.0000 0.28860  0.36500  0.62320  Biso   1.000  C
  C153     1.0000 0.24040  0.30030  0.53930  Biso   1.000  C
  C154     1.0000 0.31060  0.27080  0.53930  Biso   1.000  C
  C155     1.0000 0.32000  0.22250  0.50190  Biso   1.000  C
  H49      1.0000 0.91270  0.44620  0.70150  Biso   1.000  H
  H50      1.0000 0.70290  0.48030  0.76620  Biso   1.000  H
  H51      1.0000 0.76080  0.53720  0.59480  Biso   1.000  H
  H52      1.0000 0.92120  0.31910  0.44760  Biso   1.000  H
  H53      1.0000 0.76450  0.27770  0.30610  Biso   1.000  H
  H54      1.0000 0.83350  0.43480  0.33190  Biso   1.000  H
  H55      1.0000 0.72310  0.39180  0.62560  Biso   1.000  H
  H56      1.0000 0.72240  0.37260  0.43470  Biso   1.000  H
  H57      1.0000 0.58700  0.36200  0.43060  Biso   1.000  H
  H58      1.0000 0.52210  0.36830  0.52380  Biso   1.000  H
  H59      1.0000 0.40160  0.56050  0.69460  Biso   1.000  H
  H60      1.0000 0.40430  0.20400  0.69410  Biso   1.000  H
  Ru11     1.0000 0.53562  0.96733  0.52598  Biso   1.000  Ru
  Ru12     1.0000 0.94294  0.88238  0.72121  Biso   1.000  Ru
  S6       1.0000 0.93808  0.74084  0.55759  Biso   1.000  S
  F36      1.0000 0.32740  0.93070  0.79070  Biso   1.000  F
  F37      1.0000 0.15490  0.03270  0.67260  Biso   1.000  F
  F38      1.0000 0.34860  0.74210  0.39030  Biso   1.000  F
  F39      1.0000 0.25080  0.86420  0.26710  Biso   1.000  F
  F40      1.0000 0.30870  0.89230  0.53170  Biso   1.000  F
  F41      1.0000 0.89420  0.16630  0.68680  Biso   1.000  F
  F42      1.0000 0.91010  0.59670  0.69500  Biso   1.000  F
  O41      1.0000 0.45900  0.96382  0.59390  Biso   1.000  O
  O42      1.0000 0.38790  0.02796  0.54340  Biso   1.000  O
  O43      1.0000 0.47580  0.90885  0.47510  Biso   1.000  O
  O44      1.0000 0.40640  0.97356  0.42350  Biso   1.000  O
  O45      1.0000 0.11400  0.88374  0.69580  Biso   1.000  O
  O46      1.0000 0.00200  0.88088  0.63940  Biso   1.000  O
  O47      1.0000 0.94460  0.96688  0.72002  Biso   1.000  O
  O48      1.0000 0.94320  0.79838  0.72280  Biso   1.000  O
  N21      1.0000 0.61150  0.90590  0.57410  Biso   1.000  N
  N22      1.0000 0.83130  0.87990  0.66180  Biso   1.000  N
  N23      1.0000 0.87440  0.78550  0.57200  Biso   1.000  N
  N24      1.0000 0.89000  0.70070  0.50900  Biso   1.000  N
  C156     1.0000 0.40020  0.99460  0.58900  Biso   1.000  C
  C157     1.0000 0.34370  0.99090  0.63880  Biso   1.000  C
  C158     1.0000 0.36360  0.96240  0.69510  Biso   1.000  C
  C159     1.0000 0.31010  0.95860  0.74110  Biso   1.000  C
  C160     1.0000 0.23890  0.98330  0.73410  Biso   1.000  C
  C161     1.0000 0.22180  0.01270  0.67890  Biso   1.000  C
  C162     1.0000 0.27350  0.01660  0.63210  Biso   1.000  C
  C163     1.0000 0.42400  0.92420  0.43430  Biso   1.000  C
  C164     1.0000 0.38070  0.88230  0.39730  Biso   1.000  C
  C165     1.0000 0.38620  0.82950  0.41370  Biso   1.000  C
  C166     1.0000 0.34230  0.78960  0.38250  Biso   1.000  C
  C167     1.0000 0.29340  0.80460  0.32940  Biso   1.000  C
  C168     1.0000 0.28850  0.86030  0.31190  Biso   1.000  C
  C169     1.0000 0.33410  0.89770  0.34510  Biso   1.000  C
  C170     1.0000 0.07420  0.88170  0.64400  Biso   1.000  C
  C171     1.0000 0.11590  0.88010  0.58290  Biso   1.000  C
  C172     1.0000 0.19540  0.88640  0.58610  Biso   1.000  C
  C173     1.0000 0.23120  0.88450  0.53080  Biso   1.000  C
  C174     1.0000 0.19460  0.87490  0.47220  Biso   1.000  C
  C175     1.0000 0.11440  0.86850  0.47000  Biso   1.000  C
  C176     1.0000 0.07630  0.87180  0.52520  Biso   1.000  C
  C177     1.0000 0.94130  0.08000  0.71730  Biso   1.000  C
  C178     1.0000 0.94130  0.13700  0.71820  Biso   1.000  C
  C179     1.0000 0.94400  0.68460  0.71680  Biso   1.000  C
  C180     1.0000 0.94340  0.62800  0.71510  Biso   1.000  C
  C181     1.0000 0.66390  0.87820  0.57490  Biso   1.000  C
  C182     1.0000 0.73170  0.84660  0.57780  Biso   1.000  C
  C183     1.0000 0.78860  0.86500  0.62320  Biso   1.000  C
  C184     1.0000 0.74040  0.80030  0.53930  Biso   1.000  C
  C185     1.0000 0.81060  0.77080  0.53930  Biso   1.000  C
  C186     1.0000 0.82000  0.72250  0.50190  Biso   1.000  C
  H61      1.0000 0.41270  0.94620  0.70150  Biso   1.000  H
  H62      1.0000 0.20290  0.98030  0.76620  Biso   1.000  H
  H63      1.0000 0.26080  0.03720  0.59480  Biso   1.000  H
  H64      1.0000 0.42120  0.81910  0.44760  Biso   1.000  H
  H65      1.0000 0.26450  0.77770  0.30610  Biso   1.000  H
  H66      1.0000 0.33350  0.93480  0.33190  Biso   1.000  H
  H67      1.0000 0.22310  0.89180  0.62560  Biso   1.000  H
  H68      1.0000 0.22240  0.87260  0.43470  Biso   1.000  H
  H69      1.0000 0.08700  0.86200  0.43060  Biso   1.000  H
  H70      1.0000 0.02210  0.86830  0.52380  Biso   1.000  H
  H71      1.0000 0.90160  0.06050  0.69460  Biso   1.000  H
  H72      1.0000 0.90430  0.70400  0.69410  Biso   1.000  H
  Ru13     1.0000 0.96438  0.46733  0.97402  Biso   1.000  Ru
  Ru14     1.0000 0.55706  0.38238  0.77879  Biso   1.000  Ru
  S7       1.0000 0.56192  0.24084  0.94241  Biso   1.000  S
  F43      1.0000 0.17260  0.43070  0.70930  Biso   1.000  F
  F44      1.0000 0.34510  0.53270  0.82740  Biso   1.000  F
  F45      1.0000 0.15140  0.24210  0.10970  Biso   1.000  F
  F46      1.0000 0.24920  0.36420  0.23290  Biso   1.000  F
  F47      1.0000 0.19130  0.39230  0.96830  Biso   1.000  F
  F48      1.0000 0.60580  0.66630  0.81320  Biso   1.000  F
  F49      1.0000 0.58990  0.09670  0.80500  Biso   1.000  F
  O49      1.0000 0.04100  0.46382  0.90610  Biso   1.000  O
  O50      1.0000 0.11210  0.52796  0.95660  Biso   1.000  O
  O51      1.0000 0.02420  0.40885  0.02490  Biso   1.000  O
  O52      1.0000 0.09360  0.47356  0.07650  Biso   1.000  O
  O53      1.0000 0.38600  0.38374  0.80420  Biso   1.000  O
  O54      1.0000 0.49800  0.38088  0.86060  Biso   1.000  O
  O55      1.0000 0.55540  0.46688  0.77998  Biso   1.000  O
  O56      1.0000 0.55680  0.29838  0.77720  Biso   1.000  O
  N25      1.0000 0.88850  0.40590  0.92590  Biso   1.000  N
  N26      1.0000 0.66870  0.37990  0.83820  Biso   1.000  N
  N27      1.0000 0.62560  0.28550  0.92800  Biso   1.000  N
  N28      1.0000 0.61000  0.20070  0.99100  Biso   1.000  N
  C187     1.0000 0.09980  0.49460  0.91100  Biso   1.000  C
  C188     1.0000 0.15630  0.49090  0.86120  Biso   1.000  C
  C189     1.0000 0.13640  0.46240  0.80490  Biso   1.000  C
  C190     1.0000 0.18990  0.45860  0.75890  Biso   1.000  C
  C191     1.0000 0.26110  0.48330  0.76590  Biso   1.000  C
  C192     1.0000 0.27820  0.51270  0.82110  Biso   1.000  C
  C193     1.0000 0.22650  0.51660  0.86790  Biso   1.000  C
  C194     1.0000 0.07600  0.42420  0.06570  Biso   1.000  C
  C195     1.0000 0.11930  0.38230  0.10270  Biso   1.000  C
  C196     1.0000 0.11380  0.32950  0.08630  Biso   1.000  C
  C197     1.0000 0.15770  0.28960  0.11750  Biso   1.000  C
  C198     1.0000 0.20660  0.30460  0.17060  Biso   1.000  C
  C199     1.0000 0.21150  0.36030  0.18810  Biso   1.000  C
  C200     1.0000 0.16590  0.39770  0.15490  Biso   1.000  C
  C201     1.0000 0.42580  0.38170  0.85600  Biso   1.000  C
  C202     1.0000 0.38410  0.38010  0.91710  Biso   1.000  C
  C203     1.0000 0.30460  0.38640  0.91390  Biso   1.000  C
  C204     1.0000 0.26880  0.38450  0.96920  Biso   1.000  C
  C205     1.0000 0.30540  0.37490  0.02780  Biso   1.000  C
  C206     1.0000 0.38560  0.36850  0.03000  Biso   1.000  C
  C207     1.0000 0.42370  0.37180  0.97480  Biso   1.000  C
  C208     1.0000 0.55870  0.58000  0.78270  Biso   1.000  C
  C209     1.0000 0.55870  0.63700  0.78180  Biso   1.000  C
  C210     1.0000 0.55600  0.18460  0.78320  Biso   1.000  C
  C211     1.0000 0.55660  0.12800  0.78490  Biso   1.000  C
  C212     1.0000 0.83610  0.37820  0.92510  Biso   1.000  C
  C213     1.0000 0.76830  0.34660  0.92220  Biso   1.000  C
  C214     1.0000 0.71140  0.36500  0.87680  Biso   1.000  C
  C215     1.0000 0.75960  0.30030  0.96070  Biso   1.000  C
  C216     1.0000 0.68940  0.27080  0.96070  Biso   1.000  C
  C217     1.0000 0.68000  0.22250  0.99810  Biso   1.000  C
  H73      1.0000 0.08730  0.44620  0.79850  Biso   1.000  H
  H74      1.0000 0.29710  0.48030  0.73380  Biso   1.000  H
  H75      1.0000 0.23920  0.53720  0.90520  Biso   1.000  H
  H76      1.0000 0.07880  0.31910  0.05240  Biso   1.000  H
  H77      1.0000 0.23550  0.27770  0.19390  Biso   1.000  H
  H78      1.0000 0.16650  0.43480  0.16810  Biso   1.000  H
  H79      1.0000 0.27690  0.39180  0.87440  Biso   1.000  H
  H80      1.0000 0.27760  0.37260  0.06530  Biso   1.000  H
  H81      1.0000 0.41300  0.36200  0.06940  Biso   1.000  H
  H82      1.0000 0.47790  0.36830  0.97620  Biso   1.000  H
  H83      1.0000 0.59840  0.56050  0.80540  Biso   1.000  H
  H84      1.0000 0.59570  0.20400  0.80590  Biso   1.000  H
  Ru15     1.0000 0.46438  0.96733  0.97402  Biso   1.000  Ru
  Ru16     1.0000 0.05706  0.88238  0.77879  Biso   1.000  Ru
  S8       1.0000 0.06192  0.74084  0.94241  Biso   1.000  S
  F50      1.0000 0.67260  0.93070  0.70930  Biso   1.000  F
  F51      1.0000 0.84510  0.03270  0.82740  Biso   1.000  F
  F52      1.0000 0.65140  0.74210  0.10970  Biso   1.000  F
  F53      1.0000 0.74920  0.86420  0.23290  Biso   1.000  F
  F54      1.0000 0.69130  0.89230  0.96830  Biso   1.000  F
  F55      1.0000 0.10580  0.16630  0.81320  Biso   1.000  F
  F56      1.0000 0.08990  0.59670  0.80500  Biso   1.000  F
  O57      1.0000 0.54100  0.96382  0.90610  Biso   1.000  O
  O58      1.0000 0.61210  0.02796  0.95660  Biso   1.000  O
  O59      1.0000 0.52420  0.90885  0.02490  Biso   1.000  O
  O60      1.0000 0.59360  0.97356  0.07650  Biso   1.000  O
  O61      1.0000 0.88600  0.88374  0.80420  Biso   1.000  O
  O62      1.0000 0.99800  0.88088  0.86060  Biso   1.000  O
  O63      1.0000 0.05540  0.96688  0.77998  Biso   1.000  O
  O64      1.0000 0.05680  0.79838  0.77720  Biso   1.000  O
  N29      1.0000 0.38850  0.90590  0.92590  Biso   1.000  N
  N30      1.0000 0.16870  0.87990  0.83820  Biso   1.000  N
  N31      1.0000 0.12560  0.78550  0.92800  Biso   1.000  N
  N32      1.0000 0.11000  0.70070  0.99100  Biso   1.000  N
  C218     1.0000 0.59980  0.99460  0.91100  Biso   1.000  C
  C219     1.0000 0.65630  0.99090  0.86120  Biso   1.000  C
  C220     1.0000 0.63640  0.96240  0.80490  Biso   1.000  C
  C221     1.0000 0.68990  0.95860  0.75890  Biso   1.000  C
  C222     1.0000 0.76110  0.98330  0.76590  Biso   1.000  C
  C223     1.0000 0.77820  0.01270  0.82110  Biso   1.000  C
  C224     1.0000 0.72650  0.01660  0.86790  Biso   1.000  C
  C225     1.0000 0.57600  0.92420  0.06570  Biso   1.000  C
  C226     1.0000 0.61930  0.88230  0.10270  Biso   1.000  C
  C227     1.0000 0.61380  0.82950  0.08630  Biso   1.000  C
  C228     1.0000 0.65770  0.78960  0.11750  Biso   1.000  C
  C229     1.0000 0.70660  0.80460  0.17060  Biso   1.000  C
  C230     1.0000 0.71150  0.86030  0.18810  Biso   1.000  C
  C231     1.0000 0.66590  0.89770  0.15490  Biso   1.000  C
  C232     1.0000 0.92580  0.88170  0.85600  Biso   1.000  C
  C233     1.0000 0.88410  0.88010  0.91710  Biso   1.000  C
  C234     1.0000 0.80460  0.88640  0.91390  Biso   1.000  C
  C235     1.0000 0.76880  0.88450  0.96920  Biso   1.000  C
  C236     1.0000 0.80540  0.87490  0.02780  Biso   1.000  C
  C237     1.0000 0.88560  0.86850  0.03000  Biso   1.000  C
  C238     1.0000 0.92370  0.87180  0.97480  Biso   1.000  C
  C239     1.0000 0.05870  0.08000  0.78270  Biso   1.000  C
  C240     1.0000 0.05870  0.13700  0.78180  Biso   1.000  C
  C241     1.0000 0.05600  0.68460  0.78320  Biso   1.000  C
  C242     1.0000 0.05660  0.62800  0.78490  Biso   1.000  C
  C243     1.0000 0.33610  0.87820  0.92510  Biso   1.000  C
  C244     1.0000 0.26830  0.84660  0.92220  Biso   1.000  C
  C245     1.0000 0.21140  0.86500  0.87680  Biso   1.000  C
  C246     1.0000 0.25960  0.80030  0.96070  Biso   1.000  C
  C247     1.0000 0.18940  0.77080  0.96070  Biso   1.000  C
  C248     1.0000 0.18000  0.72250  0.99810  Biso   1.000  C
  H85      1.0000 0.58730  0.94620  0.79850  Biso   1.000  H
  H86      1.0000 0.79710  0.98030  0.73380  Biso   1.000  H
  H87      1.0000 0.73920  0.03720  0.90520  Biso   1.000  H
  H88      1.0000 0.57880  0.81910  0.05240  Biso   1.000  H
  H89      1.0000 0.73550  0.77770  0.19390  Biso   1.000  H
  H90      1.0000 0.66650  0.93480  0.16810  Biso   1.000  H
  H91      1.0000 0.77690  0.89180  0.87440  Biso   1.000  H
  H92      1.0000 0.77760  0.87260  0.06530  Biso   1.000  H
  H93      1.0000 0.91300  0.86200  0.06940  Biso   1.000  H
  H94      1.0000 0.97790  0.86830  0.97620  Biso   1.000  H
  H95      1.0000 0.09840  0.06050  0.80540  Biso   1.000  H
  H96      1.0000 0.09570  0.70400  0.80590  Biso   1.000  H
  C249     1.0000 0.50000  0.50880  0.25000  Biso   1.000  C
  C250     1.0000 0.50000  0.44760  0.25000  Biso   1.000  C
  C251     1.0000 0.50000  0.33340  0.25000  Biso   1.000  C
  C252     1.0000 0.50000  0.72470  0.25000  Biso   1.000  C
  C253     1.0000 0.50000  0.78690  0.25000  Biso   1.000  C
  C254     1.0000 0.50000  0.90050  0.25000  Biso   1.000  C
  H97      1.0000 0.50000  0.29470  0.25000  Biso   1.000  H
  H98      1.0000 0.50000  0.93920  0.25000  Biso   1.000  H
  C255     1.0000 0.00000  0.00880  0.25000  Biso   1.000  C
  C256     1.0000 0.00000  0.94760  0.25000  Biso   1.000  C
  C257     1.0000 0.00000  0.83340  0.25000  Biso   1.000  C
  C258     1.0000 0.00000  0.22470  0.25000  Biso   1.000  C
  C259     1.0000 0.00000  0.28690  0.25000  Biso   1.000  C
  C260     1.0000 0.00000  0.40050  0.25000  Biso   1.000  C
  H99      1.0000 0.00000  0.79470  0.25000  Biso   1.000  H
  H100     1.0000 0.00000  0.43920  0.25000  Biso   1.000  H
  C261     1.0000 0.50000  0.49120  0.75000  Biso   1.000  C
  C262     1.0000 0.50000  0.55240  0.75000  Biso   1.000  C
  C263     1.0000 0.50000  0.66660  0.75000  Biso   1.000  C
  C264     1.0000 0.50000  0.27530  0.75000  Biso   1.000  C
  C265     1.0000 0.50000  0.21310  0.75000  Biso   1.000  C
  C266     1.0000 0.50000  0.09950  0.75000  Biso   1.000  C
  H101     1.0000 0.50000  0.70530  0.75000  Biso   1.000  H
  H102     1.0000 0.50000  0.06080  0.75000  Biso   1.000  H
  C267     1.0000 0.00000  0.99120  0.75000  Biso   1.000  C
  C268     1.0000 0.00000  0.05240  0.75000  Biso   1.000  C
  C269     1.0000 0.00000  0.16660  0.75000  Biso   1.000  C
  C270     1.0000 0.00000  0.77530  0.75000  Biso   1.000  C
  C271     1.0000 0.00000  0.71310  0.75000  Biso   1.000  C
  C272     1.0000 0.00000  0.59950  0.75000  Biso   1.000  C
  H103     1.0000 0.00000  0.20530  0.75000  Biso   1.000  H
  H104     1.0000 0.00000  0.56080  0.75000  Biso   1.000  H
