data_image0
_cell_length_a       18.8991
_cell_length_b       15.5229
_cell_length_c       9.0702
_cell_angle_alpha    90
_cell_angle_beta     90
_cell_angle_gamma    90

_symmetry_space_group_name_H-M    "P 1"
_symmetry_int_tables_number       1

loop_
  _symmetry_equiv_pos_as_xyz
  'x, y, z'

loop_
  _atom_site_label
  _atom_site_occupancy
  _atom_site_fract_x
  _atom_site_fract_y
  _atom_site_fract_z
  _atom_site_thermal_displace_type
  _atom_site_B_iso_or_equiv
  _atom_site_type_symbol
  C1       1.0000 0.01380  0.15560  0.35660  Biso   1.000  C
  C2       1.0000 0.00000  0.15370  0.18710  Biso   1.000  C
  C3       1.0000 0.84330  0.01310  0.57770  Biso   1.000  C
  C4       1.0000 0.84530  0.95860  0.43360  Biso   1.000  C
  C5       1.0000 0.84590  0.34800  0.14500  Biso   1.000  C
  C6       1.0000 0.88410  0.42040  0.06730  Biso   1.000  C
  C7       1.0000 0.84500  0.48570  0.00060  Biso   1.000  C
  H1       1.0000 0.79580  0.48330  0.00310  Biso   1.000  H
  C8       1.0000 0.87800  0.55420  0.93040  Biso   1.000  C
  C9       1.0000 0.95170  0.55740  0.93180  Biso   1.000  C
  H2       1.0000 0.97440  0.60350  0.88650  Biso   1.000  H
  C10      1.0000 0.99300  0.49330  0.99970  Biso   1.000  C
  C11      1.0000 0.95720  0.42530  0.06690  Biso   1.000  C
  H3       1.0000 0.98320  0.38200  0.11270  Biso   1.000  H
  C12      1.0000 0.83660  0.62650  0.86350  Biso   1.000  C
  C13      1.0000 0.07120  0.49990  0.00350  Biso   1.000  C
  C14      1.0000 0.10490  0.57960  0.98850  Biso   1.000  C
  H4       1.0000 0.07790  0.62910  0.97590  Biso   1.000  H
  C15      1.0000 0.17890  0.58580  0.99210  Biso   1.000  C
  C16      1.0000 0.21930  0.51170  0.01010  Biso   1.000  C
  H5       1.0000 0.26840  0.51530  0.00940  Biso   1.000  H
  C17      1.0000 0.18740  0.43390  0.02870  Biso   1.000  C
  C18      1.0000 0.11360  0.42760  0.02220  Biso   1.000  C
  H6       1.0000 0.09250  0.37380  0.03050  Biso   1.000  H
  C19      1.0000 0.23070  0.35400  0.05700  Biso   1.000  C
  C20      1.0000 0.21410  0.66940  0.96200  Biso   1.000  C
  Er1      1.0000 0.16550  0.17774  0.20479  Biso   1.000  Er
  Er2      1.0000 0.84693  0.15256  0.31714  Biso   1.000  Er
  O1       1.0000 0.07700  0.14970  0.39530  Biso   1.000  O
  O2       1.0000 0.05000  0.17780  0.10690  Biso   1.000  O
  O3       1.0000 0.94050  0.12720  0.15020  Biso   1.000  O
  O4       1.0000 0.95960  0.16240  0.43460  Biso   1.000  O
  O5       1.0000 0.84070  0.09260  0.56280  Biso   1.000  O
  O6       1.0000 0.84358  0.97220  0.69870  Biso   1.000  O
  O7       1.0000 0.85500  0.00070  0.31770  Biso   1.000  O
  O8       1.0000 0.83880  0.87990  0.44720  Biso   1.000  O
  O9       1.0000 0.88170  0.28590  0.19490  Biso   1.000  O
  O10      1.0000 0.78010  0.35640  0.15740  Biso   1.000  O
  O11      1.0000 0.77120  0.62050  0.85960  Biso   1.000  O
  O12      1.0000 0.87170  0.69080  0.81610  Biso   1.000  O
  O13      1.0000 0.17680  0.73650  0.97210  Biso   1.000  O
  O14      1.0000 0.27900  0.66970  0.93110  Biso   1.000  O
  O15      1.0000 0.29430  0.36420  0.08820  Biso   1.000  O
  O16      1.0000 0.19820  0.28400  0.05180  Biso   1.000  O
  C21      1.0000 0.98620  0.84440  0.85660  Biso   1.000  C
  C22      1.0000 0.00000  0.84630  0.68710  Biso   1.000  C
  C23      1.0000 0.15670  0.98690  0.07770  Biso   1.000  C
  C24      1.0000 0.15470  0.04140  0.93360  Biso   1.000  C
  C25      1.0000 0.15410  0.65200  0.64500  Biso   1.000  C
  C26      1.0000 0.11590  0.57960  0.56730  Biso   1.000  C
  C27      1.0000 0.15500  0.51430  0.50060  Biso   1.000  C
  H7       1.0000 0.20420  0.51670  0.50310  Biso   1.000  H
  C28      1.0000 0.12200  0.44580  0.43040  Biso   1.000  C
  C29      1.0000 0.04830  0.44260  0.43180  Biso   1.000  C
  H8       1.0000 0.02560  0.39650  0.38650  Biso   1.000  H
  C30      1.0000 0.00700  0.50670  0.49970  Biso   1.000  C
  C31      1.0000 0.04280  0.57470  0.56690  Biso   1.000  C
  H9       1.0000 0.01680  0.61800  0.61270  Biso   1.000  H
  C32      1.0000 0.16340  0.37350  0.36350  Biso   1.000  C
  C33      1.0000 0.92880  0.50010  0.50350  Biso   1.000  C
  C34      1.0000 0.89510  0.42040  0.48850  Biso   1.000  C
  H10      1.0000 0.92210  0.37090  0.47590  Biso   1.000  H
  C35      1.0000 0.82110  0.41420  0.49210  Biso   1.000  C
  C36      1.0000 0.78070  0.48830  0.51010  Biso   1.000  C
  H11      1.0000 0.73160  0.48470  0.50940  Biso   1.000  H
  C37      1.0000 0.81260  0.56610  0.52870  Biso   1.000  C
  C38      1.0000 0.88640  0.57240  0.52220  Biso   1.000  C
  H12      1.0000 0.90750  0.62620  0.53050  Biso   1.000  H
  C39      1.0000 0.76930  0.64600  0.55700  Biso   1.000  C
  C40      1.0000 0.78590  0.33060  0.46200  Biso   1.000  C
  Er3      1.0000 0.83450  0.82226  0.70479  Biso   1.000  Er
  Er4      1.0000 0.15307  0.84744  0.81714  Biso   1.000  Er
  O17      1.0000 0.92300  0.85030  0.89530  Biso   1.000  O
  O18      1.0000 0.95000  0.82220  0.60690  Biso   1.000  O
  O19      1.0000 0.05950  0.87280  0.65020  Biso   1.000  O
  O20      1.0000 0.04040  0.83760  0.93460  Biso   1.000  O
  O21      1.0000 0.15930  0.90740  0.06280  Biso   1.000  O
  O22      1.0000 0.15642  0.02780  0.19870  Biso   1.000  O
  O23      1.0000 0.14500  0.99930  0.81770  Biso   1.000  O
  O24      1.0000 0.16120  0.12010  0.94720  Biso   1.000  O
  O25      1.0000 0.11830  0.71410  0.69490  Biso   1.000  O
  O26      1.0000 0.21990  0.64360  0.65740  Biso   1.000  O
  O27      1.0000 0.22880  0.37950  0.35960  Biso   1.000  O
  O28      1.0000 0.12830  0.30920  0.31610  Biso   1.000  O
  O29      1.0000 0.82320  0.26350  0.47210  Biso   1.000  O
  O30      1.0000 0.72100  0.33030  0.43110  Biso   1.000  O
  O31      1.0000 0.70570  0.63580  0.58820  Biso   1.000  O
  O32      1.0000 0.80180  0.71600  0.55180  Biso   1.000  O
  C41      1.0000 0.51380  0.34440  0.35660  Biso   1.000  C
  C42      1.0000 0.50000  0.34630  0.18710  Biso   1.000  C
  C43      1.0000 0.34330  0.48690  0.57770  Biso   1.000  C
  C44      1.0000 0.34530  0.54140  0.43360  Biso   1.000  C
  C45      1.0000 0.34590  0.15200  0.14500  Biso   1.000  C
  C46      1.0000 0.38410  0.07960  0.06730  Biso   1.000  C
  C47      1.0000 0.34500  0.01430  0.00060  Biso   1.000  C
  H13      1.0000 0.29580  0.01670  0.00310  Biso   1.000  H
  C48      1.0000 0.37800  0.94580  0.93040  Biso   1.000  C
  C49      1.0000 0.45170  0.94260  0.93180  Biso   1.000  C
  H14      1.0000 0.47440  0.89650  0.88650  Biso   1.000  H
  C50      1.0000 0.49300  0.00670  0.99970  Biso   1.000  C
  C51      1.0000 0.45720  0.07470  0.06690  Biso   1.000  C
  H15      1.0000 0.48320  0.11800  0.11270  Biso   1.000  H
  C52      1.0000 0.33660  0.87350  0.86350  Biso   1.000  C
  C53      1.0000 0.57120  0.00010  0.00350  Biso   1.000  C
  C54      1.0000 0.60490  0.92040  0.98850  Biso   1.000  C
  H16      1.0000 0.57790  0.87090  0.97590  Biso   1.000  H
  C55      1.0000 0.67890  0.91420  0.99210  Biso   1.000  C
  C56      1.0000 0.71930  0.98830  0.01010  Biso   1.000  C
  H17      1.0000 0.76840  0.98470  0.00940  Biso   1.000  H
  C57      1.0000 0.68740  0.06610  0.02870  Biso   1.000  C
  C58      1.0000 0.61360  0.07240  0.02220  Biso   1.000  C
  H18      1.0000 0.59250  0.12620  0.03050  Biso   1.000  H
  C59      1.0000 0.73070  0.14600  0.05700  Biso   1.000  C
  C60      1.0000 0.71410  0.83060  0.96200  Biso   1.000  C
  Er5      1.0000 0.66550  0.32226  0.20479  Biso   1.000  Er
  Er6      1.0000 0.34693  0.34744  0.31714  Biso   1.000  Er
  O33      1.0000 0.57700  0.35030  0.39530  Biso   1.000  O
  O34      1.0000 0.55000  0.32220  0.10690  Biso   1.000  O
  O35      1.0000 0.44050  0.37280  0.15020  Biso   1.000  O
  O36      1.0000 0.45960  0.33760  0.43460  Biso   1.000  O
  O37      1.0000 0.34070  0.40740  0.56280  Biso   1.000  O
  O38      1.0000 0.34358  0.52780  0.69870  Biso   1.000  O
  O39      1.0000 0.35500  0.49930  0.31770  Biso   1.000  O
  O40      1.0000 0.33880  0.62010  0.44720  Biso   1.000  O
  O41      1.0000 0.38170  0.21410  0.19490  Biso   1.000  O
  O42      1.0000 0.28010  0.14360  0.15740  Biso   1.000  O
  O43      1.0000 0.27120  0.87950  0.85960  Biso   1.000  O
  O44      1.0000 0.37170  0.80920  0.81610  Biso   1.000  O
  O45      1.0000 0.67680  0.76350  0.97210  Biso   1.000  O
  O46      1.0000 0.77900  0.83030  0.93110  Biso   1.000  O
  O47      1.0000 0.79430  0.13580  0.08820  Biso   1.000  O
  O48      1.0000 0.69820  0.21600  0.05180  Biso   1.000  O
  C61      1.0000 0.48620  0.65560  0.85660  Biso   1.000  C
  C62      1.0000 0.50000  0.65370  0.68710  Biso   1.000  C
  C63      1.0000 0.65670  0.51310  0.07770  Biso   1.000  C
  C64      1.0000 0.65470  0.45860  0.93360  Biso   1.000  C
  C65      1.0000 0.65410  0.84800  0.64500  Biso   1.000  C
  C66      1.0000 0.61590  0.92040  0.56730  Biso   1.000  C
  C67      1.0000 0.65500  0.98570  0.50060  Biso   1.000  C
  H19      1.0000 0.70420  0.98330  0.50310  Biso   1.000  H
  C68      1.0000 0.62200  0.05420  0.43040  Biso   1.000  C
  C69      1.0000 0.54830  0.05740  0.43180  Biso   1.000  C
  H20      1.0000 0.52560  0.10350  0.38650  Biso   1.000  H
  C70      1.0000 0.50700  0.99330  0.49970  Biso   1.000  C
  C71      1.0000 0.54280  0.92530  0.56690  Biso   1.000  C
  H21      1.0000 0.51680  0.88200  0.61270  Biso   1.000  H
  C72      1.0000 0.66340  0.12650  0.36350  Biso   1.000  C
  C73      1.0000 0.42880  0.99990  0.50350  Biso   1.000  C
  C74      1.0000 0.39510  0.07960  0.48850  Biso   1.000  C
  H22      1.0000 0.42210  0.12910  0.47590  Biso   1.000  H
  C75      1.0000 0.32110  0.08580  0.49210  Biso   1.000  C
  C76      1.0000 0.28070  0.01170  0.51010  Biso   1.000  C
  H23      1.0000 0.23160  0.01530  0.50940  Biso   1.000  H
  C77      1.0000 0.31260  0.93390  0.52870  Biso   1.000  C
  C78      1.0000 0.38640  0.92760  0.52220  Biso   1.000  C
  H24      1.0000 0.40750  0.87380  0.53050  Biso   1.000  H
  C79      1.0000 0.26930  0.85400  0.55700  Biso   1.000  C
  C80      1.0000 0.28590  0.16940  0.46200  Biso   1.000  C
  Er7      1.0000 0.33450  0.67774  0.70479  Biso   1.000  Er
  Er8      1.0000 0.65307  0.65256  0.81714  Biso   1.000  Er
  O49      1.0000 0.42300  0.64970  0.89530  Biso   1.000  O
  O50      1.0000 0.45000  0.67780  0.60690  Biso   1.000  O
  O51      1.0000 0.55950  0.62720  0.65020  Biso   1.000  O
  O52      1.0000 0.54040  0.66240  0.93460  Biso   1.000  O
  O53      1.0000 0.65930  0.59260  0.06280  Biso   1.000  O
  O54      1.0000 0.65642  0.47220  0.19870  Biso   1.000  O
  O55      1.0000 0.64500  0.50070  0.81770  Biso   1.000  O
  O56      1.0000 0.66120  0.37990  0.94720  Biso   1.000  O
  O57      1.0000 0.61830  0.78590  0.69490  Biso   1.000  O
  O58      1.0000 0.71990  0.85640  0.65740  Biso   1.000  O
  O59      1.0000 0.72880  0.12050  0.35960  Biso   1.000  O
  O60      1.0000 0.62830  0.19080  0.31610  Biso   1.000  O
  O61      1.0000 0.32320  0.23650  0.47210  Biso   1.000  O
  O62      1.0000 0.22100  0.16970  0.43110  Biso   1.000  O
  O63      1.0000 0.20570  0.86420  0.58820  Biso   1.000  O
  O64      1.0000 0.30180  0.78400  0.55180  Biso   1.000  O
