data_HOGSIG_clean
_audit_creation_date              2014-07-02
_audit_creation_method            'Materials Studio'
_symmetry_space_group_name_H-M    'P1'
_symmetry_Int_Tables_number       1
_symmetry_cell_setting            triclinic
loop_
_symmetry_equiv_pos_as_xyz
  x,y,z
_cell_length_a                    7.6020
_cell_length_b                    14.2510
_cell_length_c                    14.2510
_cell_angle_alpha                 97.9523
_cell_angle_beta                  101.4700
_cell_angle_gamma                 101.4700
loop_
_atom_site_label
_atom_site_type_symbol
_atom_site_fract_x
_atom_site_fract_y
_atom_site_fract_z
_atom_site_U_iso_or_equiv
_atom_site_adp_type
_atom_site_occupancy
Ni1    Ni    0.75000   0.58943   0.41057   0.01267  Uiso   1.00
Ni2    Ni    0.25000   0.41057   0.58943   0.01267  Uiso   1.00
Ni3    Ni    0.50000   0.00000   0.00000   0.01267  Uiso   1.00
Ni4    Ni    0.00000   0.00000   0.00000   0.01267  Uiso   1.00
H1     H     0.95720   0.78300   0.93680   0.01267  Uiso   1.00
H2     H     0.90420   0.66250   0.80170   0.01267  Uiso   1.00
H3     H     0.86330   0.86470   0.63210   0.01267  Uiso   1.00
H4     H     0.91260   0.97970   0.77170   0.01267  Uiso   1.00
H5     H     0.62880   0.77430   0.38250   0.01267  Uiso   1.00
H6     H     0.62050   0.88240   0.27600   0.01267  Uiso   1.00
H7     H     0.54280   0.06320   0.21700   0.01267  Uiso   1.00
H8     H     0.59580   0.19830   0.33750   0.01267  Uiso   1.00
H9     H     0.63670   0.36790   0.13530   0.01267  Uiso   1.00
H10    H     0.58740   0.22830   0.02030   0.01267  Uiso   1.00
H11    H     0.87120   0.61750   0.22570   0.01267  Uiso   1.00
H12    H     0.87950   0.72400   0.11760   0.01267  Uiso   1.00
H13    H     0.04280   0.21700   0.06320   0.01267  Uiso   1.00
H14    H     0.09580   0.33750   0.19830   0.01267  Uiso   1.00
H15    H     0.13670   0.13530   0.36790   0.01267  Uiso   1.00
H16    H     0.08740   0.02030   0.22830   0.01267  Uiso   1.00
H17    H     0.37120   0.22570   0.61750   0.01267  Uiso   1.00
H18    H     0.37950   0.11760   0.72400   0.01267  Uiso   1.00
H19    H     0.45720   0.93680   0.78300   0.01267  Uiso   1.00
H20    H     0.40420   0.80170   0.66250   0.01267  Uiso   1.00
H21    H     0.36330   0.63210   0.86470   0.01267  Uiso   1.00
H22    H     0.41260   0.77170   0.97970   0.01267  Uiso   1.00
H23    H     0.12880   0.38250   0.77430   0.01267  Uiso   1.00
H24    H     0.12050   0.27600   0.88240   0.01267  Uiso   1.00
C1     C     0.93810   0.79970   0.87530   0.01267  Uiso   1.00
C2     C     0.90660   0.72640   0.79400   0.01267  Uiso   1.00
C3     C     0.87850   0.74970   0.70050   0.01267  Uiso   1.00
C4     C     0.88150   0.84640   0.69280   0.01267  Uiso   1.00
C5     C     0.91250   0.91550   0.77790   0.01267  Uiso   1.00
C6     C     0.84170   0.67000   0.61000   0.01267  Uiso   1.00
C7     C     0.67810   0.76350   0.32830   0.01267  Uiso   1.00
C8     C     0.67370   0.82980   0.26460   0.01267  Uiso   1.00
C9     C     0.56190   0.12470   0.20030   0.01267  Uiso   1.00
C10    C     0.59340   0.20600   0.27360   0.01267  Uiso   1.00
C11    C     0.62150   0.29950   0.25030   0.01267  Uiso   1.00
C12    C     0.61850   0.30720   0.15360   0.01267  Uiso   1.00
C13    C     0.58750   0.22210   0.08450   0.01267  Uiso   1.00
C14    C     0.65830   0.39000   0.33000   0.01267  Uiso   1.00
C15    C     0.82190   0.67170   0.23650   0.01267  Uiso   1.00
C16    C     0.82630   0.73540   0.17020   0.01267  Uiso   1.00
C17    C     0.06190   0.20030   0.12470   0.01267  Uiso   1.00
C18    C     0.09340   0.27360   0.20600   0.01267  Uiso   1.00
C19    C     0.12150   0.25030   0.29950   0.01267  Uiso   1.00
C20    C     0.11850   0.15360   0.30720   0.01267  Uiso   1.00
C21    C     0.08750   0.08450   0.22210   0.01267  Uiso   1.00
C22    C     0.15830   0.33000   0.39000   0.01267  Uiso   1.00
C23    C     0.32190   0.23650   0.67170   0.01267  Uiso   1.00
C24    C     0.32630   0.17020   0.73540   0.01267  Uiso   1.00
C25    C     0.43810   0.87530   0.79970   0.01267  Uiso   1.00
C26    C     0.40660   0.79400   0.72640   0.01267  Uiso   1.00
C27    C     0.37850   0.70050   0.74970   0.01267  Uiso   1.00
C28    C     0.38150   0.69280   0.84640   0.01267  Uiso   1.00
C29    C     0.41250   0.77790   0.91550   0.01267  Uiso   1.00
C30    C     0.34170   0.61000   0.67000   0.01267  Uiso   1.00
C31    C     0.17810   0.32830   0.76350   0.01267  Uiso   1.00
C32    C     0.17370   0.26460   0.82980   0.01267  Uiso   1.00
C33    C     0.75000   0.81620   0.18380   0.01267  Uiso   1.00
C34    C     0.75000   0.88720   0.11280   0.01267  Uiso   1.00
C35    C     0.25000   0.18380   0.81620   0.01267  Uiso   1.00
C36    C     0.25000   0.11280   0.88720   0.01267  Uiso   1.00
N1     N     0.94210   0.89449   0.86851   0.01267  Uiso   1.00
N2     N     0.55790   0.13149   0.10551   0.01267  Uiso   1.00
N3     N     0.05790   0.10551   0.13149   0.01267  Uiso   1.00
N4     N     0.44210   0.86851   0.89449   0.01267  Uiso   1.00
N5     N     0.75000   0.68450   0.31550   0.01267  Uiso   1.00
N6     N     0.25000   0.31550   0.68450   0.01267  Uiso   1.00
N7     N     0.25000   0.95250   0.04750   0.01267  Uiso   1.00
N8     N     0.25000   0.89690   0.10310   0.01267  Uiso   1.00
N9     N     0.25000   0.84320   0.15680   0.01267  Uiso   1.00
N10    N     0.75000   0.04750   0.95250   0.01267  Uiso   1.00
N11    N     0.75000   0.10310   0.89690   0.01267  Uiso   1.00
N12    N     0.75000   0.15680   0.84320   0.01267  Uiso   1.00
O1     O     0.82490   0.69800   0.52882   0.01267  Uiso   1.00
O2     O     0.82930   0.58200   0.62220   0.01267  Uiso   1.00
O3     O     0.62790   0.93659   0.10969   0.01267  Uiso   1.00
O4     O     0.67510   0.47118   0.30200   0.01267  Uiso   1.00
O5     O     0.67070   0.37780   0.41800   0.01267  Uiso   1.00
O6     O     0.87210   0.89031   0.06341   0.01267  Uiso   1.00
O7     O     0.17510   0.30200   0.47118   0.01267  Uiso   1.00
O8     O     0.17070   0.41800   0.37780   0.01267  Uiso   1.00
O9     O     0.37210   0.06341   0.89031   0.01267  Uiso   1.00
O10    O     0.32490   0.52882   0.69800   0.01267  Uiso   1.00
O11    O     0.32930   0.62220   0.58200   0.01267  Uiso   1.00
O12    O     0.12790   0.10969   0.93659   0.01267  Uiso   1.00
