data_image0
_cell_length_a       13.424
_cell_length_b       13.424
_cell_length_c       14.752
_cell_angle_alpha    90
_cell_angle_beta     90
_cell_angle_gamma    120

_symmetry_space_group_name_H-M    "P 1"
_symmetry_int_tables_number       1

loop_
  _symmetry_equiv_pos_as_xyz
  'x, y, z'

loop_
  _atom_site_label
  _atom_site_occupancy
  _atom_site_fract_x
  _atom_site_fract_y
  _atom_site_fract_z
  _atom_site_thermal_displace_type
  _atom_site_B_iso_or_equiv
  _atom_site_type_symbol
  O1       1.0000 0.19850  0.44240  0.12780  Biso   1.000  O
  O2       1.0000 0.36140  0.54900  0.05930  Biso   1.000  O
  O3       1.0000 0.43630  0.61440  0.77400  Biso   1.000  O
  O4       1.0000 0.52880  0.59930  0.89550  Biso   1.000  O
  N1       1.0000 0.34800  0.38760  0.94300  Biso   1.000  N
  C1       1.0000 0.27060  0.44950  0.06990  Biso   1.000  C
  C2       1.0000 0.25680  0.35400  0.00800  Biso   1.000  C
  C3       1.0000 0.33900  0.44800  0.86000  Biso   1.000  C
  C4       1.0000 0.43620  0.55910  0.84200  Biso   1.000  C
  O5       1.0000 0.55760  0.75610  0.12780  Biso   1.000  O
  O6       1.0000 0.45100  0.81240  0.05930  Biso   1.000  O
  O7       1.0000 0.38560  0.82190  0.77400  Biso   1.000  O
  O8       1.0000 0.40070  0.92950  0.89550  Biso   1.000  O
  N2       1.0000 0.61240  0.96040  0.94300  Biso   1.000  N
  C5       1.0000 0.55050  0.82110  0.06990  Biso   1.000  C
  C6       1.0000 0.64600  0.90280  0.00800  Biso   1.000  C
  C7       1.0000 0.55200  0.89100  0.86000  Biso   1.000  C
  C8       1.0000 0.44090  0.87710  0.84200  Biso   1.000  C
  O9       1.0000 0.24390  0.80150  0.12780  Biso   1.000  O
  O10      1.0000 0.18760  0.63860  0.05930  Biso   1.000  O
  O11      1.0000 0.17810  0.56370  0.77400  Biso   1.000  O
  O12      1.0000 0.07050  0.47120  0.89550  Biso   1.000  O
  N3       1.0000 0.03960  0.65200  0.94300  Biso   1.000  N
  C9       1.0000 0.17890  0.72940  0.06990  Biso   1.000  C
  C10      1.0000 0.09720  0.74320  0.00800  Biso   1.000  C
  C11      1.0000 0.10900  0.66100  0.86000  Biso   1.000  C
  C12      1.0000 0.12290  0.56380  0.84200  Biso   1.000  C
  O13      1.0000 0.44240  0.19850  0.37220  Biso   1.000  O
  O14      1.0000 0.54900  0.36140  0.44070  Biso   1.000  O
  O15      1.0000 0.61440  0.43630  0.72600  Biso   1.000  O
  O16      1.0000 0.59930  0.52880  0.60450  Biso   1.000  O
  N4       1.0000 0.38760  0.34800  0.55700  Biso   1.000  N
  C13      1.0000 0.44950  0.27060  0.43010  Biso   1.000  C
  C14      1.0000 0.35400  0.25680  0.49200  Biso   1.000  C
  C15      1.0000 0.44800  0.33900  0.64000  Biso   1.000  C
  C16      1.0000 0.55910  0.43620  0.65800  Biso   1.000  C
  O17      1.0000 0.75610  0.55760  0.37220  Biso   1.000  O
  O18      1.0000 0.81240  0.45100  0.44070  Biso   1.000  O
  O19      1.0000 0.82190  0.38560  0.72600  Biso   1.000  O
  O20      1.0000 0.92950  0.40070  0.60450  Biso   1.000  O
  N5       1.0000 0.96040  0.61240  0.55700  Biso   1.000  N
  C17      1.0000 0.82110  0.55050  0.43010  Biso   1.000  C
  C18      1.0000 0.90280  0.64600  0.49200  Biso   1.000  C
  C19      1.0000 0.89100  0.55200  0.64000  Biso   1.000  C
  C20      1.0000 0.87710  0.44090  0.65800  Biso   1.000  C
  O21      1.0000 0.80150  0.24390  0.37220  Biso   1.000  O
  O22      1.0000 0.63860  0.18760  0.44070  Biso   1.000  O
  O23      1.0000 0.56370  0.17810  0.72600  Biso   1.000  O
  O24      1.0000 0.47120  0.07050  0.60450  Biso   1.000  O
  N6       1.0000 0.65200  0.03960  0.55700  Biso   1.000  N
  C21      1.0000 0.72940  0.17890  0.43010  Biso   1.000  C
  C22      1.0000 0.74320  0.09720  0.49200  Biso   1.000  C
  C23      1.0000 0.66100  0.10900  0.64000  Biso   1.000  C
  C24      1.0000 0.56380  0.12290  0.65800  Biso   1.000  C
  O25      1.0000 0.80150  0.55760  0.87220  Biso   1.000  O
  O26      1.0000 0.63860  0.45100  0.94070  Biso   1.000  O
  O27      1.0000 0.56370  0.38560  0.22600  Biso   1.000  O
  O28      1.0000 0.47120  0.40070  0.10450  Biso   1.000  O
  N7       1.0000 0.65200  0.61240  0.05700  Biso   1.000  N
  C25      1.0000 0.72940  0.55050  0.93010  Biso   1.000  C
  C26      1.0000 0.74320  0.64600  0.99200  Biso   1.000  C
  C27      1.0000 0.66100  0.55200  0.14000  Biso   1.000  C
  C28      1.0000 0.56380  0.44090  0.15800  Biso   1.000  C
  O29      1.0000 0.44240  0.24390  0.87220  Biso   1.000  O
  O30      1.0000 0.54900  0.18760  0.94070  Biso   1.000  O
  O31      1.0000 0.61440  0.17810  0.22600  Biso   1.000  O
  O32      1.0000 0.59930  0.07050  0.10450  Biso   1.000  O
  N8       1.0000 0.38760  0.03960  0.05700  Biso   1.000  N
  C29      1.0000 0.44950  0.17890  0.93010  Biso   1.000  C
  C30      1.0000 0.35400  0.09720  0.99200  Biso   1.000  C
  C31      1.0000 0.44800  0.10900  0.14000  Biso   1.000  C
  C32      1.0000 0.55910  0.12290  0.15800  Biso   1.000  C
  O33      1.0000 0.75610  0.19850  0.87220  Biso   1.000  O
  O34      1.0000 0.81240  0.36140  0.94070  Biso   1.000  O
  O35      1.0000 0.82190  0.43630  0.22600  Biso   1.000  O
  O36      1.0000 0.92950  0.52880  0.10450  Biso   1.000  O
  N9       1.0000 0.96040  0.34800  0.05700  Biso   1.000  N
  C33      1.0000 0.82110  0.27060  0.93010  Biso   1.000  C
  C34      1.0000 0.90280  0.25680  0.99200  Biso   1.000  C
  C35      1.0000 0.89100  0.33900  0.14000  Biso   1.000  C
  C36      1.0000 0.87710  0.43620  0.15800  Biso   1.000  C
  O37      1.0000 0.55760  0.80150  0.62780  Biso   1.000  O
  O38      1.0000 0.45100  0.63860  0.55930  Biso   1.000  O
  O39      1.0000 0.38560  0.56370  0.27400  Biso   1.000  O
  O40      1.0000 0.40070  0.47120  0.39550  Biso   1.000  O
  N10      1.0000 0.61240  0.65200  0.44300  Biso   1.000  N
  C37      1.0000 0.55050  0.72940  0.56990  Biso   1.000  C
  C38      1.0000 0.64600  0.74320  0.50800  Biso   1.000  C
  C39      1.0000 0.55200  0.66100  0.36000  Biso   1.000  C
  C40      1.0000 0.44090  0.56380  0.34200  Biso   1.000  C
  O41      1.0000 0.24390  0.44240  0.62780  Biso   1.000  O
  O42      1.0000 0.18760  0.54900  0.55930  Biso   1.000  O
  O43      1.0000 0.17810  0.61440  0.27400  Biso   1.000  O
  O44      1.0000 0.07050  0.59930  0.39550  Biso   1.000  O
  N11      1.0000 0.03960  0.38760  0.44300  Biso   1.000  N
  C41      1.0000 0.17890  0.44950  0.56990  Biso   1.000  C
  C42      1.0000 0.09720  0.35400  0.50800  Biso   1.000  C
  C43      1.0000 0.10900  0.44800  0.36000  Biso   1.000  C
  C44      1.0000 0.12290  0.55910  0.34200  Biso   1.000  C
  O45      1.0000 0.19850  0.75610  0.62780  Biso   1.000  O
  O46      1.0000 0.36140  0.81240  0.55930  Biso   1.000  O
  O47      1.0000 0.43630  0.82190  0.27400  Biso   1.000  O
  O48      1.0000 0.52880  0.92950  0.39550  Biso   1.000  O
  N12      1.0000 0.34800  0.96040  0.44300  Biso   1.000  N
  C45      1.0000 0.27060  0.82110  0.56990  Biso   1.000  C
  C46      1.0000 0.25680  0.90280  0.50800  Biso   1.000  C
  C47      1.0000 0.33900  0.89100  0.36000  Biso   1.000  C
  C48      1.0000 0.43620  0.87710  0.34200  Biso   1.000  C
  Pr1      1.0000 0.33333  0.66667  0.16880  Biso   1.000  Pr
  Pr2      1.0000 0.66667  0.33333  0.33120  Biso   1.000  Pr
  Pr3      1.0000 0.66667  0.33333  0.83120  Biso   1.000  Pr
  Pr4      1.0000 0.33333  0.66667  0.66880  Biso   1.000  Pr
  Cu1      1.0000 0.50000  0.50000  0.00000  Biso   1.000  Cu
  Cu2      1.0000 0.50000  0.00000  0.00000  Biso   1.000  Cu
  Cu3      1.0000 0.00000  0.50000  0.00000  Biso   1.000  Cu
  Cu4      1.0000 0.50000  0.50000  0.50000  Biso   1.000  Cu
  Cu5      1.0000 0.00000  0.50000  0.50000  Biso   1.000  Cu
  Cu6      1.0000 0.50000  0.00000  0.50000  Biso   1.000  Cu
