data_image0
_cell_length_a       8.403
_cell_length_b       10.985
_cell_length_c       24.235
_cell_angle_alpha    90
_cell_angle_beta     90
_cell_angle_gamma    90

_symmetry_space_group_name_H-M    "P 1"
_symmetry_int_tables_number       1

loop_
  _symmetry_equiv_pos_as_xyz
  'x, y, z'

loop_
  _atom_site_label
  _atom_site_occupancy
  _atom_site_fract_x
  _atom_site_fract_y
  _atom_site_fract_z
  _atom_site_thermal_displace_type
  _atom_site_B_iso_or_equiv
  _atom_site_type_symbol
  Ni1      1.0000 0.60223  0.11499  0.48555  Biso   1.000  Ni
  O1       1.0000 0.64270  0.94970  0.44746  Biso   1.000  O
  O2       1.0000 0.86000  0.83930  0.46401  Biso   1.000  O
  O3       1.0000 0.84190  0.15616  0.49065  Biso   1.000  O
  O4       1.0000 0.08200  0.22645  0.46911  Biso   1.000  O
  O5       1.0000 0.16550  0.26570  0.27101  Biso   1.000  O
  O6       1.0000 0.15450  0.10030  0.22315  Biso   1.000  O
  N1       1.0000 0.12460  0.15870  0.26470  Biso   1.000  N
  N2       1.0000 0.58330  0.20050  0.40856  Biso   1.000  N
  N3       1.0000 0.86770  0.97880  0.05987  Biso   1.000  N
  C1       1.0000 0.87670  0.98920  0.39519  Biso   1.000  C
  C2       1.0000 0.95910  0.09770  0.40429  Biso   1.000  C
  C3       1.0000 0.04050  0.15180  0.36098  Biso   1.000  C
  H1       1.0000 0.09580  0.22400  0.36670  Biso   1.000  H
  C4       1.0000 0.03950  0.09930  0.31013  Biso   1.000  C
  C5       1.0000 0.95770  0.99120  0.29966  Biso   1.000  C
  H2       1.0000 0.95820  0.95620  0.26470  Biso   1.000  H
  C6       1.0000 0.87620  0.93790  0.34269  Biso   1.000  C
  H3       1.0000 0.81980  0.86640  0.33650  Biso   1.000  H
  C7       1.0000 0.78720  0.92130  0.44011  Biso   1.000  C
  C8       1.0000 0.95900  0.16290  0.45898  Biso   1.000  C
  C9       1.0000 0.51570  0.14080  0.36683  Biso   1.000  C
  H4       1.0000 0.47060  0.06500  0.37380  Biso   1.000  H
  C10      1.0000 0.50950  0.18590  0.31406  Biso   1.000  C
  H5       1.0000 0.45990  0.14080  0.28650  Biso   1.000  H
  C11      1.0000 0.57590  0.29680  0.30150  Biso   1.000  C
  C12      1.0000 0.64840  0.35820  0.34440  Biso   1.000  C
  H6       1.0000 0.69740  0.43290  0.33820  Biso   1.000  H
  C13      1.0000 0.64770  0.30770  0.39693  Biso   1.000  C
  H7       1.0000 0.69490  0.35130  0.42550  Biso   1.000  H
  C14      1.0000 0.56800  0.35260  0.24415  Biso   1.000  C
  H8       1.0000 0.64560  0.41780  0.24200  Biso   1.000  H
  H9       1.0000 0.46360  0.38850  0.23920  Biso   1.000  H
  C15      1.0000 0.59860  0.26410  0.19649  Biso   1.000  C
  H10      1.0000 0.51700  0.20170  0.19660  Biso   1.000  H
  H11      1.0000 0.59100  0.30790  0.16180  Biso   1.000  H
  C16      1.0000 0.76160  0.20390  0.20036  Biso   1.000  C
  H12      1.0000 0.84200  0.26680  0.20360  Biso   1.000  H
  H13      1.0000 0.76550  0.15520  0.23370  Biso   1.000  H
  C17      1.0000 0.76320  0.94530  0.09815  Biso   1.000  C
  H14      1.0000 0.71110  0.87130  0.09370  Biso   1.000  H
  C18      1.0000 0.72780  0.01420  0.14400  Biso   1.000  C
  H15      1.0000 0.65380  0.98610  0.16950  Biso   1.000  H
  C19      1.0000 0.80170  0.12430  0.15209  Biso   1.000  C
  C20      1.0000 0.91060  0.15840  0.11321  Biso   1.000  C
  H16      1.0000 0.96520  0.23150  0.11710  Biso   1.000  H
  C21      1.0000 0.93960  0.08510  0.06837  Biso   1.000  C
  H17      1.0000 0.01380  0.11130  0.04250  Biso   1.000  H
  Ni2      1.0000 0.89777  0.88501  0.98555  Biso   1.000  Ni
  O7       1.0000 0.85730  0.05030  0.94746  Biso   1.000  O
  O8       1.0000 0.64000  0.16070  0.96401  Biso   1.000  O
  O9       1.0000 0.65810  0.84384  0.99065  Biso   1.000  O
  O10      1.0000 0.41800  0.77355  0.96911  Biso   1.000  O
  O11      1.0000 0.33450  0.73430  0.77101  Biso   1.000  O
  O12      1.0000 0.34550  0.89970  0.72315  Biso   1.000  O
  N4       1.0000 0.37540  0.84130  0.76470  Biso   1.000  N
  N5       1.0000 0.91670  0.79950  0.90856  Biso   1.000  N
  N6       1.0000 0.63230  0.02120  0.55987  Biso   1.000  N
  C22      1.0000 0.62330  0.01080  0.89519  Biso   1.000  C
  C23      1.0000 0.54090  0.90230  0.90429  Biso   1.000  C
  C24      1.0000 0.45950  0.84820  0.86098  Biso   1.000  C
  H18      1.0000 0.40420  0.77600  0.86670  Biso   1.000  H
  C25      1.0000 0.46050  0.90070  0.81013  Biso   1.000  C
  C26      1.0000 0.54230  0.00880  0.79966  Biso   1.000  C
  H19      1.0000 0.54180  0.04380  0.76470  Biso   1.000  H
  C27      1.0000 0.62380  0.06210  0.84269  Biso   1.000  C
  H20      1.0000 0.68020  0.13360  0.83650  Biso   1.000  H
  C28      1.0000 0.71280  0.07870  0.94011  Biso   1.000  C
  C29      1.0000 0.54100  0.83710  0.95898  Biso   1.000  C
  C30      1.0000 0.98430  0.85920  0.86683  Biso   1.000  C
  H21      1.0000 0.02940  0.93500  0.87380  Biso   1.000  H
  C31      1.0000 0.99050  0.81410  0.81406  Biso   1.000  C
  H22      1.0000 0.04010  0.85920  0.78650  Biso   1.000  H
  C32      1.0000 0.92410  0.70320  0.80150  Biso   1.000  C
  C33      1.0000 0.85160  0.64180  0.84440  Biso   1.000  C
  H23      1.0000 0.80260  0.56710  0.83820  Biso   1.000  H
  C34      1.0000 0.85230  0.69230  0.89693  Biso   1.000  C
  H24      1.0000 0.80510  0.64870  0.92550  Biso   1.000  H
  C35      1.0000 0.93200  0.64740  0.74415  Biso   1.000  C
  H25      1.0000 0.85440  0.58220  0.74200  Biso   1.000  H
  H26      1.0000 0.03640  0.61150  0.73920  Biso   1.000  H
  C36      1.0000 0.90140  0.73590  0.69649  Biso   1.000  C
  H27      1.0000 0.98300  0.79830  0.69660  Biso   1.000  H
  H28      1.0000 0.90900  0.69210  0.66180  Biso   1.000  H
  C37      1.0000 0.73840  0.79610  0.70036  Biso   1.000  C
  H29      1.0000 0.65800  0.73320  0.70360  Biso   1.000  H
  H30      1.0000 0.73450  0.84480  0.73370  Biso   1.000  H
  C38      1.0000 0.73680  0.05470  0.59815  Biso   1.000  C
  H31      1.0000 0.78890  0.12870  0.59370  Biso   1.000  H
  C39      1.0000 0.77220  0.98580  0.64400  Biso   1.000  C
  H32      1.0000 0.84620  0.01390  0.66950  Biso   1.000  H
  C40      1.0000 0.69830  0.87570  0.65209  Biso   1.000  C
  C41      1.0000 0.58940  0.84160  0.61321  Biso   1.000  C
  H33      1.0000 0.53480  0.76850  0.61710  Biso   1.000  H
  C42      1.0000 0.56040  0.91490  0.56837  Biso   1.000  C
  H34      1.0000 0.48620  0.88870  0.54250  Biso   1.000  H
  Ni3      1.0000 0.39777  0.61499  0.01445  Biso   1.000  Ni
  O13      1.0000 0.35730  0.44970  0.05254  Biso   1.000  O
  O14      1.0000 0.14000  0.33930  0.03599  Biso   1.000  O
  O15      1.0000 0.15810  0.65616  0.00935  Biso   1.000  O
  O16      1.0000 0.91800  0.72645  0.03089  Biso   1.000  O
  O17      1.0000 0.83450  0.76570  0.22899  Biso   1.000  O
  O18      1.0000 0.84550  0.60030  0.27685  Biso   1.000  O
  N7       1.0000 0.87540  0.65870  0.23530  Biso   1.000  N
  N8       1.0000 0.41670  0.70050  0.09144  Biso   1.000  N
  N9       1.0000 0.13230  0.47880  0.44013  Biso   1.000  N
  C43      1.0000 0.12330  0.48920  0.10481  Biso   1.000  C
  C44      1.0000 0.04090  0.59770  0.09571  Biso   1.000  C
  C45      1.0000 0.95950  0.65180  0.13902  Biso   1.000  C
  H35      1.0000 0.90420  0.72400  0.13330  Biso   1.000  H
  C46      1.0000 0.96050  0.59930  0.18987  Biso   1.000  C
  C47      1.0000 0.04230  0.49120  0.20034  Biso   1.000  C
  H36      1.0000 0.04180  0.45620  0.23530  Biso   1.000  H
  C48      1.0000 0.12380  0.43790  0.15731  Biso   1.000  C
  H37      1.0000 0.18020  0.36640  0.16350  Biso   1.000  H
  C49      1.0000 0.21280  0.42130  0.05989  Biso   1.000  C
  C50      1.0000 0.04100  0.66290  0.04102  Biso   1.000  C
  C51      1.0000 0.48430  0.64080  0.13317  Biso   1.000  C
  H38      1.0000 0.52940  0.56500  0.12620  Biso   1.000  H
  C52      1.0000 0.49050  0.68590  0.18594  Biso   1.000  C
  H39      1.0000 0.54010  0.64080  0.21350  Biso   1.000  H
  C53      1.0000 0.42410  0.79680  0.19850  Biso   1.000  C
  C54      1.0000 0.35160  0.85820  0.15560  Biso   1.000  C
  H40      1.0000 0.30260  0.93290  0.16180  Biso   1.000  H
  C55      1.0000 0.35230  0.80770  0.10307  Biso   1.000  C
  H41      1.0000 0.30510  0.85130  0.07450  Biso   1.000  H
  C56      1.0000 0.43200  0.85260  0.25585  Biso   1.000  C
  H42      1.0000 0.35440  0.91780  0.25800  Biso   1.000  H
  H43      1.0000 0.53640  0.88850  0.26080  Biso   1.000  H
  C57      1.0000 0.40140  0.76410  0.30351  Biso   1.000  C
  H44      1.0000 0.48300  0.70170  0.30340  Biso   1.000  H
  H45      1.0000 0.40900  0.80790  0.33820  Biso   1.000  H
  C58      1.0000 0.23840  0.70390  0.29964  Biso   1.000  C
  H46      1.0000 0.15800  0.76680  0.29640  Biso   1.000  H
  H47      1.0000 0.23450  0.65520  0.26630  Biso   1.000  H
  C59      1.0000 0.23680  0.44530  0.40185  Biso   1.000  C
  H48      1.0000 0.28890  0.37130  0.40630  Biso   1.000  H
  C60      1.0000 0.27220  0.51420  0.35600  Biso   1.000  C
  H49      1.0000 0.34620  0.48610  0.33050  Biso   1.000  H
  C61      1.0000 0.19830  0.62430  0.34791  Biso   1.000  C
  C62      1.0000 0.08940  0.65840  0.38679  Biso   1.000  C
  H50      1.0000 0.03480  0.73150  0.38290  Biso   1.000  H
  C63      1.0000 0.06040  0.58510  0.43163  Biso   1.000  C
  H51      1.0000 0.98620  0.61130  0.45750  Biso   1.000  H
  Ni4      1.0000 0.10223  0.38501  0.51445  Biso   1.000  Ni
  O19      1.0000 0.14270  0.55030  0.55254  Biso   1.000  O
  O20      1.0000 0.36000  0.66070  0.53599  Biso   1.000  O
  O21      1.0000 0.34190  0.34384  0.50935  Biso   1.000  O
  O22      1.0000 0.58200  0.27355  0.53089  Biso   1.000  O
  O23      1.0000 0.66550  0.23430  0.72899  Biso   1.000  O
  O24      1.0000 0.65450  0.39970  0.77685  Biso   1.000  O
  N10      1.0000 0.62460  0.34130  0.73530  Biso   1.000  N
  N11      1.0000 0.08330  0.29950  0.59144  Biso   1.000  N
  N12      1.0000 0.36770  0.52120  0.94013  Biso   1.000  N
  C64      1.0000 0.37670  0.51080  0.60481  Biso   1.000  C
  C65      1.0000 0.45910  0.40230  0.59571  Biso   1.000  C
  C66      1.0000 0.54050  0.34820  0.63902  Biso   1.000  C
  H52      1.0000 0.59580  0.27600  0.63330  Biso   1.000  H
  C67      1.0000 0.53950  0.40070  0.68987  Biso   1.000  C
  C68      1.0000 0.45770  0.50880  0.70034  Biso   1.000  C
  H53      1.0000 0.45820  0.54380  0.73530  Biso   1.000  H
  C69      1.0000 0.37620  0.56210  0.65731  Biso   1.000  C
  H54      1.0000 0.31980  0.63360  0.66350  Biso   1.000  H
  C70      1.0000 0.28720  0.57870  0.55989  Biso   1.000  C
  C71      1.0000 0.45900  0.33710  0.54102  Biso   1.000  C
  C72      1.0000 0.01570  0.35920  0.63317  Biso   1.000  C
  H55      1.0000 0.97060  0.43500  0.62620  Biso   1.000  H
  C73      1.0000 0.00950  0.31410  0.68594  Biso   1.000  C
  H56      1.0000 0.95990  0.35920  0.71350  Biso   1.000  H
  C74      1.0000 0.07590  0.20320  0.69850  Biso   1.000  C
  C75      1.0000 0.14840  0.14180  0.65560  Biso   1.000  C
  H57      1.0000 0.19740  0.06710  0.66180  Biso   1.000  H
  C76      1.0000 0.14770  0.19230  0.60307  Biso   1.000  C
  H58      1.0000 0.19490  0.14870  0.57450  Biso   1.000  H
  C77      1.0000 0.06800  0.14740  0.75585  Biso   1.000  C
  H59      1.0000 0.14560  0.08220  0.75800  Biso   1.000  H
  H60      1.0000 0.96360  0.11150  0.76080  Biso   1.000  H
  C78      1.0000 0.09860  0.23590  0.80351  Biso   1.000  C
  H61      1.0000 0.01700  0.29830  0.80340  Biso   1.000  H
  H62      1.0000 0.09100  0.19210  0.83820  Biso   1.000  H
  C79      1.0000 0.26160  0.29610  0.79964  Biso   1.000  C
  H63      1.0000 0.34200  0.23320  0.79640  Biso   1.000  H
  H64      1.0000 0.26550  0.34480  0.76630  Biso   1.000  H
  C80      1.0000 0.26320  0.55470  0.90185  Biso   1.000  C
  H65      1.0000 0.21110  0.62870  0.90630  Biso   1.000  H
  C81      1.0000 0.22780  0.48580  0.85600  Biso   1.000  C
  H66      1.0000 0.15380  0.51390  0.83050  Biso   1.000  H
  C82      1.0000 0.30170  0.37570  0.84791  Biso   1.000  C
  C83      1.0000 0.41060  0.34160  0.88679  Biso   1.000  C
  H67      1.0000 0.46520  0.26850  0.88290  Biso   1.000  H
  C84      1.0000 0.43960  0.41490  0.93163  Biso   1.000  C
  H68      1.0000 0.51380  0.38870  0.95750  Biso   1.000  H
