data_image0
_cell_length_a       21.336
_cell_length_b       23.766
_cell_length_c       15.808
_cell_angle_alpha    90
_cell_angle_beta     101.568
_cell_angle_gamma    90

_symmetry_space_group_name_H-M    "P 1"
_symmetry_int_tables_number       1

loop_
  _symmetry_equiv_pos_as_xyz
  'x, y, z'

loop_
  _atom_site_label
  _atom_site_occupancy
  _atom_site_fract_x
  _atom_site_fract_y
  _atom_site_fract_z
  _atom_site_thermal_displace_type
  _atom_site_B_iso_or_equiv
  _atom_site_type_symbol
  Zn1      1.0000 0.95006  0.98967  0.26580  Biso   1.000  Zn
  Zn2      1.0000 0.02913  0.00973  0.13147  Biso   1.000  Zn
  O1       1.0000 0.00850  0.03990  0.34740  Biso   1.000  O
  O2       1.0000 0.06350  0.05470  0.24280  Biso   1.000  O
  O3       1.0000 0.40880  0.44130  0.70410  Biso   1.000  O
  O4       1.0000 0.46390  0.42720  0.59690  Biso   1.000  O
  O5       1.0000 0.00720  0.92260  0.29250  Biso   1.000  O
  O6       1.0000 0.06600  0.93600  0.19200  Biso   1.000  O
  O7       1.0000 0.41540  0.55000  0.64830  Biso   1.000  O
  O8       1.0000 0.46990  0.53730  0.54230  Biso   1.000  O
  N1       1.0000 0.22930  0.21060  0.52650  Biso   1.000  N
  N2       1.0000 0.26740  0.22940  0.50240  Biso   1.000  N
  N3       1.0000 0.20700  0.72470  0.39900  Biso   1.000  N
  N4       1.0000 0.26440  0.71870  0.36620  Biso   1.000  N
  C1       1.0000 0.05200  0.06030  0.31780  Biso   1.000  C
  C2       1.0000 0.09500  0.10290  0.37670  Biso   1.000  C
  C3       1.0000 0.09240  0.10960  0.46330  Biso   1.000  C
  H1       1.0000 0.06240  0.08880  0.48750  Biso   1.000  H
  C4       1.0000 0.13380  0.14700  0.51440  Biso   1.000  C
  H2       1.0000 0.13200  0.15160  0.57350  Biso   1.000  H
  C5       1.0000 0.17770  0.17750  0.47890  Biso   1.000  C
  C6       1.0000 0.18030  0.17070  0.39230  Biso   1.000  C
  H3       1.0000 0.21030  0.19160  0.36810  Biso   1.000  H
  C7       1.0000 0.13890  0.13340  0.34120  Biso   1.000  C
  H4       1.0000 0.14070  0.12880  0.28210  Biso   1.000  H
  C8       1.0000 0.30530  0.27230  0.54410  Biso   1.000  C
  C9       1.0000 0.28480  0.31130  0.59820  Biso   1.000  C
  H5       1.0000 0.24430  0.30690  0.61360  Biso   1.000  H
  C10      1.0000 0.32360  0.35670  0.62990  Biso   1.000  C
  H6       1.0000 0.30960  0.38330  0.66690  Biso   1.000  H
  C11      1.0000 0.38290  0.36310  0.60740  Biso   1.000  C
  C12      1.0000 0.40340  0.32410  0.55320  Biso   1.000  C
  H7       1.0000 0.44390  0.32850  0.53780  Biso   1.000  H
  C13      1.0000 0.36460  0.27880  0.52160  Biso   1.000  C
  H8       1.0000 0.37860  0.25210  0.48450  Biso   1.000  H
  C14      1.0000 0.42060  0.41310  0.64620  Biso   1.000  C
  C15      1.0000 0.05000  0.91220  0.26140  Biso   1.000  C
  C16      1.0000 0.09350  0.86110  0.28470  Biso   1.000  C
  C17      1.0000 0.07580  0.82660  0.34700  Biso   1.000  C
  H9       1.0000 0.03740  0.83390  0.36680  Biso   1.000  H
  C18      1.0000 0.11440  0.78150  0.38040  Biso   1.000  C
  H10      1.0000 0.10230  0.75790  0.42290  Biso   1.000  H
  C19      1.0000 0.17060  0.77080  0.35140  Biso   1.000  C
  C20      1.0000 0.18820  0.80520  0.28910  Biso   1.000  C
  H11      1.0000 0.22660  0.79790  0.26930  Biso   1.000  H
  C21      1.0000 0.14970  0.85040  0.25570  Biso   1.000  C
  H12      1.0000 0.16180  0.87400  0.21320  Biso   1.000  H
  C22      1.0000 0.29330  0.67300  0.42490  Biso   1.000  C
  C23      1.0000 0.28740  0.65950  0.50850  Biso   1.000  C
  H13      1.0000 0.25470  0.67650  0.53280  Biso   1.000  H
  C24      1.0000 0.32930  0.62130  0.55670  Biso   1.000  C
  H14      1.0000 0.32520  0.61210  0.61380  Biso   1.000  H
  C25      1.0000 0.37710  0.59640  0.52120  Biso   1.000  C
  C26      1.0000 0.38300  0.60980  0.43760  Biso   1.000  C
  H15      1.0000 0.41560  0.59290  0.41330  Biso   1.000  H
  C27      1.0000 0.34110  0.64810  0.38940  Biso   1.000  C
  H16      1.0000 0.34510  0.65730  0.33230  Biso   1.000  H
  C28      1.0000 0.42500  0.56040  0.57370  Biso   1.000  C
  N5       1.0000 0.87240  0.96980  0.31740  Biso   1.000  N
  C29      1.0000 0.81550  0.96830  0.25670  Biso   1.000  C
  H17      1.0000 0.81600  0.97250  0.19710  Biso   1.000  H
  C30      1.0000 0.75770  0.96080  0.28320  Biso   1.000  C
  H18      1.0000 0.71880  0.95980  0.24170  Biso   1.000  H
  C31      1.0000 0.75700  0.95470  0.37040  Biso   1.000  C
  C32      1.0000 0.81390  0.95620  0.43120  Biso   1.000  C
  H19      1.0000 0.81340  0.95200  0.49080  Biso   1.000  H
  C33      1.0000 0.87170  0.96370  0.40460  Biso   1.000  C
  H20      1.0000 0.91060  0.96460  0.44620  Biso   1.000  H
  C34      1.0000 0.69100  0.95540  0.39560  Biso   1.000  C
  C35      1.0000 0.65510  0.90620  0.38700  Biso   1.000  C
  C36      1.0000 0.59340  0.90660  0.40310  Biso   1.000  C
  H21      1.0000 0.56880  0.87300  0.39730  Biso   1.000  H
  C37      1.0000 0.56760  0.95620  0.42780  Biso   1.000  C
  C38      1.0000 0.60360  0.00540  0.43600  Biso   1.000  C
  H22      1.0000 0.58590  0.03940  0.45330  Biso   1.000  H
  C39      1.0000 0.66520  0.00500  0.42030  Biso   1.000  C
  C40      1.0000 0.68390  0.85160  0.36500  Biso   1.000  C
  H23      1.0000 0.65250  0.82130  0.36350  Biso   1.000  H
  H24      1.0000 0.72190  0.84320  0.40970  Biso   1.000  H
  H25      1.0000 0.69610  0.85490  0.30900  Biso   1.000  H
  C41      1.0000 0.69690  0.06170  0.42000  Biso   1.000  C
  H26      1.0000 0.66910  0.09080  0.43630  Biso   1.000  H
  H27      1.0000 0.70420  0.06960  0.36170  Biso   1.000  H
  H28      1.0000 0.73790  0.06150  0.46100  Biso   1.000  H
  N6       1.0000 0.99100  0.45790  0.45300  Biso   1.000  N
  H29      1.0000 0.97080  0.48830  0.46480  Biso   1.000  H
  C42      1.0000 0.97080  0.41070  0.45280  Biso   1.000  C
  H30      1.0000 0.99620  0.38780  0.49980  Biso   1.000  H
  H31      1.0000 0.97040  0.39190  0.39670  Biso   1.000  H
  C43      1.0000 0.90340  0.42090  0.46720  Biso   1.000  C
  C44      1.0000 0.87390  0.47310  0.45130  Biso   1.000  C
  H32      1.0000 0.89530  0.50300  0.42920  Biso   1.000  H
  C45      1.0000 0.81300  0.48140  0.46790  Biso   1.000  C
  C46      1.0000 0.78160  0.43760  0.50040  Biso   1.000  C
  C47      1.0000 0.81120  0.38550  0.51630  Biso   1.000  C
  C48      1.0000 0.87200  0.37710  0.49970  Biso   1.000  C
  H33      1.0000 0.89220  0.34150  0.51050  Biso   1.000  H
  C49      1.0000 0.77600  0.53430  0.43600  Biso   1.000  C
  H34      1.0000 0.80460  0.56020  0.41270  Biso   1.000  H
  H35      1.0000 0.76120  0.55240  0.48340  Biso   1.000  H
  H36      1.0000 0.73980  0.52460  0.38990  Biso   1.000  H
  C50      1.0000 0.77790  0.34050  0.55400  Biso   1.000  C
  H37      1.0000 0.73580  0.35400  0.56050  Biso   1.000  H
  H38      1.0000 0.80320  0.33000  0.61050  Biso   1.000  H
  H39      1.0000 0.77270  0.30770  0.51570  Biso   1.000  H
  C51      1.0000 0.72140  0.45160  0.52940  Biso   1.000  C
  C52      1.0000 0.66320  0.44690  0.47170  Biso   1.000  C
  H40      1.0000 0.66210  0.43520  0.41400  Biso   1.000  H
  C53      1.0000 0.60660  0.45960  0.49850  Biso   1.000  C
  H41      1.0000 0.56680  0.45640  0.45910  Biso   1.000  H
  N7       1.0000 0.60820  0.47680  0.58290  Biso   1.000  N
  C54      1.0000 0.66650  0.48140  0.64060  Biso   1.000  C
  H42      1.0000 0.66760  0.49320  0.69830  Biso   1.000  H
  C55      1.0000 0.72310  0.46880  0.61380  Biso   1.000  C
  H43      1.0000 0.76280  0.47200  0.65320  Biso   1.000  H
  N8       1.0000 0.49100  0.04210  0.95300  Biso   1.000  N
  H44      1.0000 0.47080  0.01170  0.96480  Biso   1.000  H
  C56      1.0000 0.47080  0.08930  0.95280  Biso   1.000  C
  H45      1.0000 0.49620  0.11220  0.99980  Biso   1.000  H
  H46      1.0000 0.47040  0.10810  0.89670  Biso   1.000  H
  C57      1.0000 0.40340  0.07910  0.96720  Biso   1.000  C
  C58      1.0000 0.37390  0.02690  0.95130  Biso   1.000  C
  H47      1.0000 0.39530  0.99700  0.92920  Biso   1.000  H
  C59      1.0000 0.31300  0.01860  0.96790  Biso   1.000  C
  C60      1.0000 0.28160  0.06240  0.00040  Biso   1.000  C
  C61      1.0000 0.31120  0.11450  0.01630  Biso   1.000  C
  C62      1.0000 0.37200  0.12290  0.99970  Biso   1.000  C
  H48      1.0000 0.39220  0.15850  0.01050  Biso   1.000  H
  C63      1.0000 0.27600  0.96570  0.93600  Biso   1.000  C
  H49      1.0000 0.30460  0.93980  0.91270  Biso   1.000  H
  H50      1.0000 0.26120  0.94760  0.98340  Biso   1.000  H
  H51      1.0000 0.23980  0.97540  0.88990  Biso   1.000  H
  C64      1.0000 0.27790  0.15950  0.05400  Biso   1.000  C
  H52      1.0000 0.23580  0.14600  0.06050  Biso   1.000  H
  H53      1.0000 0.30320  0.17000  0.11050  Biso   1.000  H
  H54      1.0000 0.27270  0.19230  0.01570  Biso   1.000  H
  C65      1.0000 0.22140  0.04840  0.02940  Biso   1.000  C
  C66      1.0000 0.16320  0.05310  0.97170  Biso   1.000  C
  H55      1.0000 0.16210  0.06480  0.91400  Biso   1.000  H
  C67      1.0000 0.10660  0.04040  0.99850  Biso   1.000  C
  H56      1.0000 0.06680  0.04360  0.95910  Biso   1.000  H
  N9       1.0000 0.10820  0.02320  0.08290  Biso   1.000  N
  C68      1.0000 0.16650  0.01860  0.14060  Biso   1.000  C
  H57      1.0000 0.16760  0.00680  0.19830  Biso   1.000  H
  C69      1.0000 0.22310  0.03120  0.11380  Biso   1.000  C
  H58      1.0000 0.26280  0.02800  0.15320  Biso   1.000  H
  Zn3      1.0000 0.45006  0.51033  0.76580  Biso   1.000  Zn
  Zn4      1.0000 0.52913  0.49027  0.63147  Biso   1.000  Zn
  O9       1.0000 0.50850  0.46010  0.84740  Biso   1.000  O
  O10      1.0000 0.56350  0.44530  0.74280  Biso   1.000  O
  O11      1.0000 0.90880  0.05870  0.20410  Biso   1.000  O
  O12      1.0000 0.96390  0.07280  0.09690  Biso   1.000  O
  O13      1.0000 0.50720  0.57740  0.79250  Biso   1.000  O
  O14      1.0000 0.56600  0.56400  0.69200  Biso   1.000  O
  O15      1.0000 0.91540  0.95000  0.14830  Biso   1.000  O
  O16      1.0000 0.96990  0.96270  0.04230  Biso   1.000  O
  N10      1.0000 0.72930  0.28940  0.02650  Biso   1.000  N
  N11      1.0000 0.76740  0.27060  0.00240  Biso   1.000  N
  N12      1.0000 0.70700  0.77530  0.89900  Biso   1.000  N
  N13      1.0000 0.76440  0.78130  0.86620  Biso   1.000  N
  C70      1.0000 0.55200  0.43970  0.81780  Biso   1.000  C
  C71      1.0000 0.59500  0.39710  0.87670  Biso   1.000  C
  C72      1.0000 0.59240  0.39040  0.96330  Biso   1.000  C
  H59      1.0000 0.56240  0.41120  0.98750  Biso   1.000  H
  C73      1.0000 0.63380  0.35300  0.01440  Biso   1.000  C
  H60      1.0000 0.63200  0.34840  0.07350  Biso   1.000  H
  C74      1.0000 0.67770  0.32250  0.97890  Biso   1.000  C
  C75      1.0000 0.68030  0.32930  0.89230  Biso   1.000  C
  H61      1.0000 0.71030  0.30840  0.86810  Biso   1.000  H
  C76      1.0000 0.63890  0.36660  0.84120  Biso   1.000  C
  H62      1.0000 0.64070  0.37120  0.78210  Biso   1.000  H
  C77      1.0000 0.80530  0.22770  0.04410  Biso   1.000  C
  C78      1.0000 0.78480  0.18870  0.09820  Biso   1.000  C
  H63      1.0000 0.74430  0.19310  0.11360  Biso   1.000  H
  C79      1.0000 0.82360  0.14330  0.12990  Biso   1.000  C
  H64      1.0000 0.80960  0.11670  0.16690  Biso   1.000  H
  C80      1.0000 0.88290  0.13690  0.10740  Biso   1.000  C
  C81      1.0000 0.90340  0.17590  0.05320  Biso   1.000  C
  H65      1.0000 0.94390  0.17150  0.03780  Biso   1.000  H
  C82      1.0000 0.86460  0.22120  0.02160  Biso   1.000  C
  H66      1.0000 0.87860  0.24790  0.98450  Biso   1.000  H
  C83      1.0000 0.92060  0.08690  0.14620  Biso   1.000  C
  C84      1.0000 0.55000  0.58780  0.76140  Biso   1.000  C
  C85      1.0000 0.59350  0.63890  0.78470  Biso   1.000  C
  C86      1.0000 0.57580  0.67340  0.84700  Biso   1.000  C
  H67      1.0000 0.53740  0.66610  0.86680  Biso   1.000  H
  C87      1.0000 0.61440  0.71850  0.88040  Biso   1.000  C
  H68      1.0000 0.60230  0.74210  0.92290  Biso   1.000  H
  C88      1.0000 0.67060  0.72920  0.85140  Biso   1.000  C
  C89      1.0000 0.68820  0.69480  0.78910  Biso   1.000  C
  H69      1.0000 0.72660  0.70210  0.76930  Biso   1.000  H
  C90      1.0000 0.64970  0.64960  0.75570  Biso   1.000  C
  H70      1.0000 0.66180  0.62600  0.71320  Biso   1.000  H
  C91      1.0000 0.79330  0.82700  0.92490  Biso   1.000  C
  C92      1.0000 0.78740  0.84050  0.00850  Biso   1.000  C
  H71      1.0000 0.75470  0.82350  0.03280  Biso   1.000  H
  C93      1.0000 0.82930  0.87870  0.05670  Biso   1.000  C
  H72      1.0000 0.82520  0.88790  0.11380  Biso   1.000  H
  C94      1.0000 0.87710  0.90360  0.02120  Biso   1.000  C
  C95      1.0000 0.88300  0.89020  0.93760  Biso   1.000  C
  H73      1.0000 0.91560  0.90710  0.91330  Biso   1.000  H
  C96      1.0000 0.84110  0.85190  0.88940  Biso   1.000  C
  H74      1.0000 0.84510  0.84270  0.83230  Biso   1.000  H
  C97      1.0000 0.92500  0.93960  0.07370  Biso   1.000  C
  N14      1.0000 0.37240  0.53020  0.81740  Biso   1.000  N
  C98      1.0000 0.31550  0.53170  0.75670  Biso   1.000  C
  H75      1.0000 0.31600  0.52750  0.69710  Biso   1.000  H
  C99      1.0000 0.25770  0.53920  0.78320  Biso   1.000  C
  H76      1.0000 0.21880  0.54020  0.74170  Biso   1.000  H
  C100     1.0000 0.25700  0.54530  0.87040  Biso   1.000  C
  C101     1.0000 0.31390  0.54380  0.93120  Biso   1.000  C
  H77      1.0000 0.31340  0.54800  0.99080  Biso   1.000  H
  C102     1.0000 0.37170  0.53630  0.90460  Biso   1.000  C
  H78      1.0000 0.41060  0.53540  0.94620  Biso   1.000  H
  C103     1.0000 0.19100  0.54460  0.89560  Biso   1.000  C
  C104     1.0000 0.15510  0.59380  0.88700  Biso   1.000  C
  C105     1.0000 0.09340  0.59340  0.90310  Biso   1.000  C
  H79      1.0000 0.06880  0.62700  0.89730  Biso   1.000  H
  C106     1.0000 0.06760  0.54380  0.92780  Biso   1.000  C
  C107     1.0000 0.10360  0.49460  0.93600  Biso   1.000  C
  H80      1.0000 0.08590  0.46060  0.95330  Biso   1.000  H
  C108     1.0000 0.16520  0.49500  0.92030  Biso   1.000  C
  C109     1.0000 0.18390  0.64840  0.86500  Biso   1.000  C
  H81      1.0000 0.15250  0.67870  0.86350  Biso   1.000  H
  H82      1.0000 0.22190  0.65680  0.90970  Biso   1.000  H
  H83      1.0000 0.19610  0.64510  0.80900  Biso   1.000  H
  C110     1.0000 0.19690  0.43830  0.92000  Biso   1.000  C
  H84      1.0000 0.16910  0.40920  0.93630  Biso   1.000  H
  H85      1.0000 0.20420  0.43040  0.86170  Biso   1.000  H
  H86      1.0000 0.23790  0.43850  0.96100  Biso   1.000  H
  N15      1.0000 0.49100  0.95790  0.45300  Biso   1.000  N
  H87      1.0000 0.47080  0.98830  0.46480  Biso   1.000  H
  C111     1.0000 0.47080  0.91070  0.45280  Biso   1.000  C
  H88      1.0000 0.49620  0.88780  0.49980  Biso   1.000  H
  H89      1.0000 0.47040  0.89190  0.39670  Biso   1.000  H
  C112     1.0000 0.40340  0.92090  0.46720  Biso   1.000  C
  C113     1.0000 0.37390  0.97310  0.45130  Biso   1.000  C
  H90      1.0000 0.39530  0.00300  0.42920  Biso   1.000  H
  C114     1.0000 0.31300  0.98140  0.46790  Biso   1.000  C
  C115     1.0000 0.28160  0.93760  0.50040  Biso   1.000  C
  C116     1.0000 0.31120  0.88550  0.51630  Biso   1.000  C
  C117     1.0000 0.37200  0.87710  0.49970  Biso   1.000  C
  H91      1.0000 0.39220  0.84150  0.51050  Biso   1.000  H
  C118     1.0000 0.27600  0.03430  0.43600  Biso   1.000  C
  H92      1.0000 0.30460  0.06020  0.41270  Biso   1.000  H
  H93      1.0000 0.26120  0.05240  0.48340  Biso   1.000  H
  H94      1.0000 0.23980  0.02460  0.38990  Biso   1.000  H
  C119     1.0000 0.27790  0.84050  0.55400  Biso   1.000  C
  H95      1.0000 0.23580  0.85400  0.56050  Biso   1.000  H
  H96      1.0000 0.30320  0.83000  0.61050  Biso   1.000  H
  H97      1.0000 0.27270  0.80770  0.51570  Biso   1.000  H
  C120     1.0000 0.22140  0.95160  0.52940  Biso   1.000  C
  C121     1.0000 0.16320  0.94690  0.47170  Biso   1.000  C
  H98      1.0000 0.16210  0.93520  0.41400  Biso   1.000  H
  C122     1.0000 0.10660  0.95960  0.49850  Biso   1.000  C
  H99      1.0000 0.06680  0.95640  0.45910  Biso   1.000  H
  N16      1.0000 0.10820  0.97680  0.58290  Biso   1.000  N
  C123     1.0000 0.16650  0.98140  0.64060  Biso   1.000  C
  H100     1.0000 0.16760  0.99320  0.69830  Biso   1.000  H
  C124     1.0000 0.22310  0.96880  0.61380  Biso   1.000  C
  H101     1.0000 0.26280  0.97200  0.65320  Biso   1.000  H
  Zn5      1.0000 0.45006  0.48967  0.26580  Biso   1.000  Zn
  Zn6      1.0000 0.52913  0.50973  0.13147  Biso   1.000  Zn
  O17      1.0000 0.50850  0.53990  0.34740  Biso   1.000  O
  O18      1.0000 0.56350  0.55470  0.24280  Biso   1.000  O
  O19      1.0000 0.90880  0.94130  0.70410  Biso   1.000  O
  O20      1.0000 0.96390  0.92720  0.59690  Biso   1.000  O
  O21      1.0000 0.50720  0.42260  0.29250  Biso   1.000  O
  O22      1.0000 0.56600  0.43600  0.19200  Biso   1.000  O
  O23      1.0000 0.91540  0.05000  0.64830  Biso   1.000  O
  O24      1.0000 0.96990  0.03730  0.54230  Biso   1.000  O
  N17      1.0000 0.72930  0.71060  0.52650  Biso   1.000  N
  N18      1.0000 0.76740  0.72940  0.50240  Biso   1.000  N
  N19      1.0000 0.70700  0.22470  0.39900  Biso   1.000  N
  N20      1.0000 0.76440  0.21870  0.36620  Biso   1.000  N
  C125     1.0000 0.55200  0.56030  0.31780  Biso   1.000  C
  C126     1.0000 0.59500  0.60290  0.37670  Biso   1.000  C
  C127     1.0000 0.59240  0.60960  0.46330  Biso   1.000  C
  H102     1.0000 0.56240  0.58880  0.48750  Biso   1.000  H
  C128     1.0000 0.63380  0.64700  0.51440  Biso   1.000  C
  H103     1.0000 0.63200  0.65160  0.57350  Biso   1.000  H
  C129     1.0000 0.67770  0.67750  0.47890  Biso   1.000  C
  C130     1.0000 0.68030  0.67070  0.39230  Biso   1.000  C
  H104     1.0000 0.71030  0.69160  0.36810  Biso   1.000  H
  C131     1.0000 0.63890  0.63340  0.34120  Biso   1.000  C
  H105     1.0000 0.64070  0.62880  0.28210  Biso   1.000  H
  C132     1.0000 0.80530  0.77230  0.54410  Biso   1.000  C
  C133     1.0000 0.78480  0.81130  0.59820  Biso   1.000  C
  H106     1.0000 0.74430  0.80690  0.61360  Biso   1.000  H
  C134     1.0000 0.82360  0.85670  0.62990  Biso   1.000  C
  H107     1.0000 0.80960  0.88330  0.66690  Biso   1.000  H
  C135     1.0000 0.88290  0.86310  0.60740  Biso   1.000  C
  C136     1.0000 0.90340  0.82410  0.55320  Biso   1.000  C
  H108     1.0000 0.94390  0.82850  0.53780  Biso   1.000  H
  C137     1.0000 0.86460  0.77880  0.52160  Biso   1.000  C
  H109     1.0000 0.87860  0.75210  0.48450  Biso   1.000  H
  C138     1.0000 0.92060  0.91310  0.64620  Biso   1.000  C
  C139     1.0000 0.55000  0.41220  0.26140  Biso   1.000  C
  C140     1.0000 0.59350  0.36110  0.28470  Biso   1.000  C
  C141     1.0000 0.57580  0.32660  0.34700  Biso   1.000  C
  H110     1.0000 0.53740  0.33390  0.36680  Biso   1.000  H
  C142     1.0000 0.61440  0.28150  0.38040  Biso   1.000  C
  H111     1.0000 0.60230  0.25790  0.42290  Biso   1.000  H
  C143     1.0000 0.67060  0.27080  0.35140  Biso   1.000  C
  C144     1.0000 0.68820  0.30520  0.28910  Biso   1.000  C
  H112     1.0000 0.72660  0.29790  0.26930  Biso   1.000  H
  C145     1.0000 0.64970  0.35040  0.25570  Biso   1.000  C
  H113     1.0000 0.66180  0.37400  0.21320  Biso   1.000  H
  C146     1.0000 0.79330  0.17300  0.42490  Biso   1.000  C
  C147     1.0000 0.78740  0.15950  0.50850  Biso   1.000  C
  H114     1.0000 0.75470  0.17650  0.53280  Biso   1.000  H
  C148     1.0000 0.82930  0.12130  0.55670  Biso   1.000  C
  H115     1.0000 0.82520  0.11210  0.61380  Biso   1.000  H
  C149     1.0000 0.87710  0.09640  0.52120  Biso   1.000  C
  C150     1.0000 0.88300  0.10980  0.43760  Biso   1.000  C
  H116     1.0000 0.91560  0.09290  0.41330  Biso   1.000  H
  C151     1.0000 0.84110  0.14810  0.38940  Biso   1.000  C
  H117     1.0000 0.84510  0.15730  0.33230  Biso   1.000  H
  C152     1.0000 0.92500  0.06040  0.57370  Biso   1.000  C
  N21      1.0000 0.37240  0.46980  0.31740  Biso   1.000  N
  C153     1.0000 0.31550  0.46830  0.25670  Biso   1.000  C
  H118     1.0000 0.31600  0.47250  0.19710  Biso   1.000  H
  C154     1.0000 0.25770  0.46080  0.28320  Biso   1.000  C
  H119     1.0000 0.21880  0.45980  0.24170  Biso   1.000  H
  C155     1.0000 0.25700  0.45470  0.37040  Biso   1.000  C
  C156     1.0000 0.31390  0.45620  0.43120  Biso   1.000  C
  H120     1.0000 0.31340  0.45200  0.49080  Biso   1.000  H
  C157     1.0000 0.37170  0.46370  0.40460  Biso   1.000  C
  H121     1.0000 0.41060  0.46460  0.44620  Biso   1.000  H
  C158     1.0000 0.19100  0.45540  0.39560  Biso   1.000  C
  C159     1.0000 0.15510  0.40620  0.38700  Biso   1.000  C
  C160     1.0000 0.09340  0.40660  0.40310  Biso   1.000  C
  H122     1.0000 0.06880  0.37300  0.39730  Biso   1.000  H
  C161     1.0000 0.06760  0.45620  0.42780  Biso   1.000  C
  C162     1.0000 0.10360  0.50540  0.43600  Biso   1.000  C
  H123     1.0000 0.08590  0.53940  0.45330  Biso   1.000  H
  C163     1.0000 0.16520  0.50500  0.42030  Biso   1.000  C
  C164     1.0000 0.18390  0.35160  0.36500  Biso   1.000  C
  H124     1.0000 0.15250  0.32130  0.36350  Biso   1.000  H
  H125     1.0000 0.22190  0.34320  0.40970  Biso   1.000  H
  H126     1.0000 0.19610  0.35490  0.30900  Biso   1.000  H
  C165     1.0000 0.19690  0.56170  0.42000  Biso   1.000  C
  H127     1.0000 0.16910  0.59080  0.43630  Biso   1.000  H
  H128     1.0000 0.20420  0.56960  0.36170  Biso   1.000  H
  H129     1.0000 0.23790  0.56150  0.46100  Biso   1.000  H
  Zn7      1.0000 0.95006  0.01033  0.76580  Biso   1.000  Zn
  Zn8      1.0000 0.02913  0.99027  0.63147  Biso   1.000  Zn
  O25      1.0000 0.00850  0.96010  0.84740  Biso   1.000  O
  O26      1.0000 0.06350  0.94530  0.74280  Biso   1.000  O
  O27      1.0000 0.40880  0.55870  0.20410  Biso   1.000  O
  O28      1.0000 0.46390  0.57280  0.09690  Biso   1.000  O
  O29      1.0000 0.00720  0.07740  0.79250  Biso   1.000  O
  O30      1.0000 0.06600  0.06400  0.69200  Biso   1.000  O
  O31      1.0000 0.41540  0.45000  0.14830  Biso   1.000  O
  O32      1.0000 0.46990  0.46270  0.04230  Biso   1.000  O
  N22      1.0000 0.22930  0.78940  0.02650  Biso   1.000  N
  N23      1.0000 0.26740  0.77060  0.00240  Biso   1.000  N
  N24      1.0000 0.20700  0.27530  0.89900  Biso   1.000  N
  N25      1.0000 0.26440  0.28130  0.86620  Biso   1.000  N
  C166     1.0000 0.05200  0.93970  0.81780  Biso   1.000  C
  C167     1.0000 0.09500  0.89710  0.87670  Biso   1.000  C
  C168     1.0000 0.09240  0.89040  0.96330  Biso   1.000  C
  H130     1.0000 0.06240  0.91120  0.98750  Biso   1.000  H
  C169     1.0000 0.13380  0.85300  0.01440  Biso   1.000  C
  H131     1.0000 0.13200  0.84840  0.07350  Biso   1.000  H
  C170     1.0000 0.17770  0.82250  0.97890  Biso   1.000  C
  C171     1.0000 0.18030  0.82930  0.89230  Biso   1.000  C
  H132     1.0000 0.21030  0.80840  0.86810  Biso   1.000  H
  C172     1.0000 0.13890  0.86660  0.84120  Biso   1.000  C
  H133     1.0000 0.14070  0.87120  0.78210  Biso   1.000  H
  C173     1.0000 0.30530  0.72770  0.04410  Biso   1.000  C
  C174     1.0000 0.28480  0.68870  0.09820  Biso   1.000  C
  H134     1.0000 0.24430  0.69310  0.11360  Biso   1.000  H
  C175     1.0000 0.32360  0.64330  0.12990  Biso   1.000  C
  H135     1.0000 0.30960  0.61670  0.16690  Biso   1.000  H
  C176     1.0000 0.38290  0.63690  0.10740  Biso   1.000  C
  C177     1.0000 0.40340  0.67590  0.05320  Biso   1.000  C
  H136     1.0000 0.44390  0.67150  0.03780  Biso   1.000  H
  C178     1.0000 0.36460  0.72120  0.02160  Biso   1.000  C
  H137     1.0000 0.37860  0.74790  0.98450  Biso   1.000  H
  C179     1.0000 0.42060  0.58690  0.14620  Biso   1.000  C
  C180     1.0000 0.05000  0.08780  0.76140  Biso   1.000  C
  C181     1.0000 0.09350  0.13890  0.78470  Biso   1.000  C
  C182     1.0000 0.07580  0.17340  0.84700  Biso   1.000  C
  H138     1.0000 0.03740  0.16610  0.86680  Biso   1.000  H
  C183     1.0000 0.11440  0.21850  0.88040  Biso   1.000  C
  H139     1.0000 0.10230  0.24210  0.92290  Biso   1.000  H
  C184     1.0000 0.17060  0.22920  0.85140  Biso   1.000  C
  C185     1.0000 0.18820  0.19480  0.78910  Biso   1.000  C
  H140     1.0000 0.22660  0.20210  0.76930  Biso   1.000  H
  C186     1.0000 0.14970  0.14960  0.75570  Biso   1.000  C
  H141     1.0000 0.16180  0.12600  0.71320  Biso   1.000  H
  C187     1.0000 0.29330  0.32700  0.92490  Biso   1.000  C
  C188     1.0000 0.28740  0.34050  0.00850  Biso   1.000  C
  H142     1.0000 0.25470  0.32350  0.03280  Biso   1.000  H
  C189     1.0000 0.32930  0.37870  0.05670  Biso   1.000  C
  H143     1.0000 0.32520  0.38790  0.11380  Biso   1.000  H
  C190     1.0000 0.37710  0.40360  0.02120  Biso   1.000  C
  C191     1.0000 0.38300  0.39020  0.93760  Biso   1.000  C
  H144     1.0000 0.41560  0.40710  0.91330  Biso   1.000  H
  C192     1.0000 0.34110  0.35190  0.88940  Biso   1.000  C
  H145     1.0000 0.34510  0.34270  0.83230  Biso   1.000  H
  C193     1.0000 0.42500  0.43960  0.07370  Biso   1.000  C
  N26      1.0000 0.87240  0.03020  0.81740  Biso   1.000  N
  C194     1.0000 0.81550  0.03170  0.75670  Biso   1.000  C
  H146     1.0000 0.81600  0.02750  0.69710  Biso   1.000  H
  C195     1.0000 0.75770  0.03920  0.78320  Biso   1.000  C
  H147     1.0000 0.71880  0.04020  0.74170  Biso   1.000  H
  C196     1.0000 0.75700  0.04530  0.87040  Biso   1.000  C
  C197     1.0000 0.81390  0.04380  0.93120  Biso   1.000  C
  H148     1.0000 0.81340  0.04800  0.99080  Biso   1.000  H
  C198     1.0000 0.87170  0.03630  0.90460  Biso   1.000  C
  H149     1.0000 0.91060  0.03540  0.94620  Biso   1.000  H
  C199     1.0000 0.69100  0.04460  0.89560  Biso   1.000  C
  C200     1.0000 0.65510  0.09380  0.88700  Biso   1.000  C
  C201     1.0000 0.59340  0.09340  0.90310  Biso   1.000  C
  H150     1.0000 0.56880  0.12700  0.89730  Biso   1.000  H
  C202     1.0000 0.56760  0.04380  0.92780  Biso   1.000  C
  C203     1.0000 0.60360  0.99460  0.93600  Biso   1.000  C
  H151     1.0000 0.58590  0.96060  0.95330  Biso   1.000  H
  C204     1.0000 0.66520  0.99500  0.92030  Biso   1.000  C
  C205     1.0000 0.68390  0.14840  0.86500  Biso   1.000  C
  H152     1.0000 0.65250  0.17870  0.86350  Biso   1.000  H
  H153     1.0000 0.72190  0.15680  0.90970  Biso   1.000  H
  H154     1.0000 0.69610  0.14510  0.80900  Biso   1.000  H
  C206     1.0000 0.69690  0.93830  0.92000  Biso   1.000  C
  H155     1.0000 0.66910  0.90920  0.93630  Biso   1.000  H
  H156     1.0000 0.70420  0.93040  0.86170  Biso   1.000  H
  H157     1.0000 0.73790  0.93850  0.96100  Biso   1.000  H
  N27      1.0000 0.99100  0.54210  0.95300  Biso   1.000  N
  H158     1.0000 0.97080  0.51170  0.96480  Biso   1.000  H
  C207     1.0000 0.97080  0.58930  0.95280  Biso   1.000  C
  H159     1.0000 0.99620  0.61220  0.99980  Biso   1.000  H
  H160     1.0000 0.97040  0.60810  0.89670  Biso   1.000  H
  C208     1.0000 0.90340  0.57910  0.96720  Biso   1.000  C
  C209     1.0000 0.87390  0.52690  0.95130  Biso   1.000  C
  H161     1.0000 0.89530  0.49700  0.92920  Biso   1.000  H
  C210     1.0000 0.81300  0.51860  0.96790  Biso   1.000  C
  C211     1.0000 0.78160  0.56240  0.00040  Biso   1.000  C
  C212     1.0000 0.81120  0.61450  0.01630  Biso   1.000  C
  C213     1.0000 0.87200  0.62290  0.99970  Biso   1.000  C
  H162     1.0000 0.89220  0.65850  0.01050  Biso   1.000  H
  C214     1.0000 0.77600  0.46570  0.93600  Biso   1.000  C
  H163     1.0000 0.80460  0.43980  0.91270  Biso   1.000  H
  H164     1.0000 0.76120  0.44760  0.98340  Biso   1.000  H
  H165     1.0000 0.73980  0.47540  0.88990  Biso   1.000  H
  C215     1.0000 0.77790  0.65950  0.05400  Biso   1.000  C
  H166     1.0000 0.73580  0.64600  0.06050  Biso   1.000  H
  H167     1.0000 0.80320  0.67000  0.11050  Biso   1.000  H
  H168     1.0000 0.77270  0.69230  0.01570  Biso   1.000  H
  C216     1.0000 0.72140  0.54840  0.02940  Biso   1.000  C
  C217     1.0000 0.66320  0.55310  0.97170  Biso   1.000  C
  H169     1.0000 0.66210  0.56480  0.91400  Biso   1.000  H
  C218     1.0000 0.60660  0.54040  0.99850  Biso   1.000  C
  H170     1.0000 0.56680  0.54360  0.95910  Biso   1.000  H
  N28      1.0000 0.60820  0.52320  0.08290  Biso   1.000  N
  C219     1.0000 0.66650  0.51860  0.14060  Biso   1.000  C
  H171     1.0000 0.66760  0.50680  0.19830  Biso   1.000  H
  C220     1.0000 0.72310  0.53120  0.11380  Biso   1.000  C
  H172     1.0000 0.76280  0.52800  0.15320  Biso   1.000  H
