data_HOJLID_clean
_audit_creation_date              2015-10-16
_audit_creation_method            'Materials Studio'
_symmetry_space_group_name_H-M    'P1'
_symmetry_Int_Tables_number       1
_symmetry_cell_setting            triclinic
loop_
_symmetry_equiv_pos_as_xyz
  x,y,z
_cell_length_a                    15.1820
_cell_length_b                    15.1820
_cell_length_c                    48.4200
_cell_angle_alpha                 94.3331
_cell_angle_beta                  94.3331
_cell_angle_gamma                 98.2530
loop_
_atom_site_label
_atom_site_type_symbol
_atom_site_fract_x
_atom_site_fract_y
_atom_site_fract_z
_atom_site_U_iso_or_equiv
_atom_site_adp_type
_atom_site_occupancy
Zn1    Zn    0.62505   0.85409   0.38309   0.01267  Uiso   1.00
Zn2    Zn    0.75184   0.71934   0.82323   0.01267  Uiso   1.00
Zn3    Zn    0.76839   0.73517   0.88379   0.01267  Uiso   1.00
Zn4    Zn    0.60803   0.83751   0.32267   0.01267  Uiso   1.00
H1     H     0.82880   0.72000   0.22830   0.01267  Uiso   1.00
H2     H     0.73230   0.61310   0.66670   0.01267  Uiso   1.00
H3     H     0.71370   0.97870   0.43260   0.01267  Uiso   1.00
H4     H     0.57560   0.67560   0.73110   0.01267  Uiso   1.00
H5     H     0.84560   0.80720   0.77810   0.01267  Uiso   1.00
H6     H     0.61780   0.82060   0.99860   0.01267  Uiso   1.00
H7     H     0.55090   0.75550   0.47630   0.01267  Uiso   1.00
H8     H     0.58310   0.71890   0.13440   0.01267  Uiso   1.00
H9     H     0.81710   0.64650   0.06940   0.01267  Uiso   1.00
H10    H     0.16730   0.83410   0.31020   0.01267  Uiso   1.00
H11    H     0.73830   0.17210   0.89330   0.01267  Uiso   1.00
H12    H     0.69630   0.61190   0.69620   0.01267  Uiso   1.00
H13    H     0.73660   0.27140   0.81170   0.01267  Uiso   1.00
H14    H     0.72250   0.98470   0.48080   0.01267  Uiso   1.00
H15    H     0.62390   0.94830   0.66540   0.01267  Uiso   1.00
H16    H     0.63090   0.58050   0.66960   0.01267  Uiso   1.00
H17    H     0.48310   0.69950   0.89430   0.01267  Uiso   1.00
H18    H     0.02860   0.69540   0.81250   0.01267  Uiso   1.00
H19    H     0.79970   0.31350   0.89420   0.01267  Uiso   1.00
H20    H     0.77290   0.80490   0.56280   0.01267  Uiso   1.00
H21    H     0.54710   0.97950   0.49890   0.01267  Uiso   1.00
H22    H     0.71720   0.81460   0.10530   0.01267  Uiso   1.00
H23    H     0.60360   0.39400   0.31080   0.01267  Uiso   1.00
H24    H     0.19450   0.86930   0.39360   0.01267  Uiso   1.00
H25    H     0.55260   0.80920   0.60770   0.01267  Uiso   1.00
H26    H     0.49120   0.71980   0.19310   0.01267  Uiso   1.00
H27    H     0.64030   0.76750   0.60650   0.01267  Uiso   1.00
H28    H     0.68100   0.62400   0.97350   0.01267  Uiso   1.00
H29    H     0.60930   0.64830   0.77690   0.01267  Uiso   1.00
H30    H     0.70210   0.89110   0.99590   0.01267  Uiso   1.00
H31    H     0.85490   0.85230   0.98230   0.01267  Uiso   1.00
H32    H     0.84130   0.72410   0.16090   0.01267  Uiso   1.00
H33    H     0.48040   0.75100   0.16310   0.01267  Uiso   1.00
H34    H     0.85590   0.56730   0.02700   0.01267  Uiso   1.00
H35    H     0.65500   0.92440   0.60970   0.01267  Uiso   1.00
H36    H     0.63950   0.69950   0.63350   0.01267  Uiso   1.00
H37    H     0.34530   0.85870   0.39340   0.01267  Uiso   1.00
H38    H     0.75950   0.75570   0.49430   0.01267  Uiso   1.00
H39    H     0.68620   0.91280   0.22770   0.01267  Uiso   1.00
H40    H     0.54990   0.91710   0.56800   0.01267  Uiso   1.00
H41    H     0.72630   0.42190   0.80980   0.01267  Uiso   1.00
H42    H     0.64240   0.90380   0.02050   0.01267  Uiso   1.00
H43    H     0.82370   0.70030   0.12000   0.01267  Uiso   1.00
H44    H     0.65670   0.94250   0.27350   0.01267  Uiso   1.00
H45    H     0.78500   0.57220   0.00220   0.01267  Uiso   1.00
H46    H     0.59020   0.67940   0.28010   0.01267  Uiso   1.00
H47    H     0.89510   0.75690   0.20720   0.01267  Uiso   1.00
H48    H     0.63440   0.42020   0.39430   0.01267  Uiso   1.00
H49    H     0.59780   0.91360   0.72830   0.01267  Uiso   1.00
H50    H     0.81180   0.83440   0.73230   0.01267  Uiso   1.00
H51    H     0.82700   0.76980   0.52100   0.01267  Uiso   1.00
H52    H     0.68450   0.61990   0.92560   0.01267  Uiso   1.00
H53    H     0.62520   0.13780   0.39350   0.01267  Uiso   1.00
H54    H     0.47260   0.95500   0.51890   0.01267  Uiso   1.00
H55    H     0.73470   0.63810   0.10760   0.01267  Uiso   1.00
H56    H     0.85840   0.84820   0.93450   0.01267  Uiso   1.00
H57    H     0.54210   0.74950   0.42810   0.01267  Uiso   1.00
H58    H     0.51750   0.82070   0.18830   0.01267  Uiso   1.00
H59    H     0.55500   0.02800   0.52890   0.01267  Uiso   1.00
H60    H     0.70000   0.94980   0.72890   0.01267  Uiso   1.00
H61    H     0.31880   0.74300   0.81310   0.01267  Uiso   1.00
H62    H     0.62700   0.11700   0.31030   0.01267  Uiso   1.00
H63    H     0.06200   0.86640   0.39600   0.01267  Uiso   1.00
H64    H     0.31820   0.82340   0.30990   0.01267  Uiso   1.00
H65    H     0.62870   0.57210   0.39410   0.01267  Uiso   1.00
H66    H     0.68740   0.85800   0.06320   0.01267  Uiso   1.00
H67    H     0.33100   0.70400   0.89430   0.01267  Uiso   1.00
H68    H     0.63080   0.98860   0.70930   0.01267  Uiso   1.00
H69    H     0.73860   0.01960   0.89440   0.01267  Uiso   1.00
H70    H     0.47100   0.73840   0.81310   0.01267  Uiso   1.00
H71    H     0.88510   0.85990   0.31320   0.01267  Uiso   1.00
H72    H     0.18060   0.69060   0.81280   0.01267  Uiso   1.00
H73    H     0.88020   0.62880   0.00330   0.01267  Uiso   1.00
H74    H     0.84380   0.82220   0.22410   0.01267  Uiso   1.00
H75    H     0.62120   0.29000   0.39320   0.01267  Uiso   1.00
H76    H     0.80570   0.00450   0.81570   0.01267  Uiso   1.00
H77    H     0.20990   0.75530   0.89530   0.01267  Uiso   1.00
H78    H     0.03760   0.85860   0.31260   0.01267  Uiso   1.00
H79    H     0.78950   0.46390   0.89230   0.01267  Uiso   1.00
H80    H     0.62310   0.26910   0.31000   0.01267  Uiso   1.00
H81    H     0.05770   0.76010   0.89510   0.01267  Uiso   1.00
H82    H     0.80540   0.15680   0.81450   0.01267  Uiso   1.00
H83    H     0.82330   0.84670   0.50130   0.01267  Uiso   1.00
H84    H     0.61970   0.64970   0.23430   0.01267  Uiso   1.00
H85    H     0.90950   0.86790   0.39660   0.01267  Uiso   1.00
H86    H     0.59790   0.54590   0.31050   0.01267  Uiso   1.00
C1     C     0.35910   0.71090   0.87805   0.01267  Uiso   1.00
C2     C     0.62590   0.15170   0.32694   0.01267  Uiso   1.00
C3     C     0.82288   0.80328   0.94228   0.01267  Uiso   1.00
C4     C     0.69030   0.75770   0.72719   0.01267  Uiso   1.00
C5     C     0.01190   0.86050   0.32940   0.01267  Uiso   1.00
C6     C     0.62720   0.70840   0.24213   0.01267  Uiso   1.00
C7     C     0.75100   0.75320   0.07102   0.01267  Uiso   1.00
C8     C     0.64310   0.74110   0.64883   0.01267  Uiso   1.00
C9     C     0.53550   0.97250   0.51780   0.01267  Uiso   1.00
C10    C     0.84000   0.76320   0.21500   0.01267  Uiso   1.00
C11    C     0.80040   0.68180   0.03008   0.01267  Uiso   1.00
C12    C     0.67650   0.75550   0.19762   0.01267  Uiso   1.00
C13    C     0.62340   0.24280   0.32675   0.01267  Uiso   1.00
C14    C     0.60940   0.72620   0.26958   0.01267  Uiso   1.00
C15    C     0.58960   0.72060   0.85440   0.01267  Uiso   1.00
C16    C     0.74106   0.40014   0.82668   0.01267  Uiso   1.00
C17    C     0.78390   0.85810   0.35713   0.01267  Uiso   1.00
C18    C     0.75190   0.13850   0.87771   0.01267  Uiso   1.00
C19    C     0.79220   0.03800   0.83122   0.01267  Uiso   1.00
C20    C     0.66600   0.86080   0.00870   0.01267  Uiso   1.00
C21    C     0.77182   0.17958   0.85379   0.01267  Uiso   1.00
C22    C     0.71540   0.71840   0.14314   0.01267  Uiso   1.00
C23    C     0.64920   0.86980   0.51288   0.01267  Uiso   1.00
C24    C     0.76510   0.74250   0.01398   0.01267  Uiso   1.00
C25    C     0.60900   0.67540   0.35284   0.01267  Uiso   1.00
C26    C     0.59240   0.89620   0.55740   0.01267  Uiso   1.00
C27    C     0.57820   0.79660   0.43866   0.01267  Uiso   1.00
C28    C     0.63760   0.87080   0.48330   0.01267  Uiso   1.00
C29    C     0.62840   0.72620   0.14885   0.01267  Uiso   1.00
C30    C     0.71868   0.66648   0.93697   0.01267  Uiso   1.00
C31    C     0.62840   0.82800   0.64509   0.01267  Uiso   1.00
C32    C     0.78310   0.72930   0.16467   0.01267  Uiso   1.00
C33    C     0.17350   0.74330   0.87872   0.01267  Uiso   1.00
C34    C     0.75960   0.69700   0.11629   0.01267  Uiso   1.00
C35    C     0.65590   0.77830   0.22644   0.01267  Uiso   1.00
C36    C     0.65390   0.86590   0.69451   0.01267  Uiso   1.00
C37    C     0.49211   0.71849   0.85370   0.01267  Uiso   1.00
C38    C     0.78502   0.33518   0.87728   0.01267  Uiso   1.00
C39    C     0.44510   0.83890   0.35153   0.01267  Uiso   1.00
C40    C     0.51630   0.76050   0.18055   0.01267  Uiso   1.00
C41    C     0.02804   0.72816   0.85379   0.01267  Uiso   1.00
C42    C     0.60530   0.52070   0.32733   0.01267  Uiso   1.00
C43    C     0.77226   0.99694   0.85515   0.01267  Uiso   1.00
C44    C     0.61280   0.57400   0.35227   0.01267  Uiso   1.00
C45    C     0.71654   0.66894   0.96566   0.01267  Uiso   1.00
C46    C     0.35180   0.73420   0.82935   0.01267  Uiso   1.00
C47    C     0.45020   0.70820   0.87805   0.01267  Uiso   1.00
C48    C     0.61640   0.82060   0.61290   0.01267  Uiso   1.00
C49    C     0.74720   0.31000   0.82785   0.01267  Uiso   1.00
C50    C     0.75689   0.45777   0.85082   0.01267  Uiso   1.00
C51    C     0.77070   0.89990   0.85628   0.01267  Uiso   1.00
C52    C     0.79340   0.68720   0.05860   0.01267  Uiso   1.00
C53    C     0.79141   0.78081   0.76872   0.01267  Uiso   1.00
C54    C     0.75200   0.04720   0.87840   0.01267  Uiso   1.00
C55    C     0.02650   0.86510   0.37936   0.01267  Uiso   1.00
C56    C     0.66260   0.86020   0.57010   0.01267  Uiso   1.00
C57    C     0.62710   0.44550   0.37752   0.01267  Uiso   1.00
C58    C     0.20300   0.83900   0.32685   0.01267  Uiso   1.00
C59    C     0.29340   0.83260   0.32671   0.01267  Uiso   1.00
C60    C     0.79200   0.12940   0.83054   0.01267  Uiso   1.00
C61    C     0.62970   0.70190   0.74055   0.01267  Uiso   1.00
C62    C     0.63370   0.89030   0.66793   0.01267  Uiso   1.00
C63    C     0.08240   0.74620   0.87859   0.01267  Uiso   1.00
C64    C     0.62180   0.29460   0.35157   0.01267  Uiso   1.00
C65    C     0.68640   0.93760   0.47022   0.01267  Uiso   1.00
C66    C     0.83340   0.60560   0.01420   0.01267  Uiso   1.00
C67    C     0.66700   0.86600   0.23820   0.01267  Uiso   1.00
C68    C     0.76360   0.74780   0.19191   0.01267  Uiso   1.00
C69    C     0.66320   0.71680   0.67541   0.01267  Uiso   1.00
C70    C     0.21930   0.86010   0.37685   0.01267  Uiso   1.00
C71    C     0.68250   0.62190   0.67710   0.01267  Uiso   1.00
C72    C     0.64985   0.68565   0.76800   0.01267  Uiso   1.00
C73    C     0.71570   0.81390   0.05492   0.01267  Uiso   1.00
C74    C     0.16590   0.85270   0.35192   0.01267  Uiso   1.00
C75    C     0.21033   0.72247   0.85407   0.01267  Uiso   1.00
C76    C     0.77886   0.42528   0.87612   0.01267  Uiso   1.00
C77    C     0.76760   0.73860   0.98266   0.01267  Uiso   1.00
C78    C     0.77130   0.79710   0.74127   0.01267  Uiso   1.00
C79    C     0.88220   0.86400   0.35492   0.01267  Uiso   1.00
C80    C     0.78850   0.79830   0.50900   0.01267  Uiso   1.00
C81    C     0.06490   0.86230   0.35420   0.01267  Uiso   1.00
C82    C     0.62230   0.25530   0.37658   0.01267  Uiso   1.00
C83    C     0.58350   0.80030   0.46751   0.01267  Uiso   1.00
C84    C     0.75120   0.56040   0.85096   0.01267  Uiso   1.00
C85    C     0.58570   0.90090   0.52880   0.01267  Uiso   1.00
C86    C     0.44290   0.73150   0.82935   0.01267  Uiso   1.00
C87    C     0.62480   0.16420   0.37677   0.01267  Uiso   1.00
C88    C     0.72270   0.80850   0.02640   0.01267  Uiso   1.00
C89    C     0.30985   0.72395   0.85370   0.01267  Uiso   1.00
C90    C     0.92060   0.86120   0.32975   0.01267  Uiso   1.00
C91    C     0.62960   0.01640   0.35261   0.01267  Uiso   1.00
C92    C     0.61960   0.39200   0.35257   0.01267  Uiso   1.00
C93    C     0.64930   0.88390   0.26565   0.01267  Uiso   1.00
C94    C     0.60870   0.42970   0.32748   0.01267  Uiso   1.00
C95    C     0.60890   0.74470   0.17608   0.01267  Uiso   1.00
C96    C     0.34680   0.84000   0.35165   0.01267  Uiso   1.00
C97    C     0.93040   0.73180   0.85188   0.01267  Uiso   1.00
C98    C     0.62650   0.11230   0.35195   0.01267  Uiso   1.00
C99    C     0.30970   0.85370   0.37672   0.01267  Uiso   1.00
C100   C     0.64480   0.93580   0.71730   0.01267  Uiso   1.00
C101   C     0.15600   0.70460   0.82927   0.01267  Uiso   1.00
C102   C     0.68110   0.93390   0.44136   0.01267  Uiso   1.00
C103   C     0.93520   0.86600   0.37972   0.01267  Uiso   1.00
C104   C     0.71940   0.83380   0.52560   0.01267  Uiso   1.00
C105   C     0.76913   0.27747   0.85315   0.01267  Uiso   1.00
C106   C     0.66850   0.77910   0.69825   0.01267  Uiso   1.00
C107   C     0.72600   0.82900   0.55420   0.01267  Uiso   1.00
C108   C     0.06490   0.70730   0.82913   0.01267  Uiso   1.00
C109   C     0.62370   0.53630   0.37737   0.01267  Uiso   1.00
C110   C     0.82074   0.80574   0.97097   0.01267  Uiso   1.00
N1     N     0.62050   0.81390   0.28134   0.01267  Uiso   1.00
N2     N     0.62710   0.86350   0.42558   0.01267  Uiso   1.00
N3     N     0.77183   0.73367   0.92527   0.01267  Uiso   1.00
N4     N     0.73720   0.76780   0.09876   0.01267  Uiso   1.00
N5     N     0.64290   0.87150   0.60140   0.01267  Uiso   1.00
N6     N     0.73076   0.72504   0.78209   0.01267  Uiso   1.00
O1     O     0.73430   0.58690   0.82771   0.01267  Uiso   1.00
O2     O     0.77710   0.85330   0.83372   0.01267  Uiso   1.00
O3     O     0.60920   0.96860   0.32932   0.01267  Uiso   1.00
O4     O     0.76400   0.60040   0.87400   0.01267  Uiso   1.00
O5     O     0.59940   0.70640   0.32901   0.01267  Uiso   1.00
O6     O     0.74090   0.85210   0.33409   0.01267  Uiso   1.00
O7     O     0.75770   0.86190   0.37924   0.01267  Uiso   1.00
O8     O     0.62494   0.72146   0.83127   0.01267  Uiso   1.00
O9     O     0.60820   0.72020   0.37598   0.01267  Uiso   1.00
O10    O     0.47560   0.82700   0.32712   0.01267  Uiso   1.00
O11    O     0.63200   0.71740   0.87770   0.01267  Uiso   1.00
O12    O     0.63620   0.98240   0.37407   0.01267  Uiso   1.00
O13    O     0.88530   0.72130   0.82998   0.01267  Uiso   1.00
O14    O     0.89940   0.74940   0.87691   0.01267  Uiso   1.00
O15    O     0.76420   0.86400   0.87876   0.01267  Uiso   1.00
O16    O     0.49200   0.84560   0.37371   0.01267  Uiso   1.00
Zn5    Zn    0.26483   0.23161   0.11621   0.01267  Uiso   1.00
Zn6    Zn    0.16249   0.39197   0.67733   0.01267  Uiso   1.00
Zn7    Zn    0.14591   0.37495   0.61691   0.01267  Uiso   1.00
Zn8    Zn    0.28066   0.24816   0.17677   0.01267  Uiso   1.00
H87    H     0.23020   0.17300   0.47900   0.01267  Uiso   1.00
H88    H     0.16560   0.18820   0.26770   0.01267  Uiso   1.00
H89    H     0.14010   0.11490   0.68680   0.01267  Uiso   1.00
H90    H     0.37120   0.11980   0.99670   0.01267  Uiso   1.00
H91    H     0.23990   0.94230   0.10490   0.01267  Uiso   1.00
H92    H     0.35350   0.18290   0.93060   0.01267  Uiso   1.00
H93    H     0.30050   0.51690   0.10570   0.01267  Uiso   1.00
H94    H     0.02050   0.45290   0.50110   0.01267  Uiso   1.00
H95    H     0.27590   0.15870   0.83910   0.01267  Uiso   1.00
H96    H     0.18540   0.28280   0.89470   0.01267  Uiso   1.00
H97    H     0.09620   0.35760   0.97950   0.01267  Uiso   1.00
H98    H     0.71000   0.37880   0.60680   0.01267  Uiso   1.00
H99    H     0.17660   0.68180   0.69010   0.01267  Uiso   1.00
H100   H     0.28020   0.50880   0.80690   0.01267  Uiso   1.00
H101   H     0.01140   0.36920   0.29070   0.01267  Uiso   1.00
H102   H     0.05020   0.30000   0.27110   0.01267  Uiso   1.00
H103   H     0.42780   0.21500   0.99780   0.01267  Uiso   1.00
H104   H     0.36190   0.26530   0.89240   0.01267  Uiso   1.00
H105   H     0.24900   0.51960   0.83690   0.01267  Uiso   1.00
H106   H     0.25050   0.45790   0.57190   0.01267  Uiso   1.00
H107   H     0.16590   0.83270   0.68980   0.01267  Uiso   1.00
H108   H     0.19080   0.44740   0.39230   0.01267  Uiso   1.00
H109   H     0.32440   0.42440   0.26890   0.01267  Uiso   1.00
H110   H     0.25700   0.68120   0.18690   0.01267  Uiso   1.00
H111   H     0.35030   0.38030   0.76570   0.01267  Uiso   1.00
H112   H     0.32060   0.40980   0.71990   0.01267  Uiso   1.00
H113   H     0.72860   0.26340   0.18830   0.01267  Uiso   1.00
H114   H     0.38690   0.26770   0.33330   0.01267  Uiso   1.00
H115   H     0.08290   0.45010   0.43200   0.01267  Uiso   1.00
H116   H     0.68650   0.20030   0.10580   0.01267  Uiso   1.00
H117   H     0.42790   0.37130   0.60590   0.01267  Uiso   1.00
H118   H     0.73090   0.37690   0.69000   0.01267  Uiso   1.00
H119   H     0.14140   0.96240   0.68740   0.01267  Uiso   1.00
H120   H     0.14770   0.14510   0.01770   0.01267  Uiso   1.00
H121   H     0.28000   0.17120   0.77170   0.01267  Uiso   1.00
H122   H     0.08720   0.31380   0.77230   0.01267  Uiso   1.00
H123   H     0.88300   0.37300   0.68970   0.01267  Uiso   1.00
H124   H     0.98040   0.26140   0.10560   0.01267  Uiso   1.00
H125   H     0.84320   0.19460   0.18550   0.01267  Uiso   1.00
H126   H     0.10890   0.29790   0.00410   0.01267  Uiso   1.00
H127   H     0.53610   0.21050   0.10770   0.01267  Uiso   1.00
H128   H     0.17940   0.38220   0.00140   0.01267  Uiso   1.00
H129   H     0.82790   0.26170   0.10670   0.01267  Uiso   1.00
H130   H     0.41950   0.36910   0.33040   0.01267  Uiso   1.00
H131   H     0.23250   0.35970   0.39350   0.01267  Uiso   1.00
H132   H     0.01530   0.27750   0.51920   0.01267  Uiso   1.00
H133   H     0.38010   0.31550   0.07440   0.01267  Uiso   1.00
H134   H     0.28110   0.41690   0.86560   0.01267  Uiso   1.00
H135   H     0.37600   0.31900   0.02650   0.01267  Uiso   1.00
H136   H     0.19510   0.22710   0.43720   0.01267  Uiso   1.00
H137   H     0.13070   0.80550   0.60640   0.01267  Uiso   1.00
H138   H     0.86220   0.37480   0.60650   0.01267  Uiso   1.00
H139   H     0.97200   0.44500   0.47110   0.01267  Uiso   1.00
H140   H     0.14130   0.65470   0.60660   0.01267  Uiso   1.00
H141   H     0.24430   0.24050   0.50570   0.01267  Uiso   1.00
H142   H     0.08640   0.40220   0.27170   0.01267  Uiso   1.00
H143   H     0.19280   0.15440   0.22190   0.01267  Uiso   1.00
H144   H     0.30050   0.36050   0.36650   0.01267  Uiso   1.00
H145   H     0.13360   0.93800   0.60400   0.01267  Uiso   1.00
H146   H     0.17930   0.48250   0.81170   0.01267  Uiso   1.00
H147   H     0.35170   0.39070   0.22310   0.01267  Uiso   1.00
H148   H     0.05750   0.34330   0.72650   0.01267  Uiso   1.00
H149   H     0.26160   0.52900   0.18690   0.01267  Uiso   1.00
H150   H     0.24450   0.44910   0.52370   0.01267  Uiso   1.00
H151   H     0.14200   0.31260   0.93680   0.01267  Uiso   1.00
H152   H     0.29970   0.17630   0.88000   0.01267  Uiso   1.00
H153   H     0.57980   0.36560   0.60570   0.01267  Uiso   1.00
H154   H     0.24470   0.79010   0.10470   0.01267  Uiso   1.00
H155   H     0.45410   0.40210   0.68950   0.01267  Uiso   1.00
H156   H     0.04500   0.52740   0.48110   0.01267  Uiso   1.00
H157   H     0.38810   0.30370   0.30380   0.01267  Uiso   1.00
H158   H     0.17780   0.15620   0.77590   0.01267  Uiso   1.00
H159   H     0.07560   0.34500   0.39030   0.01267  Uiso   1.00
H160   H     0.24310   0.10490   0.79280   0.01267  Uiso   1.00
H161   H     0.05170   0.37610   0.33460   0.01267  Uiso   1.00
H162   H     0.29600   0.66900   0.10570   0.01267  Uiso   1.00
H163   H     0.99550   0.19430   0.18430   0.01267  Uiso   1.00
H164   H     0.60600   0.39640   0.68920   0.01267  Uiso   1.00
H165   H     0.15330   0.17670   0.49870   0.01267  Uiso   1.00
H166   H     0.57810   0.27370   0.19020   0.01267  Uiso   1.00
H167   H     0.30940   0.81940   0.18720   0.01267  Uiso   1.00
H168   H     0.13210   0.09050   0.60340   0.01267  Uiso   1.00
H169   H     0.43270   0.14410   0.97300   0.01267  Uiso   1.00
H170   H     0.30460   0.97140   0.18750   0.01267  Uiso   1.00
H171   H     0.02130   0.28630   0.56740   0.01267  Uiso   1.00
H172   H     0.15180   0.14160   0.06550   0.01267  Uiso   1.00
C111   C     0.59986   0.25894   0.17332   0.01267  Uiso   1.00
C112   C     0.75720   0.37660   0.67325   0.01267  Uiso   1.00
C113   C     0.24450   0.32350   0.80238   0.01267  Uiso   1.00
C114   C     0.13410   0.34610   0.30549   0.01267  Uiso   1.00
C115   C     0.54223   0.24311   0.14918   0.01267  Uiso   1.00
C116   C     0.13600   0.11780   0.64508   0.01267  Uiso   1.00
C117   C     0.28320   0.33680   0.32459   0.01267  Uiso   1.00
C118   C     0.11610   0.35070   0.73435   0.01267  Uiso   1.00
C119   C     0.16000   0.65320   0.64835   0.01267  Uiso   1.00
C120   C     0.70540   0.37820   0.64843   0.01267  Uiso   1.00
C121   C     0.32460   0.39100   0.64716   0.01267  Uiso   1.00
C122   C     0.69000   0.25280   0.17215   0.01267  Uiso   1.00
C123   C     0.66482   0.21498   0.12272   0.01267  Uiso   1.00
C124   C     0.22170   0.34410   0.77356   0.01267  Uiso   1.00
C125   C     0.14630   0.69030   0.62328   0.01267  Uiso   1.00
C126   C     0.10380   0.40760   0.44260   0.01267  Uiso   1.00
C127   C     0.02750   0.46450   0.48220   0.01267  Uiso   1.00
C128   C     0.13950   0.98810   0.67060   0.01267  Uiso   1.00
C129   C     0.27380   0.39060   0.73042   0.01267  Uiso   1.00
C130   C     0.87060   0.20800   0.16946   0.01267  Uiso   1.00
C131   C     0.19970   0.41650   0.53249   0.01267  Uiso   1.00
C132   C     0.47930   0.39470   0.67267   0.01267  Uiso   1.00
C133   C     0.33352   0.28132   0.06303   0.01267  Uiso   1.00
C134   C     0.16110   0.55490   0.64847   0.01267  Uiso   1.00
C135   C     0.96200   0.20780   0.16878   0.01267  Uiso   1.00
C136   C     0.16740   0.70660   0.67329   0.01267  Uiso   1.00
C137   C     0.06420   0.35520   0.28270   0.01267  Uiso   1.00
C138   C     0.18610   0.28430   0.94508   0.01267  Uiso   1.00
C139   C     0.14190   0.21610   0.64287   0.01267  Uiso   1.00
C140   C     0.13920   0.33400   0.99130   0.01267  Uiso   1.00
C141   C     0.55450   0.37290   0.62248   0.01267  Uiso   1.00
C142   C     0.10010   0.22930   0.14372   0.01267  Uiso   1.00
C143   C     0.82042   0.22818   0.14621   0.01267  Uiso   1.00
C144   C     0.83580   0.37520   0.62323   0.01267  Uiso   1.00
C145   C     0.13400   0.06480   0.62028   0.01267  Uiso   1.00
C146   C     0.31280   0.20660   0.94140   0.01267  Uiso   1.00
C147   C     0.10970   0.36630   0.33207   0.01267  Uiso   1.00
C148   C     0.27380   0.37160   0.85115   0.01267  Uiso   1.00
C149   C     0.00306   0.22774   0.14485   0.01267  Uiso   1.00
C150   C     0.30300   0.24040   0.88371   0.01267  Uiso   1.00
C151   C     0.13990   0.78070   0.62315   0.01267  Uiso   1.00
C152   C     0.28151   0.50789   0.14630   0.01267  Uiso   1.00
C153   C     0.13770   0.93510   0.64580   0.01267  Uiso   1.00
C154   C     0.24680   0.24900   0.92898   0.01267  Uiso   1.00
C155   C     0.17940   0.38360   0.38710   0.01267  Uiso   1.00
C156   C     0.20290   0.22870   0.25873   0.01267  Uiso   1.00
C157   C     0.29160   0.37280   0.75787   0.01267  Uiso   1.00
C158   C     0.20170   0.21150   0.49100   0.01267  Uiso   1.00
C159   C     0.98360   0.37040   0.64739   0.01267  Uiso   1.00
C160   C     0.27940   0.41040   0.14560   0.01267  Uiso   1.00
C161   C     0.23680   0.16000   0.78500   0.01267  Uiso   1.00
C162   C     0.39440   0.16660   0.98580   0.01267  Uiso   1.00
C163   C     0.25530   0.39110   0.82392   0.01267  Uiso   1.00
C164   C     0.16100   0.79700   0.67315   0.01267  Uiso   1.00
C165   C     0.31820   0.19960   0.96992   0.01267  Uiso   1.00
C166   C     0.17100   0.27400   0.44580   0.01267  Uiso   1.00
C167   C     0.19672   0.17712   0.05772   0.01267  Uiso   1.00
C168   C     0.42600   0.38720   0.64773   0.01267  Uiso   1.00
C169   C     0.06240   0.31360   0.52978   0.01267  Uiso   1.00
C170   C     0.27070   0.21690   0.83533   0.01267  Uiso   1.00
C171   C     0.22090   0.33150   0.30175   0.01267  Uiso   1.00
C172   C     0.29270   0.93510   0.17087   0.01267  Uiso   1.00
C173   C     0.27753   0.78967   0.14593   0.01267  Uiso   1.00
C174   C     0.21919   0.20859   0.23128   0.01267  Uiso   1.00
C175   C     0.29180   0.54980   0.12195   0.01267  Uiso   1.00
C176   C     0.26140   0.23240   0.01734   0.01267  Uiso   1.00
C177   C     0.13490   0.97350   0.62064   0.01267  Uiso   1.00
C178   C     0.13020   0.35080   0.48712   0.01267  Uiso   1.00
C179   C     0.13980   0.33740   0.42990   0.01267  Uiso   1.00
C180   C     0.24230   0.30970   0.27281   0.01267  Uiso   1.00
C181   C     0.13400   0.33300   0.76180   0.01267  Uiso   1.00
C182   C     0.57472   0.22114   0.12388   0.01267  Uiso   1.00
C183   C     0.95280   0.24800   0.12160   0.01267  Uiso   1.00
C184   C     0.19150   0.27730   0.97360   0.01267  Uiso   1.00
C185   C     0.86150   0.24810   0.12229   0.01267  Uiso   1.00
C186   C     0.12920   0.36240   0.51670   0.01267  Uiso   1.00
C187   C     0.23950   0.48370   0.81945   0.01267  Uiso   1.00
C188   C     0.29540   0.84400   0.17073   0.01267  Uiso   1.00
C189   C     0.09910   0.41430   0.47120   0.01267  Uiso   1.00
C190   C     0.37810   0.31750   0.32290   0.01267  Uiso   1.00
C191   C     0.20340   0.42180   0.56134   0.01267  Uiso   1.00
C192   C     0.14730   0.83410   0.64808   0.01267  Uiso   1.00
C193   C     0.88770   0.37350   0.64805   0.01267  Uiso   1.00
C194   C     0.46370   0.37630   0.62263   0.01267  Uiso   1.00
C195   C     0.25220   0.23640   0.80809   0.01267  Uiso   1.00
C196   C     0.31435   0.35015   0.23200   0.01267  Uiso   1.00
C197   C     0.28160   0.28460   0.85686   0.01267  Uiso   1.00
C198   C     0.25380   0.91760   0.12141   0.01267  Uiso   1.00
C199   C     0.26580   0.64820   0.17065   0.01267  Uiso   1.00
C200   C     0.17200   0.37160   0.35491   0.01267  Uiso   1.00
C201   C     0.33106   0.28346   0.03434   0.01267  Uiso   1.00
C202   C     0.27184   0.97196   0.14621   0.01267  Uiso   1.00
C203   C     0.43960   0.24880   0.14904   0.01267  Uiso   1.00
C204   C     0.26820   0.06960   0.14812   0.01267  Uiso   1.00
C205   C     0.13880   0.07940   0.67025   0.01267  Uiso   1.00
C206   C     0.60800   0.38040   0.64743   0.01267  Uiso   1.00
C207   C     0.25890   0.35690   0.35117   0.01267  Uiso   1.00
C208   C     0.72253   0.23087   0.14685   0.01267  Uiso   1.00
C209   C     0.28910   0.64090   0.12195   0.01267  Uiso   1.00
C210   C     0.25670   0.82650   0.12128   0.01267  Uiso   1.00
C211   C     0.29810   0.37030   0.25945   0.01267  Uiso   1.00
C212   C     0.16620   0.28060   0.47440   0.01267  Uiso   1.00
C213   C     0.26850   0.55710   0.17065   0.01267  Uiso   1.00
C214   C     0.19426   0.17926   0.02903   0.01267  Uiso   1.00
C215   C     0.25750   0.23490   0.98602   0.01267  Uiso   1.00
C216   C     0.57030   0.39130   0.67252   0.01267  Uiso   1.00
C217   C     0.27605   0.69015   0.14630   0.01267  Uiso   1.00
C218   C     0.84830   0.37410   0.67306   0.01267  Uiso   1.00
C219   C     0.06610   0.31890   0.55864   0.01267  Uiso   1.00
C220   C     0.74470   0.37770   0.62342   0.01267  Uiso   1.00
N7     N     0.18610   0.37950   0.71866   0.01267  Uiso   1.00
N8     N     0.26633   0.22817   0.07473   0.01267  Uiso   1.00
N9     N     0.12850   0.35710   0.39860   0.01267  Uiso   1.00
N10    N     0.23220   0.26280   0.90124   0.01267  Uiso   1.00
N11    N     0.13650   0.37290   0.57442   0.01267  Uiso   1.00
N12    N     0.27496   0.26924   0.21791   0.01267  Uiso   1.00
O17    O     0.01760   0.36380   0.62593   0.01267  Uiso   1.00
O18    O     0.25060   0.10060   0.12309   0.01267  Uiso   1.00
O19    O     0.28260   0.36800   0.12230   0.01267  Uiso   1.00
O20    O     0.14670   0.22290   0.16628   0.01267  Uiso   1.00
O21    O     0.13600   0.23580   0.12124   0.01267  Uiso   1.00
O22    O     0.27870   0.11470   0.17002   0.01267  Uiso   1.00
O23    O     0.03140   0.39080   0.67068   0.01267  Uiso   1.00
O24    O     0.29360   0.40060   0.67099   0.01267  Uiso   1.00
O25    O     0.14790   0.25910   0.66591   0.01267  Uiso   1.00
O26    O     0.39960   0.23600   0.12600   0.01267  Uiso   1.00
O27    O     0.17300   0.52440   0.67288   0.01267  Uiso   1.00
O28    O     0.15440   0.50800   0.62629   0.01267  Uiso   1.00
O29    O     0.27980   0.39180   0.62402   0.01267  Uiso   1.00
O30    O     0.13810   0.24230   0.62076   0.01267  Uiso   1.00
O31    O     0.27854   0.37506   0.16873   0.01267  Uiso   1.00
O32    O     0.41310   0.26570   0.17229   0.01267  Uiso   1.00
