data_image0
_cell_length_a       8.7977
_cell_length_b       20.7323
_cell_length_c       34.3652
_cell_angle_alpha    90
_cell_angle_beta     90
_cell_angle_gamma    90

_symmetry_space_group_name_H-M    "P 1"
_symmetry_int_tables_number       1

loop_
  _symmetry_equiv_pos_as_xyz
  'x, y, z'

loop_
  _atom_site_label
  _atom_site_occupancy
  _atom_site_fract_x
  _atom_site_fract_y
  _atom_site_fract_z
  _atom_site_thermal_displace_type
  _atom_site_B_iso_or_equiv
  _atom_site_type_symbol
  O1       1.0000 0.24170  0.33272  0.67941  Biso   1.000  O
  C1       1.0000 0.10220  0.31980  0.68245  Biso   1.000  C
  O2       1.0000 0.00620  0.33468  0.65749  Biso   1.000  O
  C2       1.0000 0.05030  0.28430  0.71740  Biso   1.000  C
  C3       1.0000 0.15240  0.26260  0.74495  Biso   1.000  C
  C4       1.0000 0.10330  0.22870  0.77735  Biso   1.000  C
  O3       1.0000 0.24470  0.45810  0.63527  Biso   1.000  O
  C5       1.0000 0.25920  0.59220  0.62540  Biso   1.000  C
  H1       1.0000 0.25770  0.27110  0.74160  Biso   1.000  H
  H2       1.0000 0.17480  0.21400  0.79600  Biso   1.000  H
  H3       1.0000 0.35300  0.56910  0.62640  Biso   1.000  H
  O4       1.0000 0.24170  0.83272  0.17941  Biso   1.000  O
  C6       1.0000 0.10220  0.81980  0.18245  Biso   1.000  C
  O5       1.0000 0.00620  0.83468  0.15749  Biso   1.000  O
  C7       1.0000 0.05030  0.78430  0.21740  Biso   1.000  C
  C8       1.0000 0.15240  0.76260  0.24495  Biso   1.000  C
  C9       1.0000 0.10330  0.72870  0.27735  Biso   1.000  C
  O6       1.0000 0.24470  0.95810  0.13527  Biso   1.000  O
  C10      1.0000 0.25920  0.09220  0.12540  Biso   1.000  C
  H4       1.0000 0.25770  0.77110  0.24160  Biso   1.000  H
  H5       1.0000 0.17480  0.71400  0.29600  Biso   1.000  H
  H6       1.0000 0.35300  0.06910  0.12640  Biso   1.000  H
  O7       1.0000 0.74170  0.33272  0.17941  Biso   1.000  O
  C11      1.0000 0.60220  0.31980  0.18245  Biso   1.000  C
  O8       1.0000 0.50620  0.33468  0.15749  Biso   1.000  O
  C12      1.0000 0.55030  0.28430  0.21740  Biso   1.000  C
  C13      1.0000 0.65240  0.26260  0.24495  Biso   1.000  C
  C14      1.0000 0.60330  0.22870  0.27735  Biso   1.000  C
  O9       1.0000 0.74470  0.45810  0.13527  Biso   1.000  O
  C15      1.0000 0.75920  0.59220  0.12540  Biso   1.000  C
  H7       1.0000 0.75770  0.27110  0.24160  Biso   1.000  H
  H8       1.0000 0.67480  0.21400  0.29600  Biso   1.000  H
  H9       1.0000 0.85300  0.56910  0.12640  Biso   1.000  H
  O10      1.0000 0.74170  0.83272  0.67941  Biso   1.000  O
  C16      1.0000 0.60220  0.81980  0.68245  Biso   1.000  C
  O11      1.0000 0.50620  0.83468  0.65749  Biso   1.000  O
  C17      1.0000 0.55030  0.78430  0.71740  Biso   1.000  C
  C18      1.0000 0.65240  0.76260  0.74495  Biso   1.000  C
  C19      1.0000 0.60330  0.72870  0.77735  Biso   1.000  C
  O12      1.0000 0.74470  0.95810  0.63527  Biso   1.000  O
  C20      1.0000 0.75920  0.09220  0.62540  Biso   1.000  C
  H10      1.0000 0.75770  0.77110  0.74160  Biso   1.000  H
  H11      1.0000 0.67480  0.71400  0.79600  Biso   1.000  H
  H12      1.0000 0.85300  0.06910  0.62640  Biso   1.000  H
  O13      1.0000 0.50830  0.41728  0.67941  Biso   1.000  O
  C21      1.0000 0.64780  0.43020  0.68245  Biso   1.000  C
  O14      1.0000 0.74380  0.41532  0.65749  Biso   1.000  O
  C22      1.0000 0.69970  0.46570  0.71740  Biso   1.000  C
  C23      1.0000 0.59760  0.48740  0.74495  Biso   1.000  C
  C24      1.0000 0.64670  0.52130  0.77735  Biso   1.000  C
  O15      1.0000 0.50530  0.29190  0.63527  Biso   1.000  O
  C25      1.0000 0.49080  0.15780  0.62540  Biso   1.000  C
  H13      1.0000 0.49230  0.47890  0.74160  Biso   1.000  H
  H14      1.0000 0.57520  0.53600  0.79600  Biso   1.000  H
  H15      1.0000 0.39700  0.18090  0.62640  Biso   1.000  H
  O16      1.0000 0.50830  0.91728  0.17941  Biso   1.000  O
  C26      1.0000 0.64780  0.93020  0.18245  Biso   1.000  C
  O17      1.0000 0.74380  0.91532  0.15749  Biso   1.000  O
  C27      1.0000 0.69970  0.96570  0.21740  Biso   1.000  C
  C28      1.0000 0.59760  0.98740  0.24495  Biso   1.000  C
  C29      1.0000 0.64670  0.02130  0.27735  Biso   1.000  C
  O18      1.0000 0.50530  0.79190  0.13527  Biso   1.000  O
  C30      1.0000 0.49080  0.65780  0.12540  Biso   1.000  C
  H16      1.0000 0.49230  0.97890  0.24160  Biso   1.000  H
  H17      1.0000 0.57520  0.03600  0.29600  Biso   1.000  H
  H18      1.0000 0.39700  0.68090  0.12640  Biso   1.000  H
  O19      1.0000 0.00830  0.41728  0.17941  Biso   1.000  O
  C31      1.0000 0.14780  0.43020  0.18245  Biso   1.000  C
  O20      1.0000 0.24380  0.41532  0.15749  Biso   1.000  O
  C32      1.0000 0.19970  0.46570  0.21740  Biso   1.000  C
  C33      1.0000 0.09760  0.48740  0.24495  Biso   1.000  C
  C34      1.0000 0.14670  0.52130  0.27735  Biso   1.000  C
  O21      1.0000 0.00530  0.29190  0.13527  Biso   1.000  O
  C35      1.0000 0.99080  0.15780  0.12540  Biso   1.000  C
  H19      1.0000 0.99230  0.47890  0.24160  Biso   1.000  H
  H20      1.0000 0.07520  0.53600  0.29600  Biso   1.000  H
  H21      1.0000 0.89700  0.18090  0.12640  Biso   1.000  H
  O22      1.0000 0.00830  0.91728  0.67941  Biso   1.000  O
  C36      1.0000 0.14780  0.93020  0.68245  Biso   1.000  C
  O23      1.0000 0.24380  0.91532  0.65749  Biso   1.000  O
  C37      1.0000 0.19970  0.96570  0.71740  Biso   1.000  C
  C38      1.0000 0.09760  0.98740  0.74495  Biso   1.000  C
  C39      1.0000 0.14670  0.02130  0.77735  Biso   1.000  C
  O24      1.0000 0.00530  0.79190  0.63527  Biso   1.000  O
  C40      1.0000 0.99080  0.65780  0.62540  Biso   1.000  C
  H22      1.0000 0.99230  0.97890  0.74160  Biso   1.000  H
  H23      1.0000 0.07520  0.03600  0.79600  Biso   1.000  H
  H24      1.0000 0.89700  0.68090  0.62640  Biso   1.000  H
  O25      1.0000 0.50830  0.33272  0.07059  Biso   1.000  O
  C41      1.0000 0.64780  0.31980  0.06755  Biso   1.000  C
  O26      1.0000 0.74380  0.33468  0.09251  Biso   1.000  O
  C42      1.0000 0.69970  0.28430  0.03260  Biso   1.000  C
  C43      1.0000 0.59760  0.26260  0.00505  Biso   1.000  C
  C44      1.0000 0.64670  0.22870  0.97265  Biso   1.000  C
  O27      1.0000 0.50530  0.45810  0.11473  Biso   1.000  O
  C45      1.0000 0.49080  0.59220  0.12460  Biso   1.000  C
  H25      1.0000 0.49230  0.27110  0.00840  Biso   1.000  H
  H26      1.0000 0.57520  0.21400  0.95400  Biso   1.000  H
  H27      1.0000 0.39700  0.56910  0.12360  Biso   1.000  H
  O28      1.0000 0.50830  0.83272  0.57059  Biso   1.000  O
  C46      1.0000 0.64780  0.81980  0.56755  Biso   1.000  C
  O29      1.0000 0.74380  0.83468  0.59251  Biso   1.000  O
  C47      1.0000 0.69970  0.78430  0.53260  Biso   1.000  C
  C48      1.0000 0.59760  0.76260  0.50505  Biso   1.000  C
  C49      1.0000 0.64670  0.72870  0.47265  Biso   1.000  C
  O30      1.0000 0.50530  0.95810  0.61473  Biso   1.000  O
  C50      1.0000 0.49080  0.09220  0.62460  Biso   1.000  C
  H28      1.0000 0.49230  0.77110  0.50840  Biso   1.000  H
  H29      1.0000 0.57520  0.71400  0.45400  Biso   1.000  H
  H30      1.0000 0.39700  0.06910  0.62360  Biso   1.000  H
  O31      1.0000 0.00830  0.33272  0.57059  Biso   1.000  O
  C51      1.0000 0.14780  0.31980  0.56755  Biso   1.000  C
  O32      1.0000 0.24380  0.33468  0.59251  Biso   1.000  O
  C52      1.0000 0.19970  0.28430  0.53260  Biso   1.000  C
  C53      1.0000 0.09760  0.26260  0.50505  Biso   1.000  C
  C54      1.0000 0.14670  0.22870  0.47265  Biso   1.000  C
  O33      1.0000 0.00530  0.45810  0.61473  Biso   1.000  O
  C55      1.0000 0.99080  0.59220  0.62460  Biso   1.000  C
  H31      1.0000 0.99230  0.27110  0.50840  Biso   1.000  H
  H32      1.0000 0.07520  0.21400  0.45400  Biso   1.000  H
  H33      1.0000 0.89700  0.56910  0.62360  Biso   1.000  H
  O34      1.0000 0.00830  0.83272  0.07059  Biso   1.000  O
  C56      1.0000 0.14780  0.81980  0.06755  Biso   1.000  C
  O35      1.0000 0.24380  0.83468  0.09251  Biso   1.000  O
  C57      1.0000 0.19970  0.78430  0.03260  Biso   1.000  C
  C58      1.0000 0.09760  0.76260  0.00505  Biso   1.000  C
  C59      1.0000 0.14670  0.72870  0.97265  Biso   1.000  C
  O36      1.0000 0.00530  0.95810  0.11473  Biso   1.000  O
  C60      1.0000 0.99080  0.09220  0.12460  Biso   1.000  C
  H34      1.0000 0.99230  0.77110  0.00840  Biso   1.000  H
  H35      1.0000 0.07520  0.71400  0.95400  Biso   1.000  H
  H36      1.0000 0.89700  0.06910  0.12360  Biso   1.000  H
  O37      1.0000 0.24170  0.41728  0.07059  Biso   1.000  O
  C61      1.0000 0.10220  0.43020  0.06755  Biso   1.000  C
  O38      1.0000 0.00620  0.41532  0.09251  Biso   1.000  O
  C62      1.0000 0.05030  0.46570  0.03260  Biso   1.000  C
  C63      1.0000 0.15240  0.48740  0.00505  Biso   1.000  C
  C64      1.0000 0.10330  0.52130  0.97265  Biso   1.000  C
  O39      1.0000 0.24470  0.29190  0.11473  Biso   1.000  O
  C65      1.0000 0.25920  0.15780  0.12460  Biso   1.000  C
  H37      1.0000 0.25770  0.47890  0.00840  Biso   1.000  H
  H38      1.0000 0.17480  0.53600  0.95400  Biso   1.000  H
  H39      1.0000 0.35300  0.18090  0.12360  Biso   1.000  H
  O40      1.0000 0.24170  0.91728  0.57059  Biso   1.000  O
  C66      1.0000 0.10220  0.93020  0.56755  Biso   1.000  C
  O41      1.0000 0.00620  0.91532  0.59251  Biso   1.000  O
  C67      1.0000 0.05030  0.96570  0.53260  Biso   1.000  C
  C68      1.0000 0.15240  0.98740  0.50505  Biso   1.000  C
  C69      1.0000 0.10330  0.02130  0.47265  Biso   1.000  C
  O42      1.0000 0.24470  0.79190  0.61473  Biso   1.000  O
  C70      1.0000 0.25920  0.65780  0.62460  Biso   1.000  C
  H40      1.0000 0.25770  0.97890  0.50840  Biso   1.000  H
  H41      1.0000 0.17480  0.03600  0.45400  Biso   1.000  H
  H42      1.0000 0.35300  0.68090  0.62360  Biso   1.000  H
  O43      1.0000 0.74170  0.41728  0.57059  Biso   1.000  O
  C71      1.0000 0.60220  0.43020  0.56755  Biso   1.000  C
  O44      1.0000 0.50620  0.41532  0.59251  Biso   1.000  O
  C72      1.0000 0.55030  0.46570  0.53260  Biso   1.000  C
  C73      1.0000 0.65240  0.48740  0.50505  Biso   1.000  C
  C74      1.0000 0.60330  0.52130  0.47265  Biso   1.000  C
  O45      1.0000 0.74470  0.29190  0.61473  Biso   1.000  O
  C75      1.0000 0.75920  0.15780  0.62460  Biso   1.000  C
  H43      1.0000 0.75770  0.47890  0.50840  Biso   1.000  H
  H44      1.0000 0.67480  0.53600  0.45400  Biso   1.000  H
  H45      1.0000 0.85300  0.18090  0.62360  Biso   1.000  H
  O46      1.0000 0.74170  0.91728  0.07059  Biso   1.000  O
  C76      1.0000 0.60220  0.93020  0.06755  Biso   1.000  C
  O47      1.0000 0.50620  0.91532  0.09251  Biso   1.000  O
  C77      1.0000 0.55030  0.96570  0.03260  Biso   1.000  C
  C78      1.0000 0.65240  0.98740  0.00505  Biso   1.000  C
  C79      1.0000 0.60330  0.02130  0.97265  Biso   1.000  C
  O48      1.0000 0.74470  0.79190  0.11473  Biso   1.000  O
  C80      1.0000 0.75920  0.65780  0.12460  Biso   1.000  C
  H46      1.0000 0.75770  0.97890  0.00840  Biso   1.000  H
  H47      1.0000 0.67480  0.03600  0.95400  Biso   1.000  H
  H48      1.0000 0.85300  0.68090  0.12360  Biso   1.000  H
  O49      1.0000 0.75830  0.66728  0.32059  Biso   1.000  O
  C81      1.0000 0.89780  0.68020  0.31755  Biso   1.000  C
  O50      1.0000 0.99380  0.66532  0.34251  Biso   1.000  O
  C82      1.0000 0.94970  0.71570  0.28260  Biso   1.000  C
  C83      1.0000 0.84760  0.73740  0.25505  Biso   1.000  C
  C84      1.0000 0.89670  0.77130  0.22265  Biso   1.000  C
  O51      1.0000 0.75530  0.54190  0.36473  Biso   1.000  O
  C85      1.0000 0.74080  0.40780  0.37460  Biso   1.000  C
  H49      1.0000 0.74230  0.72890  0.25840  Biso   1.000  H
  H50      1.0000 0.82520  0.78600  0.20400  Biso   1.000  H
  H51      1.0000 0.64700  0.43090  0.37360  Biso   1.000  H
  O52      1.0000 0.75830  0.16728  0.82059  Biso   1.000  O
  C86      1.0000 0.89780  0.18020  0.81755  Biso   1.000  C
  O53      1.0000 0.99380  0.16532  0.84251  Biso   1.000  O
  C87      1.0000 0.94970  0.21570  0.78260  Biso   1.000  C
  C88      1.0000 0.84760  0.23740  0.75505  Biso   1.000  C
  C89      1.0000 0.89670  0.27130  0.72265  Biso   1.000  C
  O54      1.0000 0.75530  0.04190  0.86473  Biso   1.000  O
  C90      1.0000 0.74080  0.90780  0.87460  Biso   1.000  C
  H52      1.0000 0.74230  0.22890  0.75840  Biso   1.000  H
  H53      1.0000 0.82520  0.28600  0.70400  Biso   1.000  H
  H54      1.0000 0.64700  0.93090  0.87360  Biso   1.000  H
  O55      1.0000 0.25830  0.66728  0.82059  Biso   1.000  O
  C91      1.0000 0.39780  0.68020  0.81755  Biso   1.000  C
  O56      1.0000 0.49380  0.66532  0.84251  Biso   1.000  O
  C92      1.0000 0.44970  0.71570  0.78260  Biso   1.000  C
  C93      1.0000 0.34760  0.73740  0.75505  Biso   1.000  C
  C94      1.0000 0.39670  0.77130  0.72265  Biso   1.000  C
  O57      1.0000 0.25530  0.54190  0.86473  Biso   1.000  O
  C95      1.0000 0.24080  0.40780  0.87460  Biso   1.000  C
  H55      1.0000 0.24230  0.72890  0.75840  Biso   1.000  H
  H56      1.0000 0.32520  0.78600  0.70400  Biso   1.000  H
  H57      1.0000 0.14700  0.43090  0.87360  Biso   1.000  H
  O58      1.0000 0.25830  0.16728  0.32059  Biso   1.000  O
  C96      1.0000 0.39780  0.18020  0.31755  Biso   1.000  C
  O59      1.0000 0.49380  0.16532  0.34251  Biso   1.000  O
  C97      1.0000 0.44970  0.21570  0.28260  Biso   1.000  C
  C98      1.0000 0.34760  0.23740  0.25505  Biso   1.000  C
  C99      1.0000 0.39670  0.27130  0.22265  Biso   1.000  C
  O60      1.0000 0.25530  0.04190  0.36473  Biso   1.000  O
  C100     1.0000 0.24080  0.90780  0.37460  Biso   1.000  C
  H58      1.0000 0.24230  0.22890  0.25840  Biso   1.000  H
  H59      1.0000 0.32520  0.28600  0.20400  Biso   1.000  H
  H60      1.0000 0.14700  0.93090  0.37360  Biso   1.000  H
  O61      1.0000 0.49170  0.58272  0.32059  Biso   1.000  O
  C101     1.0000 0.35220  0.56980  0.31755  Biso   1.000  C
  O62      1.0000 0.25620  0.58468  0.34251  Biso   1.000  O
  C102     1.0000 0.30030  0.53430  0.28260  Biso   1.000  C
  C103     1.0000 0.40240  0.51260  0.25505  Biso   1.000  C
  C104     1.0000 0.35330  0.47870  0.22265  Biso   1.000  C
  O63      1.0000 0.49470  0.70810  0.36473  Biso   1.000  O
  C105     1.0000 0.50920  0.84220  0.37460  Biso   1.000  C
  H61      1.0000 0.50770  0.52110  0.25840  Biso   1.000  H
  H62      1.0000 0.42480  0.46400  0.20400  Biso   1.000  H
  H63      1.0000 0.60300  0.81910  0.37360  Biso   1.000  H
  O64      1.0000 0.49170  0.08272  0.82059  Biso   1.000  O
  C106     1.0000 0.35220  0.06980  0.81755  Biso   1.000  C
  O65      1.0000 0.25620  0.08468  0.84251  Biso   1.000  O
  C107     1.0000 0.30030  0.03430  0.78260  Biso   1.000  C
  C108     1.0000 0.40240  0.01260  0.75505  Biso   1.000  C
  C109     1.0000 0.35330  0.97870  0.72265  Biso   1.000  C
  O66      1.0000 0.49470  0.20810  0.86473  Biso   1.000  O
  C110     1.0000 0.50920  0.34220  0.87460  Biso   1.000  C
  H64      1.0000 0.50770  0.02110  0.75840  Biso   1.000  H
  H65      1.0000 0.42480  0.96400  0.70400  Biso   1.000  H
  H66      1.0000 0.60300  0.31910  0.87360  Biso   1.000  H
  O67      1.0000 0.99170  0.58272  0.82059  Biso   1.000  O
  C111     1.0000 0.85220  0.56980  0.81755  Biso   1.000  C
  O68      1.0000 0.75620  0.58468  0.84251  Biso   1.000  O
  C112     1.0000 0.80030  0.53430  0.78260  Biso   1.000  C
  C113     1.0000 0.90240  0.51260  0.75505  Biso   1.000  C
  C114     1.0000 0.85330  0.47870  0.72265  Biso   1.000  C
  O69      1.0000 0.99470  0.70810  0.86473  Biso   1.000  O
  C115     1.0000 0.00920  0.84220  0.87460  Biso   1.000  C
  H67      1.0000 0.00770  0.52110  0.75840  Biso   1.000  H
  H68      1.0000 0.92480  0.46400  0.70400  Biso   1.000  H
  H69      1.0000 0.10300  0.81910  0.87360  Biso   1.000  H
  O70      1.0000 0.99170  0.08272  0.32059  Biso   1.000  O
  C116     1.0000 0.85220  0.06980  0.31755  Biso   1.000  C
  O71      1.0000 0.75620  0.08468  0.34251  Biso   1.000  O
  C117     1.0000 0.80030  0.03430  0.28260  Biso   1.000  C
  C118     1.0000 0.90240  0.01260  0.25505  Biso   1.000  C
  C119     1.0000 0.85330  0.97870  0.22265  Biso   1.000  C
  O72      1.0000 0.99470  0.20810  0.36473  Biso   1.000  O
  C120     1.0000 0.00920  0.34220  0.37460  Biso   1.000  C
  H70      1.0000 0.00770  0.02110  0.25840  Biso   1.000  H
  H71      1.0000 0.92480  0.96400  0.20400  Biso   1.000  H
  H72      1.0000 0.10300  0.31910  0.37360  Biso   1.000  H
  O73      1.0000 0.49170  0.66728  0.92941  Biso   1.000  O
  C121     1.0000 0.35220  0.68020  0.93245  Biso   1.000  C
  O74      1.0000 0.25620  0.66532  0.90749  Biso   1.000  O
  C122     1.0000 0.30030  0.71570  0.96740  Biso   1.000  C
  C123     1.0000 0.40240  0.73740  0.99495  Biso   1.000  C
  C124     1.0000 0.35330  0.77130  0.02735  Biso   1.000  C
  O75      1.0000 0.49470  0.54190  0.88527  Biso   1.000  O
  C125     1.0000 0.50920  0.40780  0.87540  Biso   1.000  C
  H73      1.0000 0.50770  0.72890  0.99160  Biso   1.000  H
  H74      1.0000 0.42480  0.78600  0.04600  Biso   1.000  H
  H75      1.0000 0.60300  0.43090  0.87640  Biso   1.000  H
  O76      1.0000 0.49170  0.16728  0.42941  Biso   1.000  O
  C126     1.0000 0.35220  0.18020  0.43245  Biso   1.000  C
  O77      1.0000 0.25620  0.16532  0.40749  Biso   1.000  O
  C127     1.0000 0.30030  0.21570  0.46740  Biso   1.000  C
  C128     1.0000 0.40240  0.23740  0.49495  Biso   1.000  C
  C129     1.0000 0.35330  0.27130  0.52735  Biso   1.000  C
  O78      1.0000 0.49470  0.04190  0.38527  Biso   1.000  O
  C130     1.0000 0.50920  0.90780  0.37540  Biso   1.000  C
  H76      1.0000 0.50770  0.22890  0.49160  Biso   1.000  H
  H77      1.0000 0.42480  0.28600  0.54600  Biso   1.000  H
  H78      1.0000 0.60300  0.93090  0.37640  Biso   1.000  H
  O79      1.0000 0.99170  0.66728  0.42941  Biso   1.000  O
  C131     1.0000 0.85220  0.68020  0.43245  Biso   1.000  C
  O80      1.0000 0.75620  0.66532  0.40749  Biso   1.000  O
  C132     1.0000 0.80030  0.71570  0.46740  Biso   1.000  C
  C133     1.0000 0.90240  0.73740  0.49495  Biso   1.000  C
  C134     1.0000 0.85330  0.77130  0.52735  Biso   1.000  C
  O81      1.0000 0.99470  0.54190  0.38527  Biso   1.000  O
  C135     1.0000 0.00920  0.40780  0.37540  Biso   1.000  C
  H79      1.0000 0.00770  0.72890  0.49160  Biso   1.000  H
  H80      1.0000 0.92480  0.78600  0.54600  Biso   1.000  H
  H81      1.0000 0.10300  0.43090  0.37640  Biso   1.000  H
  O82      1.0000 0.99170  0.16728  0.92941  Biso   1.000  O
  C136     1.0000 0.85220  0.18020  0.93245  Biso   1.000  C
  O83      1.0000 0.75620  0.16532  0.90749  Biso   1.000  O
  C137     1.0000 0.80030  0.21570  0.96740  Biso   1.000  C
  C138     1.0000 0.90240  0.23740  0.99495  Biso   1.000  C
  C139     1.0000 0.85330  0.27130  0.02735  Biso   1.000  C
  O84      1.0000 0.99470  0.04190  0.88527  Biso   1.000  O
  C140     1.0000 0.00920  0.90780  0.87540  Biso   1.000  C
  H82      1.0000 0.00770  0.22890  0.99160  Biso   1.000  H
  H83      1.0000 0.92480  0.28600  0.04600  Biso   1.000  H
  H84      1.0000 0.10300  0.93090  0.87640  Biso   1.000  H
  O85      1.0000 0.75830  0.58272  0.92941  Biso   1.000  O
  C141     1.0000 0.89780  0.56980  0.93245  Biso   1.000  C
  O86      1.0000 0.99380  0.58468  0.90749  Biso   1.000  O
  C142     1.0000 0.94970  0.53430  0.96740  Biso   1.000  C
  C143     1.0000 0.84760  0.51260  0.99495  Biso   1.000  C
  C144     1.0000 0.89670  0.47870  0.02735  Biso   1.000  C
  O87      1.0000 0.75530  0.70810  0.88527  Biso   1.000  O
  C145     1.0000 0.74080  0.84220  0.87540  Biso   1.000  C
  H85      1.0000 0.74230  0.52110  0.99160  Biso   1.000  H
  H86      1.0000 0.82520  0.46400  0.04600  Biso   1.000  H
  H87      1.0000 0.64700  0.81910  0.87640  Biso   1.000  H
  O88      1.0000 0.75830  0.08272  0.42941  Biso   1.000  O
  C146     1.0000 0.89780  0.06980  0.43245  Biso   1.000  C
  O89      1.0000 0.99380  0.08468  0.40749  Biso   1.000  O
  C147     1.0000 0.94970  0.03430  0.46740  Biso   1.000  C
  C148     1.0000 0.84760  0.01260  0.49495  Biso   1.000  C
  C149     1.0000 0.89670  0.97870  0.52735  Biso   1.000  C
  O90      1.0000 0.75530  0.20810  0.38527  Biso   1.000  O
  C150     1.0000 0.74080  0.34220  0.37540  Biso   1.000  C
  H88      1.0000 0.74230  0.02110  0.49160  Biso   1.000  H
  H89      1.0000 0.82520  0.96400  0.54600  Biso   1.000  H
  H90      1.0000 0.64700  0.31910  0.37640  Biso   1.000  H
  O91      1.0000 0.25830  0.58272  0.42941  Biso   1.000  O
  C151     1.0000 0.39780  0.56980  0.43245  Biso   1.000  C
  O92      1.0000 0.49380  0.58468  0.40749  Biso   1.000  O
  C152     1.0000 0.44970  0.53430  0.46740  Biso   1.000  C
  C153     1.0000 0.34760  0.51260  0.49495  Biso   1.000  C
  C154     1.0000 0.39670  0.47870  0.52735  Biso   1.000  C
  O93      1.0000 0.25530  0.70810  0.38527  Biso   1.000  O
  C155     1.0000 0.24080  0.84220  0.37540  Biso   1.000  C
  H91      1.0000 0.24230  0.52110  0.49160  Biso   1.000  H
  H92      1.0000 0.32520  0.46400  0.54600  Biso   1.000  H
  H93      1.0000 0.14700  0.81910  0.37640  Biso   1.000  H
  O94      1.0000 0.25830  0.08272  0.92941  Biso   1.000  O
  C156     1.0000 0.39780  0.06980  0.93245  Biso   1.000  C
  O95      1.0000 0.49380  0.08468  0.90749  Biso   1.000  O
  C157     1.0000 0.44970  0.03430  0.96740  Biso   1.000  C
  C158     1.0000 0.34760  0.01260  0.99495  Biso   1.000  C
  C159     1.0000 0.39670  0.97870  0.02735  Biso   1.000  C
  O96      1.0000 0.25530  0.20810  0.88527  Biso   1.000  O
  C160     1.0000 0.24080  0.34220  0.87540  Biso   1.000  C
  H94      1.0000 0.24230  0.02110  0.99160  Biso   1.000  H
  H95      1.0000 0.32520  0.96400  0.04600  Biso   1.000  H
  H96      1.0000 0.14700  0.31910  0.87640  Biso   1.000  H
  Sc1      1.0000 0.37500  0.37500  0.63547  Biso   1.000  Sc
  Sc2      1.0000 0.37500  0.87500  0.13547  Biso   1.000  Sc
  Sc3      1.0000 0.87500  0.37500  0.13547  Biso   1.000  Sc
  Sc4      1.0000 0.87500  0.87500  0.63547  Biso   1.000  Sc
  Sc5      1.0000 0.37500  0.37500  0.11453  Biso   1.000  Sc
  Sc6      1.0000 0.37500  0.87500  0.61453  Biso   1.000  Sc
  Sc7      1.0000 0.87500  0.37500  0.61453  Biso   1.000  Sc
  Sc8      1.0000 0.87500  0.87500  0.11453  Biso   1.000  Sc
  Sc9      1.0000 0.62500  0.62500  0.36453  Biso   1.000  Sc
  Sc10     1.0000 0.62500  0.12500  0.86453  Biso   1.000  Sc
  Sc11     1.0000 0.12500  0.62500  0.86453  Biso   1.000  Sc
  Sc12     1.0000 0.12500  0.12500  0.36453  Biso   1.000  Sc
  Sc13     1.0000 0.62500  0.62500  0.88547  Biso   1.000  Sc
  Sc14     1.0000 0.62500  0.12500  0.38547  Biso   1.000  Sc
  Sc15     1.0000 0.12500  0.62500  0.38547  Biso   1.000  Sc
  Sc16     1.0000 0.12500  0.12500  0.88547  Biso   1.000  Sc
  C161     1.0000 0.12500  0.48650  0.62500  Biso   1.000  C
  C162     1.0000 0.12500  0.55820  0.62500  Biso   1.000  C
  C163     1.0000 0.12500  0.98650  0.12500  Biso   1.000  C
  C164     1.0000 0.12500  0.05820  0.12500  Biso   1.000  C
  C165     1.0000 0.62500  0.98650  0.62500  Biso   1.000  C
  C166     1.0000 0.62500  0.05820  0.62500  Biso   1.000  C
  C167     1.0000 0.62500  0.26350  0.62500  Biso   1.000  C
  C168     1.0000 0.62500  0.19180  0.62500  Biso   1.000  C
  C169     1.0000 0.62500  0.76350  0.12500  Biso   1.000  C
  C170     1.0000 0.62500  0.69180  0.12500  Biso   1.000  C
  C171     1.0000 0.62500  0.48650  0.12500  Biso   1.000  C
  C172     1.0000 0.62500  0.55820  0.12500  Biso   1.000  C
  C173     1.0000 0.12500  0.26350  0.12500  Biso   1.000  C
  C174     1.0000 0.12500  0.19180  0.12500  Biso   1.000  C
  C175     1.0000 0.12500  0.76350  0.62500  Biso   1.000  C
  C176     1.0000 0.12500  0.69180  0.62500  Biso   1.000  C
  C177     1.0000 0.87500  0.51350  0.37500  Biso   1.000  C
  C178     1.0000 0.87500  0.44180  0.37500  Biso   1.000  C
  C179     1.0000 0.87500  0.01350  0.87500  Biso   1.000  C
  C180     1.0000 0.87500  0.94180  0.87500  Biso   1.000  C
  C181     1.0000 0.37500  0.73650  0.37500  Biso   1.000  C
  C182     1.0000 0.37500  0.80820  0.37500  Biso   1.000  C
  C183     1.0000 0.37500  0.23650  0.87500  Biso   1.000  C
  C184     1.0000 0.37500  0.30820  0.87500  Biso   1.000  C
  C185     1.0000 0.37500  0.51350  0.87500  Biso   1.000  C
  C186     1.0000 0.37500  0.44180  0.87500  Biso   1.000  C
  C187     1.0000 0.37500  0.01350  0.37500  Biso   1.000  C
  C188     1.0000 0.37500  0.94180  0.37500  Biso   1.000  C
  C189     1.0000 0.87500  0.73650  0.87500  Biso   1.000  C
  C190     1.0000 0.87500  0.80820  0.87500  Biso   1.000  C
  C191     1.0000 0.87500  0.23650  0.37500  Biso   1.000  C
  C192     1.0000 0.87500  0.30820  0.37500  Biso   1.000  C
