data_image0
_cell_length_a       8.7682
_cell_length_b       20.4694
_cell_length_c       33.851
_cell_angle_alpha    90
_cell_angle_beta     90
_cell_angle_gamma    90

_symmetry_space_group_name_H-M    "P 1"
_symmetry_int_tables_number       1

loop_
  _symmetry_equiv_pos_as_xyz
  'x, y, z'

loop_
  _atom_site_label
  _atom_site_occupancy
  _atom_site_fract_x
  _atom_site_fract_y
  _atom_site_fract_z
  _atom_site_thermal_displace_type
  _atom_site_B_iso_or_equiv
  _atom_site_type_symbol
  O1       1.0000 0.24560  0.33170  0.67900  Biso   1.000  O
  C1       1.0000 0.10630  0.31970  0.68170  Biso   1.000  C
  O2       1.0000 0.00940  0.33690  0.65700  Biso   1.000  O
  C2       1.0000 0.05140  0.28460  0.71760  Biso   1.000  C
  C3       1.0000 0.15200  0.26490  0.74620  Biso   1.000  C
  C4       1.0000 0.10140  0.22880  0.77810  Biso   1.000  C
  O3       1.0000 0.24730  0.45690  0.63340  Biso   1.000  O
  C5       1.0000 0.25970  0.59150  0.62470  Biso   1.000  C
  H1       1.0000 0.25570  0.27570  0.74360  Biso   1.000  H
  H2       1.0000 0.17250  0.21440  0.79700  Biso   1.000  H
  H3       1.0000 0.35260  0.56870  0.62600  Biso   1.000  H
  O4       1.0000 0.24560  0.83170  0.17900  Biso   1.000  O
  C6       1.0000 0.10630  0.81970  0.18170  Biso   1.000  C
  O5       1.0000 0.00940  0.83690  0.15700  Biso   1.000  O
  C7       1.0000 0.05140  0.78460  0.21760  Biso   1.000  C
  C8       1.0000 0.15200  0.76490  0.24620  Biso   1.000  C
  C9       1.0000 0.10140  0.72880  0.27810  Biso   1.000  C
  O6       1.0000 0.24730  0.95690  0.13340  Biso   1.000  O
  C10      1.0000 0.25970  0.09150  0.12470  Biso   1.000  C
  H4       1.0000 0.25570  0.77570  0.24360  Biso   1.000  H
  H5       1.0000 0.17250  0.71440  0.29700  Biso   1.000  H
  H6       1.0000 0.35260  0.06870  0.12600  Biso   1.000  H
  O7       1.0000 0.74560  0.33170  0.17900  Biso   1.000  O
  C11      1.0000 0.60630  0.31970  0.18170  Biso   1.000  C
  O8       1.0000 0.50940  0.33690  0.15700  Biso   1.000  O
  C12      1.0000 0.55140  0.28460  0.21760  Biso   1.000  C
  C13      1.0000 0.65200  0.26490  0.24620  Biso   1.000  C
  C14      1.0000 0.60140  0.22880  0.27810  Biso   1.000  C
  O9       1.0000 0.74730  0.45690  0.13340  Biso   1.000  O
  C15      1.0000 0.75970  0.59150  0.12470  Biso   1.000  C
  H7       1.0000 0.75570  0.27570  0.24360  Biso   1.000  H
  H8       1.0000 0.67250  0.21440  0.29700  Biso   1.000  H
  H9       1.0000 0.85260  0.56870  0.12600  Biso   1.000  H
  O10      1.0000 0.74560  0.83170  0.67900  Biso   1.000  O
  C16      1.0000 0.60630  0.81970  0.68170  Biso   1.000  C
  O11      1.0000 0.50940  0.83690  0.65700  Biso   1.000  O
  C17      1.0000 0.55140  0.78460  0.71760  Biso   1.000  C
  C18      1.0000 0.65200  0.76490  0.74620  Biso   1.000  C
  C19      1.0000 0.60140  0.72880  0.77810  Biso   1.000  C
  O12      1.0000 0.74730  0.95690  0.63340  Biso   1.000  O
  C20      1.0000 0.75970  0.09150  0.62470  Biso   1.000  C
  H10      1.0000 0.75570  0.77570  0.74360  Biso   1.000  H
  H11      1.0000 0.67250  0.71440  0.79700  Biso   1.000  H
  H12      1.0000 0.85260  0.06870  0.62600  Biso   1.000  H
  O13      1.0000 0.50440  0.41830  0.67900  Biso   1.000  O
  C21      1.0000 0.64370  0.43030  0.68170  Biso   1.000  C
  O14      1.0000 0.74060  0.41310  0.65700  Biso   1.000  O
  C22      1.0000 0.69860  0.46540  0.71760  Biso   1.000  C
  C23      1.0000 0.59800  0.48510  0.74620  Biso   1.000  C
  C24      1.0000 0.64860  0.52120  0.77810  Biso   1.000  C
  O15      1.0000 0.50270  0.29310  0.63340  Biso   1.000  O
  C25      1.0000 0.49030  0.15850  0.62470  Biso   1.000  C
  H13      1.0000 0.49430  0.47430  0.74360  Biso   1.000  H
  H14      1.0000 0.57750  0.53560  0.79700  Biso   1.000  H
  H15      1.0000 0.39740  0.18130  0.62600  Biso   1.000  H
  O16      1.0000 0.50440  0.91830  0.17900  Biso   1.000  O
  C26      1.0000 0.64370  0.93030  0.18170  Biso   1.000  C
  O17      1.0000 0.74060  0.91310  0.15700  Biso   1.000  O
  C27      1.0000 0.69860  0.96540  0.21760  Biso   1.000  C
  C28      1.0000 0.59800  0.98510  0.24620  Biso   1.000  C
  C29      1.0000 0.64860  0.02120  0.27810  Biso   1.000  C
  O18      1.0000 0.50270  0.79310  0.13340  Biso   1.000  O
  C30      1.0000 0.49030  0.65850  0.12470  Biso   1.000  C
  H16      1.0000 0.49430  0.97430  0.24360  Biso   1.000  H
  H17      1.0000 0.57750  0.03560  0.29700  Biso   1.000  H
  H18      1.0000 0.39740  0.68130  0.12600  Biso   1.000  H
  O19      1.0000 0.00440  0.41830  0.17900  Biso   1.000  O
  C31      1.0000 0.14370  0.43030  0.18170  Biso   1.000  C
  O20      1.0000 0.24060  0.41310  0.15700  Biso   1.000  O
  C32      1.0000 0.19860  0.46540  0.21760  Biso   1.000  C
  C33      1.0000 0.09800  0.48510  0.24620  Biso   1.000  C
  C34      1.0000 0.14860  0.52120  0.27810  Biso   1.000  C
  O21      1.0000 0.00270  0.29310  0.13340  Biso   1.000  O
  C35      1.0000 0.99030  0.15850  0.12470  Biso   1.000  C
  H19      1.0000 0.99430  0.47430  0.24360  Biso   1.000  H
  H20      1.0000 0.07750  0.53560  0.29700  Biso   1.000  H
  H21      1.0000 0.89740  0.18130  0.12600  Biso   1.000  H
  O22      1.0000 0.00440  0.91830  0.67900  Biso   1.000  O
  C36      1.0000 0.14370  0.93030  0.68170  Biso   1.000  C
  O23      1.0000 0.24060  0.91310  0.65700  Biso   1.000  O
  C37      1.0000 0.19860  0.96540  0.71760  Biso   1.000  C
  C38      1.0000 0.09800  0.98510  0.74620  Biso   1.000  C
  C39      1.0000 0.14860  0.02120  0.77810  Biso   1.000  C
  O24      1.0000 0.00270  0.79310  0.63340  Biso   1.000  O
  C40      1.0000 0.99030  0.65850  0.62470  Biso   1.000  C
  H22      1.0000 0.99430  0.97430  0.74360  Biso   1.000  H
  H23      1.0000 0.07750  0.03560  0.79700  Biso   1.000  H
  H24      1.0000 0.89740  0.68130  0.62600  Biso   1.000  H
  O25      1.0000 0.50440  0.33170  0.07100  Biso   1.000  O
  C41      1.0000 0.64370  0.31970  0.06830  Biso   1.000  C
  O26      1.0000 0.74060  0.33690  0.09300  Biso   1.000  O
  C42      1.0000 0.69860  0.28460  0.03240  Biso   1.000  C
  C43      1.0000 0.59800  0.26490  0.00380  Biso   1.000  C
  C44      1.0000 0.64860  0.22880  0.97190  Biso   1.000  C
  O27      1.0000 0.50270  0.45690  0.11660  Biso   1.000  O
  C45      1.0000 0.49030  0.59150  0.12530  Biso   1.000  C
  H25      1.0000 0.49430  0.27570  0.00640  Biso   1.000  H
  H26      1.0000 0.57750  0.21440  0.95300  Biso   1.000  H
  H27      1.0000 0.39740  0.56870  0.12400  Biso   1.000  H
  O28      1.0000 0.50440  0.83170  0.57100  Biso   1.000  O
  C46      1.0000 0.64370  0.81970  0.56830  Biso   1.000  C
  O29      1.0000 0.74060  0.83690  0.59300  Biso   1.000  O
  C47      1.0000 0.69860  0.78460  0.53240  Biso   1.000  C
  C48      1.0000 0.59800  0.76490  0.50380  Biso   1.000  C
  C49      1.0000 0.64860  0.72880  0.47190  Biso   1.000  C
  O30      1.0000 0.50270  0.95690  0.61660  Biso   1.000  O
  C50      1.0000 0.49030  0.09150  0.62530  Biso   1.000  C
  H28      1.0000 0.49430  0.77570  0.50640  Biso   1.000  H
  H29      1.0000 0.57750  0.71440  0.45300  Biso   1.000  H
  H30      1.0000 0.39740  0.06870  0.62400  Biso   1.000  H
  O31      1.0000 0.00440  0.33170  0.57100  Biso   1.000  O
  C51      1.0000 0.14370  0.31970  0.56830  Biso   1.000  C
  O32      1.0000 0.24060  0.33690  0.59300  Biso   1.000  O
  C52      1.0000 0.19860  0.28460  0.53240  Biso   1.000  C
  C53      1.0000 0.09800  0.26490  0.50380  Biso   1.000  C
  C54      1.0000 0.14860  0.22880  0.47190  Biso   1.000  C
  O33      1.0000 0.00270  0.45690  0.61660  Biso   1.000  O
  C55      1.0000 0.99030  0.59150  0.62530  Biso   1.000  C
  H31      1.0000 0.99430  0.27570  0.50640  Biso   1.000  H
  H32      1.0000 0.07750  0.21440  0.45300  Biso   1.000  H
  H33      1.0000 0.89740  0.56870  0.62400  Biso   1.000  H
  O34      1.0000 0.00440  0.83170  0.07100  Biso   1.000  O
  C56      1.0000 0.14370  0.81970  0.06830  Biso   1.000  C
  O35      1.0000 0.24060  0.83690  0.09300  Biso   1.000  O
  C57      1.0000 0.19860  0.78460  0.03240  Biso   1.000  C
  C58      1.0000 0.09800  0.76490  0.00380  Biso   1.000  C
  C59      1.0000 0.14860  0.72880  0.97190  Biso   1.000  C
  O36      1.0000 0.00270  0.95690  0.11660  Biso   1.000  O
  C60      1.0000 0.99030  0.09150  0.12530  Biso   1.000  C
  H34      1.0000 0.99430  0.77570  0.00640  Biso   1.000  H
  H35      1.0000 0.07750  0.71440  0.95300  Biso   1.000  H
  H36      1.0000 0.89740  0.06870  0.12400  Biso   1.000  H
  O37      1.0000 0.24560  0.41830  0.07100  Biso   1.000  O
  C61      1.0000 0.10630  0.43030  0.06830  Biso   1.000  C
  O38      1.0000 0.00940  0.41310  0.09300  Biso   1.000  O
  C62      1.0000 0.05140  0.46540  0.03240  Biso   1.000  C
  C63      1.0000 0.15200  0.48510  0.00380  Biso   1.000  C
  C64      1.0000 0.10140  0.52120  0.97190  Biso   1.000  C
  O39      1.0000 0.24730  0.29310  0.11660  Biso   1.000  O
  C65      1.0000 0.25970  0.15850  0.12530  Biso   1.000  C
  H37      1.0000 0.25570  0.47430  0.00640  Biso   1.000  H
  H38      1.0000 0.17250  0.53560  0.95300  Biso   1.000  H
  H39      1.0000 0.35260  0.18130  0.12400  Biso   1.000  H
  O40      1.0000 0.24560  0.91830  0.57100  Biso   1.000  O
  C66      1.0000 0.10630  0.93030  0.56830  Biso   1.000  C
  O41      1.0000 0.00940  0.91310  0.59300  Biso   1.000  O
  C67      1.0000 0.05140  0.96540  0.53240  Biso   1.000  C
  C68      1.0000 0.15200  0.98510  0.50380  Biso   1.000  C
  C69      1.0000 0.10140  0.02120  0.47190  Biso   1.000  C
  O42      1.0000 0.24730  0.79310  0.61660  Biso   1.000  O
  C70      1.0000 0.25970  0.65850  0.62530  Biso   1.000  C
  H40      1.0000 0.25570  0.97430  0.50640  Biso   1.000  H
  H41      1.0000 0.17250  0.03560  0.45300  Biso   1.000  H
  H42      1.0000 0.35260  0.68130  0.62400  Biso   1.000  H
  O43      1.0000 0.74560  0.41830  0.57100  Biso   1.000  O
  C71      1.0000 0.60630  0.43030  0.56830  Biso   1.000  C
  O44      1.0000 0.50940  0.41310  0.59300  Biso   1.000  O
  C72      1.0000 0.55140  0.46540  0.53240  Biso   1.000  C
  C73      1.0000 0.65200  0.48510  0.50380  Biso   1.000  C
  C74      1.0000 0.60140  0.52120  0.47190  Biso   1.000  C
  O45      1.0000 0.74730  0.29310  0.61660  Biso   1.000  O
  C75      1.0000 0.75970  0.15850  0.62530  Biso   1.000  C
  H43      1.0000 0.75570  0.47430  0.50640  Biso   1.000  H
  H44      1.0000 0.67250  0.53560  0.45300  Biso   1.000  H
  H45      1.0000 0.85260  0.18130  0.62400  Biso   1.000  H
  O46      1.0000 0.74560  0.91830  0.07100  Biso   1.000  O
  C76      1.0000 0.60630  0.93030  0.06830  Biso   1.000  C
  O47      1.0000 0.50940  0.91310  0.09300  Biso   1.000  O
  C77      1.0000 0.55140  0.96540  0.03240  Biso   1.000  C
  C78      1.0000 0.65200  0.98510  0.00380  Biso   1.000  C
  C79      1.0000 0.60140  0.02120  0.97190  Biso   1.000  C
  O48      1.0000 0.74730  0.79310  0.11660  Biso   1.000  O
  C80      1.0000 0.75970  0.65850  0.12530  Biso   1.000  C
  H46      1.0000 0.75570  0.97430  0.00640  Biso   1.000  H
  H47      1.0000 0.67250  0.03560  0.95300  Biso   1.000  H
  H48      1.0000 0.85260  0.68130  0.12400  Biso   1.000  H
  O49      1.0000 0.75440  0.66830  0.32100  Biso   1.000  O
  C81      1.0000 0.89370  0.68030  0.31830  Biso   1.000  C
  O50      1.0000 0.99060  0.66310  0.34300  Biso   1.000  O
  C82      1.0000 0.94860  0.71540  0.28240  Biso   1.000  C
  C83      1.0000 0.84800  0.73510  0.25380  Biso   1.000  C
  C84      1.0000 0.89860  0.77120  0.22190  Biso   1.000  C
  O51      1.0000 0.75270  0.54310  0.36660  Biso   1.000  O
  C85      1.0000 0.74030  0.40850  0.37530  Biso   1.000  C
  H49      1.0000 0.74430  0.72430  0.25640  Biso   1.000  H
  H50      1.0000 0.82750  0.78560  0.20300  Biso   1.000  H
  H51      1.0000 0.64740  0.43130  0.37400  Biso   1.000  H
  O52      1.0000 0.75440  0.16830  0.82100  Biso   1.000  O
  C86      1.0000 0.89370  0.18030  0.81830  Biso   1.000  C
  O53      1.0000 0.99060  0.16310  0.84300  Biso   1.000  O
  C87      1.0000 0.94860  0.21540  0.78240  Biso   1.000  C
  C88      1.0000 0.84800  0.23510  0.75380  Biso   1.000  C
  C89      1.0000 0.89860  0.27120  0.72190  Biso   1.000  C
  O54      1.0000 0.75270  0.04310  0.86660  Biso   1.000  O
  C90      1.0000 0.74030  0.90850  0.87530  Biso   1.000  C
  H52      1.0000 0.74430  0.22430  0.75640  Biso   1.000  H
  H53      1.0000 0.82750  0.28560  0.70300  Biso   1.000  H
  H54      1.0000 0.64740  0.93130  0.87400  Biso   1.000  H
  O55      1.0000 0.25440  0.66830  0.82100  Biso   1.000  O
  C91      1.0000 0.39370  0.68030  0.81830  Biso   1.000  C
  O56      1.0000 0.49060  0.66310  0.84300  Biso   1.000  O
  C92      1.0000 0.44860  0.71540  0.78240  Biso   1.000  C
  C93      1.0000 0.34800  0.73510  0.75380  Biso   1.000  C
  C94      1.0000 0.39860  0.77120  0.72190  Biso   1.000  C
  O57      1.0000 0.25270  0.54310  0.86660  Biso   1.000  O
  C95      1.0000 0.24030  0.40850  0.87530  Biso   1.000  C
  H55      1.0000 0.24430  0.72430  0.75640  Biso   1.000  H
  H56      1.0000 0.32750  0.78560  0.70300  Biso   1.000  H
  H57      1.0000 0.14740  0.43130  0.87400  Biso   1.000  H
  O58      1.0000 0.25440  0.16830  0.32100  Biso   1.000  O
  C96      1.0000 0.39370  0.18030  0.31830  Biso   1.000  C
  O59      1.0000 0.49060  0.16310  0.34300  Biso   1.000  O
  C97      1.0000 0.44860  0.21540  0.28240  Biso   1.000  C
  C98      1.0000 0.34800  0.23510  0.25380  Biso   1.000  C
  C99      1.0000 0.39860  0.27120  0.22190  Biso   1.000  C
  O60      1.0000 0.25270  0.04310  0.36660  Biso   1.000  O
  C100     1.0000 0.24030  0.90850  0.37530  Biso   1.000  C
  H58      1.0000 0.24430  0.22430  0.25640  Biso   1.000  H
  H59      1.0000 0.32750  0.28560  0.20300  Biso   1.000  H
  H60      1.0000 0.14740  0.93130  0.37400  Biso   1.000  H
  O61      1.0000 0.49560  0.58170  0.32100  Biso   1.000  O
  C101     1.0000 0.35630  0.56970  0.31830  Biso   1.000  C
  O62      1.0000 0.25940  0.58690  0.34300  Biso   1.000  O
  C102     1.0000 0.30140  0.53460  0.28240  Biso   1.000  C
  C103     1.0000 0.40200  0.51490  0.25380  Biso   1.000  C
  C104     1.0000 0.35140  0.47880  0.22190  Biso   1.000  C
  O63      1.0000 0.49730  0.70690  0.36660  Biso   1.000  O
  C105     1.0000 0.50970  0.84150  0.37530  Biso   1.000  C
  H61      1.0000 0.50570  0.52570  0.25640  Biso   1.000  H
  H62      1.0000 0.42250  0.46440  0.20300  Biso   1.000  H
  H63      1.0000 0.60260  0.81870  0.37400  Biso   1.000  H
  O64      1.0000 0.49560  0.08170  0.82100  Biso   1.000  O
  C106     1.0000 0.35630  0.06970  0.81830  Biso   1.000  C
  O65      1.0000 0.25940  0.08690  0.84300  Biso   1.000  O
  C107     1.0000 0.30140  0.03460  0.78240  Biso   1.000  C
  C108     1.0000 0.40200  0.01490  0.75380  Biso   1.000  C
  C109     1.0000 0.35140  0.97880  0.72190  Biso   1.000  C
  O66      1.0000 0.49730  0.20690  0.86660  Biso   1.000  O
  C110     1.0000 0.50970  0.34150  0.87530  Biso   1.000  C
  H64      1.0000 0.50570  0.02570  0.75640  Biso   1.000  H
  H65      1.0000 0.42250  0.96440  0.70300  Biso   1.000  H
  H66      1.0000 0.60260  0.31870  0.87400  Biso   1.000  H
  O67      1.0000 0.99560  0.58170  0.82100  Biso   1.000  O
  C111     1.0000 0.85630  0.56970  0.81830  Biso   1.000  C
  O68      1.0000 0.75940  0.58690  0.84300  Biso   1.000  O
  C112     1.0000 0.80140  0.53460  0.78240  Biso   1.000  C
  C113     1.0000 0.90200  0.51490  0.75380  Biso   1.000  C
  C114     1.0000 0.85140  0.47880  0.72190  Biso   1.000  C
  O69      1.0000 0.99730  0.70690  0.86660  Biso   1.000  O
  C115     1.0000 0.00970  0.84150  0.87530  Biso   1.000  C
  H67      1.0000 0.00570  0.52570  0.75640  Biso   1.000  H
  H68      1.0000 0.92250  0.46440  0.70300  Biso   1.000  H
  H69      1.0000 0.10260  0.81870  0.87400  Biso   1.000  H
  O70      1.0000 0.99560  0.08170  0.32100  Biso   1.000  O
  C116     1.0000 0.85630  0.06970  0.31830  Biso   1.000  C
  O71      1.0000 0.75940  0.08690  0.34300  Biso   1.000  O
  C117     1.0000 0.80140  0.03460  0.28240  Biso   1.000  C
  C118     1.0000 0.90200  0.01490  0.25380  Biso   1.000  C
  C119     1.0000 0.85140  0.97880  0.22190  Biso   1.000  C
  O72      1.0000 0.99730  0.20690  0.36660  Biso   1.000  O
  C120     1.0000 0.00970  0.34150  0.37530  Biso   1.000  C
  H70      1.0000 0.00570  0.02570  0.25640  Biso   1.000  H
  H71      1.0000 0.92250  0.96440  0.20300  Biso   1.000  H
  H72      1.0000 0.10260  0.31870  0.37400  Biso   1.000  H
  O73      1.0000 0.49560  0.66830  0.92900  Biso   1.000  O
  C121     1.0000 0.35630  0.68030  0.93170  Biso   1.000  C
  O74      1.0000 0.25940  0.66310  0.90700  Biso   1.000  O
  C122     1.0000 0.30140  0.71540  0.96760  Biso   1.000  C
  C123     1.0000 0.40200  0.73510  0.99620  Biso   1.000  C
  C124     1.0000 0.35140  0.77120  0.02810  Biso   1.000  C
  O75      1.0000 0.49730  0.54310  0.88340  Biso   1.000  O
  C125     1.0000 0.50970  0.40850  0.87470  Biso   1.000  C
  H73      1.0000 0.50570  0.72430  0.99360  Biso   1.000  H
  H74      1.0000 0.42250  0.78560  0.04700  Biso   1.000  H
  H75      1.0000 0.60260  0.43130  0.87600  Biso   1.000  H
  O76      1.0000 0.49560  0.16830  0.42900  Biso   1.000  O
  C126     1.0000 0.35630  0.18030  0.43170  Biso   1.000  C
  O77      1.0000 0.25940  0.16310  0.40700  Biso   1.000  O
  C127     1.0000 0.30140  0.21540  0.46760  Biso   1.000  C
  C128     1.0000 0.40200  0.23510  0.49620  Biso   1.000  C
  C129     1.0000 0.35140  0.27120  0.52810  Biso   1.000  C
  O78      1.0000 0.49730  0.04310  0.38340  Biso   1.000  O
  C130     1.0000 0.50970  0.90850  0.37470  Biso   1.000  C
  H76      1.0000 0.50570  0.22430  0.49360  Biso   1.000  H
  H77      1.0000 0.42250  0.28560  0.54700  Biso   1.000  H
  H78      1.0000 0.60260  0.93130  0.37600  Biso   1.000  H
  O79      1.0000 0.99560  0.66830  0.42900  Biso   1.000  O
  C131     1.0000 0.85630  0.68030  0.43170  Biso   1.000  C
  O80      1.0000 0.75940  0.66310  0.40700  Biso   1.000  O
  C132     1.0000 0.80140  0.71540  0.46760  Biso   1.000  C
  C133     1.0000 0.90200  0.73510  0.49620  Biso   1.000  C
  C134     1.0000 0.85140  0.77120  0.52810  Biso   1.000  C
  O81      1.0000 0.99730  0.54310  0.38340  Biso   1.000  O
  C135     1.0000 0.00970  0.40850  0.37470  Biso   1.000  C
  H79      1.0000 0.00570  0.72430  0.49360  Biso   1.000  H
  H80      1.0000 0.92250  0.78560  0.54700  Biso   1.000  H
  H81      1.0000 0.10260  0.43130  0.37600  Biso   1.000  H
  O82      1.0000 0.99560  0.16830  0.92900  Biso   1.000  O
  C136     1.0000 0.85630  0.18030  0.93170  Biso   1.000  C
  O83      1.0000 0.75940  0.16310  0.90700  Biso   1.000  O
  C137     1.0000 0.80140  0.21540  0.96760  Biso   1.000  C
  C138     1.0000 0.90200  0.23510  0.99620  Biso   1.000  C
  C139     1.0000 0.85140  0.27120  0.02810  Biso   1.000  C
  O84      1.0000 0.99730  0.04310  0.88340  Biso   1.000  O
  C140     1.0000 0.00970  0.90850  0.87470  Biso   1.000  C
  H82      1.0000 0.00570  0.22430  0.99360  Biso   1.000  H
  H83      1.0000 0.92250  0.28560  0.04700  Biso   1.000  H
  H84      1.0000 0.10260  0.93130  0.87600  Biso   1.000  H
  O85      1.0000 0.75440  0.58170  0.92900  Biso   1.000  O
  C141     1.0000 0.89370  0.56970  0.93170  Biso   1.000  C
  O86      1.0000 0.99060  0.58690  0.90700  Biso   1.000  O
  C142     1.0000 0.94860  0.53460  0.96760  Biso   1.000  C
  C143     1.0000 0.84800  0.51490  0.99620  Biso   1.000  C
  C144     1.0000 0.89860  0.47880  0.02810  Biso   1.000  C
  O87      1.0000 0.75270  0.70690  0.88340  Biso   1.000  O
  C145     1.0000 0.74030  0.84150  0.87470  Biso   1.000  C
  H85      1.0000 0.74430  0.52570  0.99360  Biso   1.000  H
  H86      1.0000 0.82750  0.46440  0.04700  Biso   1.000  H
  H87      1.0000 0.64740  0.81870  0.87600  Biso   1.000  H
  O88      1.0000 0.75440  0.08170  0.42900  Biso   1.000  O
  C146     1.0000 0.89370  0.06970  0.43170  Biso   1.000  C
  O89      1.0000 0.99060  0.08690  0.40700  Biso   1.000  O
  C147     1.0000 0.94860  0.03460  0.46760  Biso   1.000  C
  C148     1.0000 0.84800  0.01490  0.49620  Biso   1.000  C
  C149     1.0000 0.89860  0.97880  0.52810  Biso   1.000  C
  O90      1.0000 0.75270  0.20690  0.38340  Biso   1.000  O
  C150     1.0000 0.74030  0.34150  0.37470  Biso   1.000  C
  H88      1.0000 0.74430  0.02570  0.49360  Biso   1.000  H
  H89      1.0000 0.82750  0.96440  0.54700  Biso   1.000  H
  H90      1.0000 0.64740  0.31870  0.37600  Biso   1.000  H
  O91      1.0000 0.25440  0.58170  0.42900  Biso   1.000  O
  C151     1.0000 0.39370  0.56970  0.43170  Biso   1.000  C
  O92      1.0000 0.49060  0.58690  0.40700  Biso   1.000  O
  C152     1.0000 0.44860  0.53460  0.46760  Biso   1.000  C
  C153     1.0000 0.34800  0.51490  0.49620  Biso   1.000  C
  C154     1.0000 0.39860  0.47880  0.52810  Biso   1.000  C
  O93      1.0000 0.25270  0.70690  0.38340  Biso   1.000  O
  C155     1.0000 0.24030  0.84150  0.37470  Biso   1.000  C
  H91      1.0000 0.24430  0.52570  0.49360  Biso   1.000  H
  H92      1.0000 0.32750  0.46440  0.54700  Biso   1.000  H
  H93      1.0000 0.14740  0.81870  0.37600  Biso   1.000  H
  O94      1.0000 0.25440  0.08170  0.92900  Biso   1.000  O
  C156     1.0000 0.39370  0.06970  0.93170  Biso   1.000  C
  O95      1.0000 0.49060  0.08690  0.90700  Biso   1.000  O
  C157     1.0000 0.44860  0.03460  0.96760  Biso   1.000  C
  C158     1.0000 0.34800  0.01490  0.99620  Biso   1.000  C
  C159     1.0000 0.39860  0.97880  0.02810  Biso   1.000  C
  O96      1.0000 0.25270  0.20690  0.88340  Biso   1.000  O
  C160     1.0000 0.24030  0.34150  0.87470  Biso   1.000  C
  H94      1.0000 0.24430  0.02570  0.99360  Biso   1.000  H
  H95      1.0000 0.32750  0.96440  0.04700  Biso   1.000  H
  H96      1.0000 0.14740  0.31870  0.87600  Biso   1.000  H
  Sc1      1.0000 0.37500  0.37500  0.63495  Biso   1.000  Sc
  Sc2      1.0000 0.37500  0.87500  0.13495  Biso   1.000  Sc
  Sc3      1.0000 0.87500  0.37500  0.13495  Biso   1.000  Sc
  Sc4      1.0000 0.87500  0.87500  0.63495  Biso   1.000  Sc
  Sc5      1.0000 0.37500  0.37500  0.11505  Biso   1.000  Sc
  Sc6      1.0000 0.37500  0.87500  0.61505  Biso   1.000  Sc
  Sc7      1.0000 0.87500  0.37500  0.61505  Biso   1.000  Sc
  Sc8      1.0000 0.87500  0.87500  0.11505  Biso   1.000  Sc
  Sc9      1.0000 0.62500  0.62500  0.36505  Biso   1.000  Sc
  Sc10     1.0000 0.62500  0.12500  0.86505  Biso   1.000  Sc
  Sc11     1.0000 0.12500  0.62500  0.86505  Biso   1.000  Sc
  Sc12     1.0000 0.12500  0.12500  0.36505  Biso   1.000  Sc
  Sc13     1.0000 0.62500  0.62500  0.88495  Biso   1.000  Sc
  Sc14     1.0000 0.62500  0.12500  0.38495  Biso   1.000  Sc
  Sc15     1.0000 0.12500  0.62500  0.38495  Biso   1.000  Sc
  Sc16     1.0000 0.12500  0.12500  0.88495  Biso   1.000  Sc
  C161     1.0000 0.12500  0.48550  0.62500  Biso   1.000  C
  C162     1.0000 0.12500  0.55820  0.62500  Biso   1.000  C
  C163     1.0000 0.12500  0.98550  0.12500  Biso   1.000  C
  C164     1.0000 0.12500  0.05820  0.12500  Biso   1.000  C
  C165     1.0000 0.62500  0.98550  0.62500  Biso   1.000  C
  C166     1.0000 0.62500  0.05820  0.62500  Biso   1.000  C
  C167     1.0000 0.62500  0.26450  0.62500  Biso   1.000  C
  C168     1.0000 0.62500  0.19180  0.62500  Biso   1.000  C
  C169     1.0000 0.62500  0.76450  0.12500  Biso   1.000  C
  C170     1.0000 0.62500  0.69180  0.12500  Biso   1.000  C
  C171     1.0000 0.62500  0.48550  0.12500  Biso   1.000  C
  C172     1.0000 0.62500  0.55820  0.12500  Biso   1.000  C
  C173     1.0000 0.12500  0.26450  0.12500  Biso   1.000  C
  C174     1.0000 0.12500  0.19180  0.12500  Biso   1.000  C
  C175     1.0000 0.12500  0.76450  0.62500  Biso   1.000  C
  C176     1.0000 0.12500  0.69180  0.62500  Biso   1.000  C
  C177     1.0000 0.87500  0.51450  0.37500  Biso   1.000  C
  C178     1.0000 0.87500  0.44180  0.37500  Biso   1.000  C
  C179     1.0000 0.87500  0.01450  0.87500  Biso   1.000  C
  C180     1.0000 0.87500  0.94180  0.87500  Biso   1.000  C
  C181     1.0000 0.37500  0.73550  0.37500  Biso   1.000  C
  C182     1.0000 0.37500  0.80820  0.37500  Biso   1.000  C
  C183     1.0000 0.37500  0.23550  0.87500  Biso   1.000  C
  C184     1.0000 0.37500  0.30820  0.87500  Biso   1.000  C
  C185     1.0000 0.37500  0.51450  0.87500  Biso   1.000  C
  C186     1.0000 0.37500  0.44180  0.87500  Biso   1.000  C
  C187     1.0000 0.37500  0.01450  0.37500  Biso   1.000  C
  C188     1.0000 0.37500  0.94180  0.37500  Biso   1.000  C
  C189     1.0000 0.87500  0.73550  0.87500  Biso   1.000  C
  C190     1.0000 0.87500  0.80820  0.87500  Biso   1.000  C
  C191     1.0000 0.87500  0.23550  0.37500  Biso   1.000  C
  C192     1.0000 0.87500  0.30820  0.37500  Biso   1.000  C
