data_image0
_cell_length_a       8.8567
_cell_length_b       20.693
_cell_length_c       34.249
_cell_angle_alpha    90
_cell_angle_beta     90
_cell_angle_gamma    90

_symmetry_space_group_name_H-M    "P 1"
_symmetry_int_tables_number       1

loop_
  _symmetry_equiv_pos_as_xyz
  'x, y, z'

loop_
  _atom_site_label
  _atom_site_occupancy
  _atom_site_fract_x
  _atom_site_fract_y
  _atom_site_fract_z
  _atom_site_thermal_displace_type
  _atom_site_B_iso_or_equiv
  _atom_site_type_symbol
  O1       1.0000 0.24040  0.33340  0.67940  Biso   1.000  O
  C1       1.0000 0.10220  0.31990  0.68220  Biso   1.000  C
  O2       1.0000 0.00610  0.33520  0.65730  Biso   1.000  O
  C2       1.0000 0.04970  0.28390  0.71750  Biso   1.000  C
  C3       1.0000 0.15040  0.26240  0.74490  Biso   1.000  C
  C4       1.0000 0.10090  0.22910  0.77750  Biso   1.000  C
  O3       1.0000 0.24450  0.45760  0.63540  Biso   1.000  O
  C5       1.0000 0.25850  0.59167  0.62520  Biso   1.000  C
  H1       1.0000 0.25410  0.27320  0.74230  Biso   1.000  H
  H2       1.0000 0.17200  0.21480  0.79640  Biso   1.000  H
  H3       1.0000 0.35140  0.56890  0.62650  Biso   1.000  H
  O4       1.0000 0.24040  0.83340  0.17940  Biso   1.000  O
  C6       1.0000 0.10220  0.81990  0.18220  Biso   1.000  C
  O5       1.0000 0.00610  0.83520  0.15730  Biso   1.000  O
  C7       1.0000 0.04970  0.78390  0.21750  Biso   1.000  C
  C8       1.0000 0.15040  0.76240  0.24490  Biso   1.000  C
  C9       1.0000 0.10090  0.72910  0.27750  Biso   1.000  C
  O6       1.0000 0.24450  0.95760  0.13540  Biso   1.000  O
  C10      1.0000 0.25850  0.09167  0.12520  Biso   1.000  C
  H4       1.0000 0.25410  0.77320  0.24230  Biso   1.000  H
  H5       1.0000 0.17200  0.71480  0.29640  Biso   1.000  H
  H6       1.0000 0.35140  0.06890  0.12650  Biso   1.000  H
  O7       1.0000 0.74040  0.33340  0.17940  Biso   1.000  O
  C11      1.0000 0.60220  0.31990  0.18220  Biso   1.000  C
  O8       1.0000 0.50610  0.33520  0.15730  Biso   1.000  O
  C12      1.0000 0.54970  0.28390  0.21750  Biso   1.000  C
  C13      1.0000 0.65040  0.26240  0.24490  Biso   1.000  C
  C14      1.0000 0.60090  0.22910  0.27750  Biso   1.000  C
  O9       1.0000 0.74450  0.45760  0.13540  Biso   1.000  O
  C15      1.0000 0.75850  0.59167  0.12520  Biso   1.000  C
  H7       1.0000 0.75410  0.27320  0.24230  Biso   1.000  H
  H8       1.0000 0.67200  0.21480  0.29640  Biso   1.000  H
  H9       1.0000 0.85140  0.56890  0.12650  Biso   1.000  H
  O10      1.0000 0.74040  0.83340  0.67940  Biso   1.000  O
  C16      1.0000 0.60220  0.81990  0.68220  Biso   1.000  C
  O11      1.0000 0.50610  0.83520  0.65730  Biso   1.000  O
  C17      1.0000 0.54970  0.78390  0.71750  Biso   1.000  C
  C18      1.0000 0.65040  0.76240  0.74490  Biso   1.000  C
  C19      1.0000 0.60090  0.72910  0.77750  Biso   1.000  C
  O12      1.0000 0.74450  0.95760  0.63540  Biso   1.000  O
  C20      1.0000 0.75850  0.09167  0.62520  Biso   1.000  C
  H10      1.0000 0.75410  0.77320  0.74230  Biso   1.000  H
  H11      1.0000 0.67200  0.71480  0.79640  Biso   1.000  H
  H12      1.0000 0.85140  0.06890  0.62650  Biso   1.000  H
  O13      1.0000 0.50960  0.41660  0.67940  Biso   1.000  O
  C21      1.0000 0.64780  0.43010  0.68220  Biso   1.000  C
  O14      1.0000 0.74390  0.41480  0.65730  Biso   1.000  O
  C22      1.0000 0.70030  0.46610  0.71750  Biso   1.000  C
  C23      1.0000 0.59960  0.48760  0.74490  Biso   1.000  C
  C24      1.0000 0.64910  0.52090  0.77750  Biso   1.000  C
  O15      1.0000 0.50550  0.29240  0.63540  Biso   1.000  O
  C25      1.0000 0.49150  0.15833  0.62520  Biso   1.000  C
  H13      1.0000 0.49590  0.47680  0.74230  Biso   1.000  H
  H14      1.0000 0.57800  0.53520  0.79640  Biso   1.000  H
  H15      1.0000 0.39860  0.18110  0.62650  Biso   1.000  H
  O16      1.0000 0.50960  0.91660  0.17940  Biso   1.000  O
  C26      1.0000 0.64780  0.93010  0.18220  Biso   1.000  C
  O17      1.0000 0.74390  0.91480  0.15730  Biso   1.000  O
  C27      1.0000 0.70030  0.96610  0.21750  Biso   1.000  C
  C28      1.0000 0.59960  0.98760  0.24490  Biso   1.000  C
  C29      1.0000 0.64910  0.02090  0.27750  Biso   1.000  C
  O18      1.0000 0.50550  0.79240  0.13540  Biso   1.000  O
  C30      1.0000 0.49150  0.65833  0.12520  Biso   1.000  C
  H16      1.0000 0.49590  0.97680  0.24230  Biso   1.000  H
  H17      1.0000 0.57800  0.03520  0.29640  Biso   1.000  H
  H18      1.0000 0.39860  0.68110  0.12650  Biso   1.000  H
  O19      1.0000 0.00960  0.41660  0.17940  Biso   1.000  O
  C31      1.0000 0.14780  0.43010  0.18220  Biso   1.000  C
  O20      1.0000 0.24390  0.41480  0.15730  Biso   1.000  O
  C32      1.0000 0.20030  0.46610  0.21750  Biso   1.000  C
  C33      1.0000 0.09960  0.48760  0.24490  Biso   1.000  C
  C34      1.0000 0.14910  0.52090  0.27750  Biso   1.000  C
  O21      1.0000 0.00550  0.29240  0.13540  Biso   1.000  O
  C35      1.0000 0.99150  0.15833  0.12520  Biso   1.000  C
  H19      1.0000 0.99590  0.47680  0.24230  Biso   1.000  H
  H20      1.0000 0.07800  0.53520  0.29640  Biso   1.000  H
  H21      1.0000 0.89860  0.18110  0.12650  Biso   1.000  H
  O22      1.0000 0.00960  0.91660  0.67940  Biso   1.000  O
  C36      1.0000 0.14780  0.93010  0.68220  Biso   1.000  C
  O23      1.0000 0.24390  0.91480  0.65730  Biso   1.000  O
  C37      1.0000 0.20030  0.96610  0.71750  Biso   1.000  C
  C38      1.0000 0.09960  0.98760  0.74490  Biso   1.000  C
  C39      1.0000 0.14910  0.02090  0.77750  Biso   1.000  C
  O24      1.0000 0.00550  0.79240  0.63540  Biso   1.000  O
  C40      1.0000 0.99150  0.65833  0.62520  Biso   1.000  C
  H22      1.0000 0.99590  0.97680  0.74230  Biso   1.000  H
  H23      1.0000 0.07800  0.03520  0.79640  Biso   1.000  H
  H24      1.0000 0.89860  0.68110  0.62650  Biso   1.000  H
  O25      1.0000 0.50960  0.33340  0.07060  Biso   1.000  O
  C41      1.0000 0.64780  0.31990  0.06780  Biso   1.000  C
  O26      1.0000 0.74390  0.33520  0.09270  Biso   1.000  O
  C42      1.0000 0.70030  0.28390  0.03250  Biso   1.000  C
  C43      1.0000 0.59960  0.26240  0.00510  Biso   1.000  C
  C44      1.0000 0.64910  0.22910  0.97250  Biso   1.000  C
  O27      1.0000 0.50550  0.45760  0.11460  Biso   1.000  O
  C45      1.0000 0.49150  0.59167  0.12480  Biso   1.000  C
  H25      1.0000 0.49590  0.27320  0.00770  Biso   1.000  H
  H26      1.0000 0.57800  0.21480  0.95360  Biso   1.000  H
  H27      1.0000 0.39860  0.56890  0.12350  Biso   1.000  H
  O28      1.0000 0.50960  0.83340  0.57060  Biso   1.000  O
  C46      1.0000 0.64780  0.81990  0.56780  Biso   1.000  C
  O29      1.0000 0.74390  0.83520  0.59270  Biso   1.000  O
  C47      1.0000 0.70030  0.78390  0.53250  Biso   1.000  C
  C48      1.0000 0.59960  0.76240  0.50510  Biso   1.000  C
  C49      1.0000 0.64910  0.72910  0.47250  Biso   1.000  C
  O30      1.0000 0.50550  0.95760  0.61460  Biso   1.000  O
  C50      1.0000 0.49150  0.09167  0.62480  Biso   1.000  C
  H28      1.0000 0.49590  0.77320  0.50770  Biso   1.000  H
  H29      1.0000 0.57800  0.71480  0.45360  Biso   1.000  H
  H30      1.0000 0.39860  0.06890  0.62350  Biso   1.000  H
  O31      1.0000 0.00960  0.33340  0.57060  Biso   1.000  O
  C51      1.0000 0.14780  0.31990  0.56780  Biso   1.000  C
  O32      1.0000 0.24390  0.33520  0.59270  Biso   1.000  O
  C52      1.0000 0.20030  0.28390  0.53250  Biso   1.000  C
  C53      1.0000 0.09960  0.26240  0.50510  Biso   1.000  C
  C54      1.0000 0.14910  0.22910  0.47250  Biso   1.000  C
  O33      1.0000 0.00550  0.45760  0.61460  Biso   1.000  O
  C55      1.0000 0.99150  0.59167  0.62480  Biso   1.000  C
  H31      1.0000 0.99590  0.27320  0.50770  Biso   1.000  H
  H32      1.0000 0.07800  0.21480  0.45360  Biso   1.000  H
  H33      1.0000 0.89860  0.56890  0.62350  Biso   1.000  H
  O34      1.0000 0.00960  0.83340  0.07060  Biso   1.000  O
  C56      1.0000 0.14780  0.81990  0.06780  Biso   1.000  C
  O35      1.0000 0.24390  0.83520  0.09270  Biso   1.000  O
  C57      1.0000 0.20030  0.78390  0.03250  Biso   1.000  C
  C58      1.0000 0.09960  0.76240  0.00510  Biso   1.000  C
  C59      1.0000 0.14910  0.72910  0.97250  Biso   1.000  C
  O36      1.0000 0.00550  0.95760  0.11460  Biso   1.000  O
  C60      1.0000 0.99150  0.09167  0.12480  Biso   1.000  C
  H34      1.0000 0.99590  0.77320  0.00770  Biso   1.000  H
  H35      1.0000 0.07800  0.71480  0.95360  Biso   1.000  H
  H36      1.0000 0.89860  0.06890  0.12350  Biso   1.000  H
  O37      1.0000 0.24040  0.41660  0.07060  Biso   1.000  O
  C61      1.0000 0.10220  0.43010  0.06780  Biso   1.000  C
  O38      1.0000 0.00610  0.41480  0.09270  Biso   1.000  O
  C62      1.0000 0.04970  0.46610  0.03250  Biso   1.000  C
  C63      1.0000 0.15040  0.48760  0.00510  Biso   1.000  C
  C64      1.0000 0.10090  0.52090  0.97250  Biso   1.000  C
  O39      1.0000 0.24450  0.29240  0.11460  Biso   1.000  O
  C65      1.0000 0.25850  0.15833  0.12480  Biso   1.000  C
  H37      1.0000 0.25410  0.47680  0.00770  Biso   1.000  H
  H38      1.0000 0.17200  0.53520  0.95360  Biso   1.000  H
  H39      1.0000 0.35140  0.18110  0.12350  Biso   1.000  H
  O40      1.0000 0.24040  0.91660  0.57060  Biso   1.000  O
  C66      1.0000 0.10220  0.93010  0.56780  Biso   1.000  C
  O41      1.0000 0.00610  0.91480  0.59270  Biso   1.000  O
  C67      1.0000 0.04970  0.96610  0.53250  Biso   1.000  C
  C68      1.0000 0.15040  0.98760  0.50510  Biso   1.000  C
  C69      1.0000 0.10090  0.02090  0.47250  Biso   1.000  C
  O42      1.0000 0.24450  0.79240  0.61460  Biso   1.000  O
  C70      1.0000 0.25850  0.65833  0.62480  Biso   1.000  C
  H40      1.0000 0.25410  0.97680  0.50770  Biso   1.000  H
  H41      1.0000 0.17200  0.03520  0.45360  Biso   1.000  H
  H42      1.0000 0.35140  0.68110  0.62350  Biso   1.000  H
  O43      1.0000 0.74040  0.41660  0.57060  Biso   1.000  O
  C71      1.0000 0.60220  0.43010  0.56780  Biso   1.000  C
  O44      1.0000 0.50610  0.41480  0.59270  Biso   1.000  O
  C72      1.0000 0.54970  0.46610  0.53250  Biso   1.000  C
  C73      1.0000 0.65040  0.48760  0.50510  Biso   1.000  C
  C74      1.0000 0.60090  0.52090  0.47250  Biso   1.000  C
  O45      1.0000 0.74450  0.29240  0.61460  Biso   1.000  O
  C75      1.0000 0.75850  0.15833  0.62480  Biso   1.000  C
  H43      1.0000 0.75410  0.47680  0.50770  Biso   1.000  H
  H44      1.0000 0.67200  0.53520  0.45360  Biso   1.000  H
  H45      1.0000 0.85140  0.18110  0.62350  Biso   1.000  H
  O46      1.0000 0.74040  0.91660  0.07060  Biso   1.000  O
  C76      1.0000 0.60220  0.93010  0.06780  Biso   1.000  C
  O47      1.0000 0.50610  0.91480  0.09270  Biso   1.000  O
  C77      1.0000 0.54970  0.96610  0.03250  Biso   1.000  C
  C78      1.0000 0.65040  0.98760  0.00510  Biso   1.000  C
  C79      1.0000 0.60090  0.02090  0.97250  Biso   1.000  C
  O48      1.0000 0.74450  0.79240  0.11460  Biso   1.000  O
  C80      1.0000 0.75850  0.65833  0.12480  Biso   1.000  C
  H46      1.0000 0.75410  0.97680  0.00770  Biso   1.000  H
  H47      1.0000 0.67200  0.03520  0.95360  Biso   1.000  H
  H48      1.0000 0.85140  0.68110  0.12350  Biso   1.000  H
  O49      1.0000 0.75960  0.66660  0.32060  Biso   1.000  O
  C81      1.0000 0.89780  0.68010  0.31780  Biso   1.000  C
  O50      1.0000 0.99390  0.66480  0.34270  Biso   1.000  O
  C82      1.0000 0.95030  0.71610  0.28250  Biso   1.000  C
  C83      1.0000 0.84960  0.73760  0.25510  Biso   1.000  C
  C84      1.0000 0.89910  0.77090  0.22250  Biso   1.000  C
  O51      1.0000 0.75550  0.54240  0.36460  Biso   1.000  O
  C85      1.0000 0.74150  0.40833  0.37480  Biso   1.000  C
  H49      1.0000 0.74590  0.72680  0.25770  Biso   1.000  H
  H50      1.0000 0.82800  0.78520  0.20360  Biso   1.000  H
  H51      1.0000 0.64860  0.43110  0.37350  Biso   1.000  H
  O52      1.0000 0.75960  0.16660  0.82060  Biso   1.000  O
  C86      1.0000 0.89780  0.18010  0.81780  Biso   1.000  C
  O53      1.0000 0.99390  0.16480  0.84270  Biso   1.000  O
  C87      1.0000 0.95030  0.21610  0.78250  Biso   1.000  C
  C88      1.0000 0.84960  0.23760  0.75510  Biso   1.000  C
  C89      1.0000 0.89910  0.27090  0.72250  Biso   1.000  C
  O54      1.0000 0.75550  0.04240  0.86460  Biso   1.000  O
  C90      1.0000 0.74150  0.90833  0.87480  Biso   1.000  C
  H52      1.0000 0.74590  0.22680  0.75770  Biso   1.000  H
  H53      1.0000 0.82800  0.28520  0.70360  Biso   1.000  H
  H54      1.0000 0.64860  0.93110  0.87350  Biso   1.000  H
  O55      1.0000 0.25960  0.66660  0.82060  Biso   1.000  O
  C91      1.0000 0.39780  0.68010  0.81780  Biso   1.000  C
  O56      1.0000 0.49390  0.66480  0.84270  Biso   1.000  O
  C92      1.0000 0.45030  0.71610  0.78250  Biso   1.000  C
  C93      1.0000 0.34960  0.73760  0.75510  Biso   1.000  C
  C94      1.0000 0.39910  0.77090  0.72250  Biso   1.000  C
  O57      1.0000 0.25550  0.54240  0.86460  Biso   1.000  O
  C95      1.0000 0.24150  0.40833  0.87480  Biso   1.000  C
  H55      1.0000 0.24590  0.72680  0.75770  Biso   1.000  H
  H56      1.0000 0.32800  0.78520  0.70360  Biso   1.000  H
  H57      1.0000 0.14860  0.43110  0.87350  Biso   1.000  H
  O58      1.0000 0.25960  0.16660  0.32060  Biso   1.000  O
  C96      1.0000 0.39780  0.18010  0.31780  Biso   1.000  C
  O59      1.0000 0.49390  0.16480  0.34270  Biso   1.000  O
  C97      1.0000 0.45030  0.21610  0.28250  Biso   1.000  C
  C98      1.0000 0.34960  0.23760  0.25510  Biso   1.000  C
  C99      1.0000 0.39910  0.27090  0.22250  Biso   1.000  C
  O60      1.0000 0.25550  0.04240  0.36460  Biso   1.000  O
  C100     1.0000 0.24150  0.90833  0.37480  Biso   1.000  C
  H58      1.0000 0.24590  0.22680  0.25770  Biso   1.000  H
  H59      1.0000 0.32800  0.28520  0.20360  Biso   1.000  H
  H60      1.0000 0.14860  0.93110  0.37350  Biso   1.000  H
  O61      1.0000 0.49040  0.58340  0.32060  Biso   1.000  O
  C101     1.0000 0.35220  0.56990  0.31780  Biso   1.000  C
  O62      1.0000 0.25610  0.58520  0.34270  Biso   1.000  O
  C102     1.0000 0.29970  0.53390  0.28250  Biso   1.000  C
  C103     1.0000 0.40040  0.51240  0.25510  Biso   1.000  C
  C104     1.0000 0.35090  0.47910  0.22250  Biso   1.000  C
  O63      1.0000 0.49450  0.70760  0.36460  Biso   1.000  O
  C105     1.0000 0.50850  0.84167  0.37480  Biso   1.000  C
  H61      1.0000 0.50410  0.52320  0.25770  Biso   1.000  H
  H62      1.0000 0.42200  0.46480  0.20360  Biso   1.000  H
  H63      1.0000 0.60140  0.81890  0.37350  Biso   1.000  H
  O64      1.0000 0.49040  0.08340  0.82060  Biso   1.000  O
  C106     1.0000 0.35220  0.06990  0.81780  Biso   1.000  C
  O65      1.0000 0.25610  0.08520  0.84270  Biso   1.000  O
  C107     1.0000 0.29970  0.03390  0.78250  Biso   1.000  C
  C108     1.0000 0.40040  0.01240  0.75510  Biso   1.000  C
  C109     1.0000 0.35090  0.97910  0.72250  Biso   1.000  C
  O66      1.0000 0.49450  0.20760  0.86460  Biso   1.000  O
  C110     1.0000 0.50850  0.34167  0.87480  Biso   1.000  C
  H64      1.0000 0.50410  0.02320  0.75770  Biso   1.000  H
  H65      1.0000 0.42200  0.96480  0.70360  Biso   1.000  H
  H66      1.0000 0.60140  0.31890  0.87350  Biso   1.000  H
  O67      1.0000 0.99040  0.58340  0.82060  Biso   1.000  O
  C111     1.0000 0.85220  0.56990  0.81780  Biso   1.000  C
  O68      1.0000 0.75610  0.58520  0.84270  Biso   1.000  O
  C112     1.0000 0.79970  0.53390  0.78250  Biso   1.000  C
  C113     1.0000 0.90040  0.51240  0.75510  Biso   1.000  C
  C114     1.0000 0.85090  0.47910  0.72250  Biso   1.000  C
  O69      1.0000 0.99450  0.70760  0.86460  Biso   1.000  O
  C115     1.0000 0.00850  0.84167  0.87480  Biso   1.000  C
  H67      1.0000 0.00410  0.52320  0.75770  Biso   1.000  H
  H68      1.0000 0.92200  0.46480  0.70360  Biso   1.000  H
  H69      1.0000 0.10140  0.81890  0.87350  Biso   1.000  H
  O70      1.0000 0.99040  0.08340  0.32060  Biso   1.000  O
  C116     1.0000 0.85220  0.06990  0.31780  Biso   1.000  C
  O71      1.0000 0.75610  0.08520  0.34270  Biso   1.000  O
  C117     1.0000 0.79970  0.03390  0.28250  Biso   1.000  C
  C118     1.0000 0.90040  0.01240  0.25510  Biso   1.000  C
  C119     1.0000 0.85090  0.97910  0.22250  Biso   1.000  C
  O72      1.0000 0.99450  0.20760  0.36460  Biso   1.000  O
  C120     1.0000 0.00850  0.34167  0.37480  Biso   1.000  C
  H70      1.0000 0.00410  0.02320  0.25770  Biso   1.000  H
  H71      1.0000 0.92200  0.96480  0.20360  Biso   1.000  H
  H72      1.0000 0.10140  0.31890  0.37350  Biso   1.000  H
  O73      1.0000 0.49040  0.66660  0.92940  Biso   1.000  O
  C121     1.0000 0.35220  0.68010  0.93220  Biso   1.000  C
  O74      1.0000 0.25610  0.66480  0.90730  Biso   1.000  O
  C122     1.0000 0.29970  0.71610  0.96750  Biso   1.000  C
  C123     1.0000 0.40040  0.73760  0.99490  Biso   1.000  C
  C124     1.0000 0.35090  0.77090  0.02750  Biso   1.000  C
  O75      1.0000 0.49450  0.54240  0.88540  Biso   1.000  O
  C125     1.0000 0.50850  0.40833  0.87520  Biso   1.000  C
  H73      1.0000 0.50410  0.72680  0.99230  Biso   1.000  H
  H74      1.0000 0.42200  0.78520  0.04640  Biso   1.000  H
  H75      1.0000 0.60140  0.43110  0.87650  Biso   1.000  H
  O76      1.0000 0.49040  0.16660  0.42940  Biso   1.000  O
  C126     1.0000 0.35220  0.18010  0.43220  Biso   1.000  C
  O77      1.0000 0.25610  0.16480  0.40730  Biso   1.000  O
  C127     1.0000 0.29970  0.21610  0.46750  Biso   1.000  C
  C128     1.0000 0.40040  0.23760  0.49490  Biso   1.000  C
  C129     1.0000 0.35090  0.27090  0.52750  Biso   1.000  C
  O78      1.0000 0.49450  0.04240  0.38540  Biso   1.000  O
  C130     1.0000 0.50850  0.90833  0.37520  Biso   1.000  C
  H76      1.0000 0.50410  0.22680  0.49230  Biso   1.000  H
  H77      1.0000 0.42200  0.28520  0.54640  Biso   1.000  H
  H78      1.0000 0.60140  0.93110  0.37650  Biso   1.000  H
  O79      1.0000 0.99040  0.66660  0.42940  Biso   1.000  O
  C131     1.0000 0.85220  0.68010  0.43220  Biso   1.000  C
  O80      1.0000 0.75610  0.66480  0.40730  Biso   1.000  O
  C132     1.0000 0.79970  0.71610  0.46750  Biso   1.000  C
  C133     1.0000 0.90040  0.73760  0.49490  Biso   1.000  C
  C134     1.0000 0.85090  0.77090  0.52750  Biso   1.000  C
  O81      1.0000 0.99450  0.54240  0.38540  Biso   1.000  O
  C135     1.0000 0.00850  0.40833  0.37520  Biso   1.000  C
  H79      1.0000 0.00410  0.72680  0.49230  Biso   1.000  H
  H80      1.0000 0.92200  0.78520  0.54640  Biso   1.000  H
  H81      1.0000 0.10140  0.43110  0.37650  Biso   1.000  H
  O82      1.0000 0.99040  0.16660  0.92940  Biso   1.000  O
  C136     1.0000 0.85220  0.18010  0.93220  Biso   1.000  C
  O83      1.0000 0.75610  0.16480  0.90730  Biso   1.000  O
  C137     1.0000 0.79970  0.21610  0.96750  Biso   1.000  C
  C138     1.0000 0.90040  0.23760  0.99490  Biso   1.000  C
  C139     1.0000 0.85090  0.27090  0.02750  Biso   1.000  C
  O84      1.0000 0.99450  0.04240  0.88540  Biso   1.000  O
  C140     1.0000 0.00850  0.90833  0.87520  Biso   1.000  C
  H82      1.0000 0.00410  0.22680  0.99230  Biso   1.000  H
  H83      1.0000 0.92200  0.28520  0.04640  Biso   1.000  H
  H84      1.0000 0.10140  0.93110  0.87650  Biso   1.000  H
  O85      1.0000 0.75960  0.58340  0.92940  Biso   1.000  O
  C141     1.0000 0.89780  0.56990  0.93220  Biso   1.000  C
  O86      1.0000 0.99390  0.58520  0.90730  Biso   1.000  O
  C142     1.0000 0.95030  0.53390  0.96750  Biso   1.000  C
  C143     1.0000 0.84960  0.51240  0.99490  Biso   1.000  C
  C144     1.0000 0.89910  0.47910  0.02750  Biso   1.000  C
  O87      1.0000 0.75550  0.70760  0.88540  Biso   1.000  O
  C145     1.0000 0.74150  0.84167  0.87520  Biso   1.000  C
  H85      1.0000 0.74590  0.52320  0.99230  Biso   1.000  H
  H86      1.0000 0.82800  0.46480  0.04640  Biso   1.000  H
  H87      1.0000 0.64860  0.81890  0.87650  Biso   1.000  H
  O88      1.0000 0.75960  0.08340  0.42940  Biso   1.000  O
  C146     1.0000 0.89780  0.06990  0.43220  Biso   1.000  C
  O89      1.0000 0.99390  0.08520  0.40730  Biso   1.000  O
  C147     1.0000 0.95030  0.03390  0.46750  Biso   1.000  C
  C148     1.0000 0.84960  0.01240  0.49490  Biso   1.000  C
  C149     1.0000 0.89910  0.97910  0.52750  Biso   1.000  C
  O90      1.0000 0.75550  0.20760  0.38540  Biso   1.000  O
  C150     1.0000 0.74150  0.34167  0.37520  Biso   1.000  C
  H88      1.0000 0.74590  0.02320  0.49230  Biso   1.000  H
  H89      1.0000 0.82800  0.96480  0.54640  Biso   1.000  H
  H90      1.0000 0.64860  0.31890  0.37650  Biso   1.000  H
  O91      1.0000 0.25960  0.58340  0.42940  Biso   1.000  O
  C151     1.0000 0.39780  0.56990  0.43220  Biso   1.000  C
  O92      1.0000 0.49390  0.58520  0.40730  Biso   1.000  O
  C152     1.0000 0.45030  0.53390  0.46750  Biso   1.000  C
  C153     1.0000 0.34960  0.51240  0.49490  Biso   1.000  C
  C154     1.0000 0.39910  0.47910  0.52750  Biso   1.000  C
  O93      1.0000 0.25550  0.70760  0.38540  Biso   1.000  O
  C155     1.0000 0.24150  0.84167  0.37520  Biso   1.000  C
  H91      1.0000 0.24590  0.52320  0.49230  Biso   1.000  H
  H92      1.0000 0.32800  0.46480  0.54640  Biso   1.000  H
  H93      1.0000 0.14860  0.81890  0.37650  Biso   1.000  H
  O94      1.0000 0.25960  0.08340  0.92940  Biso   1.000  O
  C156     1.0000 0.39780  0.06990  0.93220  Biso   1.000  C
  O95      1.0000 0.49390  0.08520  0.90730  Biso   1.000  O
  C157     1.0000 0.45030  0.03390  0.96750  Biso   1.000  C
  C158     1.0000 0.34960  0.01240  0.99490  Biso   1.000  C
  C159     1.0000 0.39910  0.97910  0.02750  Biso   1.000  C
  O96      1.0000 0.25550  0.20760  0.88540  Biso   1.000  O
  C160     1.0000 0.24150  0.34167  0.87520  Biso   1.000  C
  H94      1.0000 0.24590  0.02320  0.99230  Biso   1.000  H
  H95      1.0000 0.32800  0.96480  0.04640  Biso   1.000  H
  H96      1.0000 0.14860  0.31890  0.87650  Biso   1.000  H
  Sc1      1.0000 0.37500  0.37500  0.63538  Biso   1.000  Sc
  Sc2      1.0000 0.37500  0.87500  0.13538  Biso   1.000  Sc
  Sc3      1.0000 0.87500  0.37500  0.13538  Biso   1.000  Sc
  Sc4      1.0000 0.87500  0.87500  0.63538  Biso   1.000  Sc
  Sc5      1.0000 0.37500  0.37500  0.11462  Biso   1.000  Sc
  Sc6      1.0000 0.37500  0.87500  0.61462  Biso   1.000  Sc
  Sc7      1.0000 0.87500  0.37500  0.61462  Biso   1.000  Sc
  Sc8      1.0000 0.87500  0.87500  0.11462  Biso   1.000  Sc
  Sc9      1.0000 0.62500  0.62500  0.36462  Biso   1.000  Sc
  Sc10     1.0000 0.62500  0.12500  0.86462  Biso   1.000  Sc
  Sc11     1.0000 0.12500  0.62500  0.86462  Biso   1.000  Sc
  Sc12     1.0000 0.12500  0.12500  0.36462  Biso   1.000  Sc
  Sc13     1.0000 0.62500  0.62500  0.88538  Biso   1.000  Sc
  Sc14     1.0000 0.62500  0.12500  0.38538  Biso   1.000  Sc
  Sc15     1.0000 0.12500  0.62500  0.38538  Biso   1.000  Sc
  Sc16     1.0000 0.12500  0.12500  0.88538  Biso   1.000  Sc
  C161     1.0000 0.12500  0.48610  0.62500  Biso   1.000  C
  C162     1.0000 0.12500  0.55840  0.62500  Biso   1.000  C
  C163     1.0000 0.12500  0.98610  0.12500  Biso   1.000  C
  C164     1.0000 0.12500  0.05840  0.12500  Biso   1.000  C
  C165     1.0000 0.62500  0.98610  0.62500  Biso   1.000  C
  C166     1.0000 0.62500  0.05840  0.62500  Biso   1.000  C
  C167     1.0000 0.62500  0.26390  0.62500  Biso   1.000  C
  C168     1.0000 0.62500  0.19160  0.62500  Biso   1.000  C
  C169     1.0000 0.62500  0.76390  0.12500  Biso   1.000  C
  C170     1.0000 0.62500  0.69160  0.12500  Biso   1.000  C
  C171     1.0000 0.62500  0.48610  0.12500  Biso   1.000  C
  C172     1.0000 0.62500  0.55840  0.12500  Biso   1.000  C
  C173     1.0000 0.12500  0.26390  0.12500  Biso   1.000  C
  C174     1.0000 0.12500  0.19160  0.12500  Biso   1.000  C
  C175     1.0000 0.12500  0.76390  0.62500  Biso   1.000  C
  C176     1.0000 0.12500  0.69160  0.62500  Biso   1.000  C
  C177     1.0000 0.87500  0.51390  0.37500  Biso   1.000  C
  C178     1.0000 0.87500  0.44160  0.37500  Biso   1.000  C
  C179     1.0000 0.87500  0.01390  0.87500  Biso   1.000  C
  C180     1.0000 0.87500  0.94160  0.87500  Biso   1.000  C
  C181     1.0000 0.37500  0.73610  0.37500  Biso   1.000  C
  C182     1.0000 0.37500  0.80840  0.37500  Biso   1.000  C
  C183     1.0000 0.37500  0.23610  0.87500  Biso   1.000  C
  C184     1.0000 0.37500  0.30840  0.87500  Biso   1.000  C
  C185     1.0000 0.37500  0.51390  0.87500  Biso   1.000  C
  C186     1.0000 0.37500  0.44160  0.87500  Biso   1.000  C
  C187     1.0000 0.37500  0.01390  0.37500  Biso   1.000  C
  C188     1.0000 0.37500  0.94160  0.37500  Biso   1.000  C
  C189     1.0000 0.87500  0.73610  0.87500  Biso   1.000  C
  C190     1.0000 0.87500  0.80840  0.87500  Biso   1.000  C
  C191     1.0000 0.87500  0.23610  0.37500  Biso   1.000  C
  C192     1.0000 0.87500  0.30840  0.37500  Biso   1.000  C
