data_image0
_cell_length_a       8.851
_cell_length_b       20.676
_cell_length_c       34.203
_cell_angle_alpha    90
_cell_angle_beta     90
_cell_angle_gamma    90

_symmetry_space_group_name_H-M    "P 1"
_symmetry_int_tables_number       1

loop_
  _symmetry_equiv_pos_as_xyz
  'x, y, z'

loop_
  _atom_site_label
  _atom_site_occupancy
  _atom_site_fract_x
  _atom_site_fract_y
  _atom_site_fract_z
  _atom_site_thermal_displace_type
  _atom_site_B_iso_or_equiv
  _atom_site_type_symbol
  O1       1.0000 0.24130  0.33310  0.67920  Biso   1.000  O
  C1       1.0000 0.10240  0.32040  0.68190  Biso   1.000  C
  O2       1.0000 0.00600  0.33590  0.65700  Biso   1.000  O
  C2       1.0000 0.04960  0.28390  0.71720  Biso   1.000  C
  C3       1.0000 0.14940  0.26460  0.74570  Biso   1.000  C
  C4       1.0000 0.10020  0.23060  0.77850  Biso   1.000  C
  O3       1.0000 0.24580  0.45750  0.63470  Biso   1.000  O
  C5       1.0000 0.25900  0.59150  0.62500  Biso   1.000  C
  H1       1.0000 0.25310  0.27530  0.74310  Biso   1.000  H
  H2       1.0000 0.17130  0.21630  0.79730  Biso   1.000  H
  H3       1.0000 0.35190  0.56870  0.62630  Biso   1.000  H
  O4       1.0000 0.24130  0.83310  0.17920  Biso   1.000  O
  C6       1.0000 0.10240  0.82040  0.18190  Biso   1.000  C
  O5       1.0000 0.00600  0.83590  0.15700  Biso   1.000  O
  C7       1.0000 0.04960  0.78390  0.21720  Biso   1.000  C
  C8       1.0000 0.14940  0.76460  0.24570  Biso   1.000  C
  C9       1.0000 0.10020  0.73060  0.27850  Biso   1.000  C
  O6       1.0000 0.24580  0.95750  0.13470  Biso   1.000  O
  C10      1.0000 0.25900  0.09150  0.12500  Biso   1.000  C
  H4       1.0000 0.25310  0.77530  0.24310  Biso   1.000  H
  H5       1.0000 0.17130  0.71630  0.29730  Biso   1.000  H
  H6       1.0000 0.35190  0.06870  0.12630  Biso   1.000  H
  O7       1.0000 0.74130  0.33310  0.17920  Biso   1.000  O
  C11      1.0000 0.60240  0.32040  0.18190  Biso   1.000  C
  O8       1.0000 0.50600  0.33590  0.15700  Biso   1.000  O
  C12      1.0000 0.54960  0.28390  0.21720  Biso   1.000  C
  C13      1.0000 0.64940  0.26460  0.24570  Biso   1.000  C
  C14      1.0000 0.60020  0.23060  0.27850  Biso   1.000  C
  O9       1.0000 0.74580  0.45750  0.13470  Biso   1.000  O
  C15      1.0000 0.75900  0.59150  0.12500  Biso   1.000  C
  H7       1.0000 0.75310  0.27530  0.24310  Biso   1.000  H
  H8       1.0000 0.67130  0.21630  0.29730  Biso   1.000  H
  H9       1.0000 0.85190  0.56870  0.12630  Biso   1.000  H
  O10      1.0000 0.74130  0.83310  0.67920  Biso   1.000  O
  C16      1.0000 0.60240  0.82040  0.68190  Biso   1.000  C
  O11      1.0000 0.50600  0.83590  0.65700  Biso   1.000  O
  C17      1.0000 0.54960  0.78390  0.71720  Biso   1.000  C
  C18      1.0000 0.64940  0.76460  0.74570  Biso   1.000  C
  C19      1.0000 0.60020  0.73060  0.77850  Biso   1.000  C
  O12      1.0000 0.74580  0.95750  0.63470  Biso   1.000  O
  C20      1.0000 0.75900  0.09150  0.62500  Biso   1.000  C
  H10      1.0000 0.75310  0.77530  0.74310  Biso   1.000  H
  H11      1.0000 0.67130  0.71630  0.79730  Biso   1.000  H
  H12      1.0000 0.85190  0.06870  0.62630  Biso   1.000  H
  O13      1.0000 0.50870  0.41690  0.67920  Biso   1.000  O
  C21      1.0000 0.64760  0.42960  0.68190  Biso   1.000  C
  O14      1.0000 0.74400  0.41410  0.65700  Biso   1.000  O
  C22      1.0000 0.70040  0.46610  0.71720  Biso   1.000  C
  C23      1.0000 0.60060  0.48540  0.74570  Biso   1.000  C
  C24      1.0000 0.64980  0.51940  0.77850  Biso   1.000  C
  O15      1.0000 0.50420  0.29250  0.63470  Biso   1.000  O
  C25      1.0000 0.49100  0.15850  0.62500  Biso   1.000  C
  H13      1.0000 0.49690  0.47470  0.74310  Biso   1.000  H
  H14      1.0000 0.57870  0.53370  0.79730  Biso   1.000  H
  H15      1.0000 0.39810  0.18130  0.62630  Biso   1.000  H
  O16      1.0000 0.50870  0.91690  0.17920  Biso   1.000  O
  C26      1.0000 0.64760  0.92960  0.18190  Biso   1.000  C
  O17      1.0000 0.74400  0.91410  0.15700  Biso   1.000  O
  C27      1.0000 0.70040  0.96610  0.21720  Biso   1.000  C
  C28      1.0000 0.60060  0.98540  0.24570  Biso   1.000  C
  C29      1.0000 0.64980  0.01940  0.27850  Biso   1.000  C
  O18      1.0000 0.50420  0.79250  0.13470  Biso   1.000  O
  C30      1.0000 0.49100  0.65850  0.12500  Biso   1.000  C
  H16      1.0000 0.49690  0.97470  0.24310  Biso   1.000  H
  H17      1.0000 0.57870  0.03370  0.29730  Biso   1.000  H
  H18      1.0000 0.39810  0.68130  0.12630  Biso   1.000  H
  O19      1.0000 0.00870  0.41690  0.17920  Biso   1.000  O
  C31      1.0000 0.14760  0.42960  0.18190  Biso   1.000  C
  O20      1.0000 0.24400  0.41410  0.15700  Biso   1.000  O
  C32      1.0000 0.20040  0.46610  0.21720  Biso   1.000  C
  C33      1.0000 0.10060  0.48540  0.24570  Biso   1.000  C
  C34      1.0000 0.14980  0.51940  0.27850  Biso   1.000  C
  O21      1.0000 0.00420  0.29250  0.13470  Biso   1.000  O
  C35      1.0000 0.99100  0.15850  0.12500  Biso   1.000  C
  H19      1.0000 0.99690  0.47470  0.24310  Biso   1.000  H
  H20      1.0000 0.07870  0.53370  0.29730  Biso   1.000  H
  H21      1.0000 0.89810  0.18130  0.12630  Biso   1.000  H
  O22      1.0000 0.00870  0.91690  0.67920  Biso   1.000  O
  C36      1.0000 0.14760  0.92960  0.68190  Biso   1.000  C
  O23      1.0000 0.24400  0.91410  0.65700  Biso   1.000  O
  C37      1.0000 0.20040  0.96610  0.71720  Biso   1.000  C
  C38      1.0000 0.10060  0.98540  0.74570  Biso   1.000  C
  C39      1.0000 0.14980  0.01940  0.77850  Biso   1.000  C
  O24      1.0000 0.00420  0.79250  0.63470  Biso   1.000  O
  C40      1.0000 0.99100  0.65850  0.62500  Biso   1.000  C
  H22      1.0000 0.99690  0.97470  0.74310  Biso   1.000  H
  H23      1.0000 0.07870  0.03370  0.79730  Biso   1.000  H
  H24      1.0000 0.89810  0.68130  0.62630  Biso   1.000  H
  O25      1.0000 0.50870  0.33310  0.07080  Biso   1.000  O
  C41      1.0000 0.64760  0.32040  0.06810  Biso   1.000  C
  O26      1.0000 0.74400  0.33590  0.09300  Biso   1.000  O
  C42      1.0000 0.70040  0.28390  0.03280  Biso   1.000  C
  C43      1.0000 0.60060  0.26460  0.00430  Biso   1.000  C
  C44      1.0000 0.64980  0.23060  0.97150  Biso   1.000  C
  O27      1.0000 0.50420  0.45750  0.11530  Biso   1.000  O
  C45      1.0000 0.49100  0.59150  0.12500  Biso   1.000  C
  H25      1.0000 0.49690  0.27530  0.00690  Biso   1.000  H
  H26      1.0000 0.57870  0.21630  0.95270  Biso   1.000  H
  H27      1.0000 0.39810  0.56870  0.12370  Biso   1.000  H
  O28      1.0000 0.50870  0.83310  0.57080  Biso   1.000  O
  C46      1.0000 0.64760  0.82040  0.56810  Biso   1.000  C
  O29      1.0000 0.74400  0.83590  0.59300  Biso   1.000  O
  C47      1.0000 0.70040  0.78390  0.53280  Biso   1.000  C
  C48      1.0000 0.60060  0.76460  0.50430  Biso   1.000  C
  C49      1.0000 0.64980  0.73060  0.47150  Biso   1.000  C
  O30      1.0000 0.50420  0.95750  0.61530  Biso   1.000  O
  C50      1.0000 0.49100  0.09150  0.62500  Biso   1.000  C
  H28      1.0000 0.49690  0.77530  0.50690  Biso   1.000  H
  H29      1.0000 0.57870  0.71630  0.45270  Biso   1.000  H
  H30      1.0000 0.39810  0.06870  0.62370  Biso   1.000  H
  O31      1.0000 0.00870  0.33310  0.57080  Biso   1.000  O
  C51      1.0000 0.14760  0.32040  0.56810  Biso   1.000  C
  O32      1.0000 0.24400  0.33590  0.59300  Biso   1.000  O
  C52      1.0000 0.20040  0.28390  0.53280  Biso   1.000  C
  C53      1.0000 0.10060  0.26460  0.50430  Biso   1.000  C
  C54      1.0000 0.14980  0.23060  0.47150  Biso   1.000  C
  O33      1.0000 0.00420  0.45750  0.61530  Biso   1.000  O
  C55      1.0000 0.99100  0.59150  0.62500  Biso   1.000  C
  H31      1.0000 0.99690  0.27530  0.50690  Biso   1.000  H
  H32      1.0000 0.07870  0.21630  0.45270  Biso   1.000  H
  H33      1.0000 0.89810  0.56870  0.62370  Biso   1.000  H
  O34      1.0000 0.00870  0.83310  0.07080  Biso   1.000  O
  C56      1.0000 0.14760  0.82040  0.06810  Biso   1.000  C
  O35      1.0000 0.24400  0.83590  0.09300  Biso   1.000  O
  C57      1.0000 0.20040  0.78390  0.03280  Biso   1.000  C
  C58      1.0000 0.10060  0.76460  0.00430  Biso   1.000  C
  C59      1.0000 0.14980  0.73060  0.97150  Biso   1.000  C
  O36      1.0000 0.00420  0.95750  0.11530  Biso   1.000  O
  C60      1.0000 0.99100  0.09150  0.12500  Biso   1.000  C
  H34      1.0000 0.99690  0.77530  0.00690  Biso   1.000  H
  H35      1.0000 0.07870  0.71630  0.95270  Biso   1.000  H
  H36      1.0000 0.89810  0.06870  0.12370  Biso   1.000  H
  O37      1.0000 0.24130  0.41690  0.07080  Biso   1.000  O
  C61      1.0000 0.10240  0.42960  0.06810  Biso   1.000  C
  O38      1.0000 0.00600  0.41410  0.09300  Biso   1.000  O
  C62      1.0000 0.04960  0.46610  0.03280  Biso   1.000  C
  C63      1.0000 0.14940  0.48540  0.00430  Biso   1.000  C
  C64      1.0000 0.10020  0.51940  0.97150  Biso   1.000  C
  O39      1.0000 0.24580  0.29250  0.11530  Biso   1.000  O
  C65      1.0000 0.25900  0.15850  0.12500  Biso   1.000  C
  H37      1.0000 0.25310  0.47470  0.00690  Biso   1.000  H
  H38      1.0000 0.17130  0.53370  0.95270  Biso   1.000  H
  H39      1.0000 0.35190  0.18130  0.12370  Biso   1.000  H
  O40      1.0000 0.24130  0.91690  0.57080  Biso   1.000  O
  C66      1.0000 0.10240  0.92960  0.56810  Biso   1.000  C
  O41      1.0000 0.00600  0.91410  0.59300  Biso   1.000  O
  C67      1.0000 0.04960  0.96610  0.53280  Biso   1.000  C
  C68      1.0000 0.14940  0.98540  0.50430  Biso   1.000  C
  C69      1.0000 0.10020  0.01940  0.47150  Biso   1.000  C
  O42      1.0000 0.24580  0.79250  0.61530  Biso   1.000  O
  C70      1.0000 0.25900  0.65850  0.62500  Biso   1.000  C
  H40      1.0000 0.25310  0.97470  0.50690  Biso   1.000  H
  H41      1.0000 0.17130  0.03370  0.45270  Biso   1.000  H
  H42      1.0000 0.35190  0.68130  0.62370  Biso   1.000  H
  O43      1.0000 0.74130  0.41690  0.57080  Biso   1.000  O
  C71      1.0000 0.60240  0.42960  0.56810  Biso   1.000  C
  O44      1.0000 0.50600  0.41410  0.59300  Biso   1.000  O
  C72      1.0000 0.54960  0.46610  0.53280  Biso   1.000  C
  C73      1.0000 0.64940  0.48540  0.50430  Biso   1.000  C
  C74      1.0000 0.60020  0.51940  0.47150  Biso   1.000  C
  O45      1.0000 0.74580  0.29250  0.61530  Biso   1.000  O
  C75      1.0000 0.75900  0.15850  0.62500  Biso   1.000  C
  H43      1.0000 0.75310  0.47470  0.50690  Biso   1.000  H
  H44      1.0000 0.67130  0.53370  0.45270  Biso   1.000  H
  H45      1.0000 0.85190  0.18130  0.62370  Biso   1.000  H
  O46      1.0000 0.74130  0.91690  0.07080  Biso   1.000  O
  C76      1.0000 0.60240  0.92960  0.06810  Biso   1.000  C
  O47      1.0000 0.50600  0.91410  0.09300  Biso   1.000  O
  C77      1.0000 0.54960  0.96610  0.03280  Biso   1.000  C
  C78      1.0000 0.64940  0.98540  0.00430  Biso   1.000  C
  C79      1.0000 0.60020  0.01940  0.97150  Biso   1.000  C
  O48      1.0000 0.74580  0.79250  0.11530  Biso   1.000  O
  C80      1.0000 0.75900  0.65850  0.12500  Biso   1.000  C
  H46      1.0000 0.75310  0.97470  0.00690  Biso   1.000  H
  H47      1.0000 0.67130  0.03370  0.95270  Biso   1.000  H
  H48      1.0000 0.85190  0.68130  0.12370  Biso   1.000  H
  O49      1.0000 0.75870  0.66690  0.32080  Biso   1.000  O
  C81      1.0000 0.89760  0.67960  0.31810  Biso   1.000  C
  O50      1.0000 0.99400  0.66410  0.34300  Biso   1.000  O
  C82      1.0000 0.95040  0.71610  0.28280  Biso   1.000  C
  C83      1.0000 0.85060  0.73540  0.25430  Biso   1.000  C
  C84      1.0000 0.89980  0.76940  0.22150  Biso   1.000  C
  O51      1.0000 0.75420  0.54250  0.36530  Biso   1.000  O
  C85      1.0000 0.74100  0.40850  0.37500  Biso   1.000  C
  H49      1.0000 0.74690  0.72470  0.25690  Biso   1.000  H
  H50      1.0000 0.82870  0.78370  0.20270  Biso   1.000  H
  H51      1.0000 0.64810  0.43130  0.37370  Biso   1.000  H
  O52      1.0000 0.75870  0.16690  0.82080  Biso   1.000  O
  C86      1.0000 0.89760  0.17960  0.81810  Biso   1.000  C
  O53      1.0000 0.99400  0.16410  0.84300  Biso   1.000  O
  C87      1.0000 0.95040  0.21610  0.78280  Biso   1.000  C
  C88      1.0000 0.85060  0.23540  0.75430  Biso   1.000  C
  C89      1.0000 0.89980  0.26940  0.72150  Biso   1.000  C
  O54      1.0000 0.75420  0.04250  0.86530  Biso   1.000  O
  C90      1.0000 0.74100  0.90850  0.87500  Biso   1.000  C
  H52      1.0000 0.74690  0.22470  0.75690  Biso   1.000  H
  H53      1.0000 0.82870  0.28370  0.70270  Biso   1.000  H
  H54      1.0000 0.64810  0.93130  0.87370  Biso   1.000  H
  O55      1.0000 0.25870  0.66690  0.82080  Biso   1.000  O
  C91      1.0000 0.39760  0.67960  0.81810  Biso   1.000  C
  O56      1.0000 0.49400  0.66410  0.84300  Biso   1.000  O
  C92      1.0000 0.45040  0.71610  0.78280  Biso   1.000  C
  C93      1.0000 0.35060  0.73540  0.75430  Biso   1.000  C
  C94      1.0000 0.39980  0.76940  0.72150  Biso   1.000  C
  O57      1.0000 0.25420  0.54250  0.86530  Biso   1.000  O
  C95      1.0000 0.24100  0.40850  0.87500  Biso   1.000  C
  H55      1.0000 0.24690  0.72470  0.75690  Biso   1.000  H
  H56      1.0000 0.32870  0.78370  0.70270  Biso   1.000  H
  H57      1.0000 0.14810  0.43130  0.87370  Biso   1.000  H
  O58      1.0000 0.25870  0.16690  0.32080  Biso   1.000  O
  C96      1.0000 0.39760  0.17960  0.31810  Biso   1.000  C
  O59      1.0000 0.49400  0.16410  0.34300  Biso   1.000  O
  C97      1.0000 0.45040  0.21610  0.28280  Biso   1.000  C
  C98      1.0000 0.35060  0.23540  0.25430  Biso   1.000  C
  C99      1.0000 0.39980  0.26940  0.22150  Biso   1.000  C
  O60      1.0000 0.25420  0.04250  0.36530  Biso   1.000  O
  C100     1.0000 0.24100  0.90850  0.37500  Biso   1.000  C
  H58      1.0000 0.24690  0.22470  0.25690  Biso   1.000  H
  H59      1.0000 0.32870  0.28370  0.20270  Biso   1.000  H
  H60      1.0000 0.14810  0.93130  0.37370  Biso   1.000  H
  O61      1.0000 0.49130  0.58310  0.32080  Biso   1.000  O
  C101     1.0000 0.35240  0.57040  0.31810  Biso   1.000  C
  O62      1.0000 0.25600  0.58590  0.34300  Biso   1.000  O
  C102     1.0000 0.29960  0.53390  0.28280  Biso   1.000  C
  C103     1.0000 0.39940  0.51460  0.25430  Biso   1.000  C
  C104     1.0000 0.35020  0.48060  0.22150  Biso   1.000  C
  O63      1.0000 0.49580  0.70750  0.36530  Biso   1.000  O
  C105     1.0000 0.50900  0.84150  0.37500  Biso   1.000  C
  H61      1.0000 0.50310  0.52530  0.25690  Biso   1.000  H
  H62      1.0000 0.42130  0.46630  0.20270  Biso   1.000  H
  H63      1.0000 0.60190  0.81870  0.37370  Biso   1.000  H
  O64      1.0000 0.49130  0.08310  0.82080  Biso   1.000  O
  C106     1.0000 0.35240  0.07040  0.81810  Biso   1.000  C
  O65      1.0000 0.25600  0.08590  0.84300  Biso   1.000  O
  C107     1.0000 0.29960  0.03390  0.78280  Biso   1.000  C
  C108     1.0000 0.39940  0.01460  0.75430  Biso   1.000  C
  C109     1.0000 0.35020  0.98060  0.72150  Biso   1.000  C
  O66      1.0000 0.49580  0.20750  0.86530  Biso   1.000  O
  C110     1.0000 0.50900  0.34150  0.87500  Biso   1.000  C
  H64      1.0000 0.50310  0.02530  0.75690  Biso   1.000  H
  H65      1.0000 0.42130  0.96630  0.70270  Biso   1.000  H
  H66      1.0000 0.60190  0.31870  0.87370  Biso   1.000  H
  O67      1.0000 0.99130  0.58310  0.82080  Biso   1.000  O
  C111     1.0000 0.85240  0.57040  0.81810  Biso   1.000  C
  O68      1.0000 0.75600  0.58590  0.84300  Biso   1.000  O
  C112     1.0000 0.79960  0.53390  0.78280  Biso   1.000  C
  C113     1.0000 0.89940  0.51460  0.75430  Biso   1.000  C
  C114     1.0000 0.85020  0.48060  0.72150  Biso   1.000  C
  O69      1.0000 0.99580  0.70750  0.86530  Biso   1.000  O
  C115     1.0000 0.00900  0.84150  0.87500  Biso   1.000  C
  H67      1.0000 0.00310  0.52530  0.75690  Biso   1.000  H
  H68      1.0000 0.92130  0.46630  0.70270  Biso   1.000  H
  H69      1.0000 0.10190  0.81870  0.87370  Biso   1.000  H
  O70      1.0000 0.99130  0.08310  0.32080  Biso   1.000  O
  C116     1.0000 0.85240  0.07040  0.31810  Biso   1.000  C
  O71      1.0000 0.75600  0.08590  0.34300  Biso   1.000  O
  C117     1.0000 0.79960  0.03390  0.28280  Biso   1.000  C
  C118     1.0000 0.89940  0.01460  0.25430  Biso   1.000  C
  C119     1.0000 0.85020  0.98060  0.22150  Biso   1.000  C
  O72      1.0000 0.99580  0.20750  0.36530  Biso   1.000  O
  C120     1.0000 0.00900  0.34150  0.37500  Biso   1.000  C
  H70      1.0000 0.00310  0.02530  0.25690  Biso   1.000  H
  H71      1.0000 0.92130  0.96630  0.20270  Biso   1.000  H
  H72      1.0000 0.10190  0.31870  0.37370  Biso   1.000  H
  O73      1.0000 0.49130  0.66690  0.92920  Biso   1.000  O
  C121     1.0000 0.35240  0.67960  0.93190  Biso   1.000  C
  O74      1.0000 0.25600  0.66410  0.90700  Biso   1.000  O
  C122     1.0000 0.29960  0.71610  0.96720  Biso   1.000  C
  C123     1.0000 0.39940  0.73540  0.99570  Biso   1.000  C
  C124     1.0000 0.35020  0.76940  0.02850  Biso   1.000  C
  O75      1.0000 0.49580  0.54250  0.88470  Biso   1.000  O
  C125     1.0000 0.50900  0.40850  0.87500  Biso   1.000  C
  H73      1.0000 0.50310  0.72470  0.99310  Biso   1.000  H
  H74      1.0000 0.42130  0.78370  0.04730  Biso   1.000  H
  H75      1.0000 0.60190  0.43130  0.87630  Biso   1.000  H
  O76      1.0000 0.49130  0.16690  0.42920  Biso   1.000  O
  C126     1.0000 0.35240  0.17960  0.43190  Biso   1.000  C
  O77      1.0000 0.25600  0.16410  0.40700  Biso   1.000  O
  C127     1.0000 0.29960  0.21610  0.46720  Biso   1.000  C
  C128     1.0000 0.39940  0.23540  0.49570  Biso   1.000  C
  C129     1.0000 0.35020  0.26940  0.52850  Biso   1.000  C
  O78      1.0000 0.49580  0.04250  0.38470  Biso   1.000  O
  C130     1.0000 0.50900  0.90850  0.37500  Biso   1.000  C
  H76      1.0000 0.50310  0.22470  0.49310  Biso   1.000  H
  H77      1.0000 0.42130  0.28370  0.54730  Biso   1.000  H
  H78      1.0000 0.60190  0.93130  0.37630  Biso   1.000  H
  O79      1.0000 0.99130  0.66690  0.42920  Biso   1.000  O
  C131     1.0000 0.85240  0.67960  0.43190  Biso   1.000  C
  O80      1.0000 0.75600  0.66410  0.40700  Biso   1.000  O
  C132     1.0000 0.79960  0.71610  0.46720  Biso   1.000  C
  C133     1.0000 0.89940  0.73540  0.49570  Biso   1.000  C
  C134     1.0000 0.85020  0.76940  0.52850  Biso   1.000  C
  O81      1.0000 0.99580  0.54250  0.38470  Biso   1.000  O
  C135     1.0000 0.00900  0.40850  0.37500  Biso   1.000  C
  H79      1.0000 0.00310  0.72470  0.49310  Biso   1.000  H
  H80      1.0000 0.92130  0.78370  0.54730  Biso   1.000  H
  H81      1.0000 0.10190  0.43130  0.37630  Biso   1.000  H
  O82      1.0000 0.99130  0.16690  0.92920  Biso   1.000  O
  C136     1.0000 0.85240  0.17960  0.93190  Biso   1.000  C
  O83      1.0000 0.75600  0.16410  0.90700  Biso   1.000  O
  C137     1.0000 0.79960  0.21610  0.96720  Biso   1.000  C
  C138     1.0000 0.89940  0.23540  0.99570  Biso   1.000  C
  C139     1.0000 0.85020  0.26940  0.02850  Biso   1.000  C
  O84      1.0000 0.99580  0.04250  0.88470  Biso   1.000  O
  C140     1.0000 0.00900  0.90850  0.87500  Biso   1.000  C
  H82      1.0000 0.00310  0.22470  0.99310  Biso   1.000  H
  H83      1.0000 0.92130  0.28370  0.04730  Biso   1.000  H
  H84      1.0000 0.10190  0.93130  0.87630  Biso   1.000  H
  O85      1.0000 0.75870  0.58310  0.92920  Biso   1.000  O
  C141     1.0000 0.89760  0.57040  0.93190  Biso   1.000  C
  O86      1.0000 0.99400  0.58590  0.90700  Biso   1.000  O
  C142     1.0000 0.95040  0.53390  0.96720  Biso   1.000  C
  C143     1.0000 0.85060  0.51460  0.99570  Biso   1.000  C
  C144     1.0000 0.89980  0.48060  0.02850  Biso   1.000  C
  O87      1.0000 0.75420  0.70750  0.88470  Biso   1.000  O
  C145     1.0000 0.74100  0.84150  0.87500  Biso   1.000  C
  H85      1.0000 0.74690  0.52530  0.99310  Biso   1.000  H
  H86      1.0000 0.82870  0.46630  0.04730  Biso   1.000  H
  H87      1.0000 0.64810  0.81870  0.87630  Biso   1.000  H
  O88      1.0000 0.75870  0.08310  0.42920  Biso   1.000  O
  C146     1.0000 0.89760  0.07040  0.43190  Biso   1.000  C
  O89      1.0000 0.99400  0.08590  0.40700  Biso   1.000  O
  C147     1.0000 0.95040  0.03390  0.46720  Biso   1.000  C
  C148     1.0000 0.85060  0.01460  0.49570  Biso   1.000  C
  C149     1.0000 0.89980  0.98060  0.52850  Biso   1.000  C
  O90      1.0000 0.75420  0.20750  0.38470  Biso   1.000  O
  C150     1.0000 0.74100  0.34150  0.37500  Biso   1.000  C
  H88      1.0000 0.74690  0.02530  0.49310  Biso   1.000  H
  H89      1.0000 0.82870  0.96630  0.54730  Biso   1.000  H
  H90      1.0000 0.64810  0.31870  0.37630  Biso   1.000  H
  O91      1.0000 0.25870  0.58310  0.42920  Biso   1.000  O
  C151     1.0000 0.39760  0.57040  0.43190  Biso   1.000  C
  O92      1.0000 0.49400  0.58590  0.40700  Biso   1.000  O
  C152     1.0000 0.45040  0.53390  0.46720  Biso   1.000  C
  C153     1.0000 0.35060  0.51460  0.49570  Biso   1.000  C
  C154     1.0000 0.39980  0.48060  0.52850  Biso   1.000  C
  O93      1.0000 0.25420  0.70750  0.38470  Biso   1.000  O
  C155     1.0000 0.24100  0.84150  0.37500  Biso   1.000  C
  H91      1.0000 0.24690  0.52530  0.49310  Biso   1.000  H
  H92      1.0000 0.32870  0.46630  0.54730  Biso   1.000  H
  H93      1.0000 0.14810  0.81870  0.37630  Biso   1.000  H
  O94      1.0000 0.25870  0.08310  0.92920  Biso   1.000  O
  C156     1.0000 0.39760  0.07040  0.93190  Biso   1.000  C
  O95      1.0000 0.49400  0.08590  0.90700  Biso   1.000  O
  C157     1.0000 0.45040  0.03390  0.96720  Biso   1.000  C
  C158     1.0000 0.35060  0.01460  0.99570  Biso   1.000  C
  C159     1.0000 0.39980  0.98060  0.02850  Biso   1.000  C
  O96      1.0000 0.25420  0.20750  0.88470  Biso   1.000  O
  C160     1.0000 0.24100  0.34150  0.87500  Biso   1.000  C
  H94      1.0000 0.24690  0.02530  0.99310  Biso   1.000  H
  H95      1.0000 0.32870  0.96630  0.04730  Biso   1.000  H
  H96      1.0000 0.14810  0.31870  0.87630  Biso   1.000  H
  Sc1      1.0000 0.37500  0.37500  0.63530  Biso   1.000  Sc
  Sc2      1.0000 0.37500  0.87500  0.13530  Biso   1.000  Sc
  Sc3      1.0000 0.87500  0.37500  0.13530  Biso   1.000  Sc
  Sc4      1.0000 0.87500  0.87500  0.63530  Biso   1.000  Sc
  Sc5      1.0000 0.37500  0.37500  0.11470  Biso   1.000  Sc
  Sc6      1.0000 0.37500  0.87500  0.61470  Biso   1.000  Sc
  Sc7      1.0000 0.87500  0.37500  0.61470  Biso   1.000  Sc
  Sc8      1.0000 0.87500  0.87500  0.11470  Biso   1.000  Sc
  Sc9      1.0000 0.62500  0.62500  0.36470  Biso   1.000  Sc
  Sc10     1.0000 0.62500  0.12500  0.86470  Biso   1.000  Sc
  Sc11     1.0000 0.12500  0.62500  0.86470  Biso   1.000  Sc
  Sc12     1.0000 0.12500  0.12500  0.36470  Biso   1.000  Sc
  Sc13     1.0000 0.62500  0.62500  0.88530  Biso   1.000  Sc
  Sc14     1.0000 0.62500  0.12500  0.38530  Biso   1.000  Sc
  Sc15     1.0000 0.12500  0.62500  0.38530  Biso   1.000  Sc
  Sc16     1.0000 0.12500  0.12500  0.88530  Biso   1.000  Sc
  C161     1.0000 0.12500  0.48570  0.62500  Biso   1.000  C
  C162     1.0000 0.12500  0.55780  0.62500  Biso   1.000  C
  C163     1.0000 0.12500  0.98570  0.12500  Biso   1.000  C
  C164     1.0000 0.12500  0.05780  0.12500  Biso   1.000  C
  C165     1.0000 0.62500  0.98570  0.62500  Biso   1.000  C
  C166     1.0000 0.62500  0.05780  0.62500  Biso   1.000  C
  C167     1.0000 0.62500  0.26430  0.62500  Biso   1.000  C
  C168     1.0000 0.62500  0.19220  0.62500  Biso   1.000  C
  C169     1.0000 0.62500  0.76430  0.12500  Biso   1.000  C
  C170     1.0000 0.62500  0.69220  0.12500  Biso   1.000  C
  C171     1.0000 0.62500  0.48570  0.12500  Biso   1.000  C
  C172     1.0000 0.62500  0.55780  0.12500  Biso   1.000  C
  C173     1.0000 0.12500  0.26430  0.12500  Biso   1.000  C
  C174     1.0000 0.12500  0.19220  0.12500  Biso   1.000  C
  C175     1.0000 0.12500  0.76430  0.62500  Biso   1.000  C
  C176     1.0000 0.12500  0.69220  0.62500  Biso   1.000  C
  C177     1.0000 0.87500  0.51430  0.37500  Biso   1.000  C
  C178     1.0000 0.87500  0.44220  0.37500  Biso   1.000  C
  C179     1.0000 0.87500  0.01430  0.87500  Biso   1.000  C
  C180     1.0000 0.87500  0.94220  0.87500  Biso   1.000  C
  C181     1.0000 0.37500  0.73570  0.37500  Biso   1.000  C
  C182     1.0000 0.37500  0.80780  0.37500  Biso   1.000  C
  C183     1.0000 0.37500  0.23570  0.87500  Biso   1.000  C
  C184     1.0000 0.37500  0.30780  0.87500  Biso   1.000  C
  C185     1.0000 0.37500  0.51430  0.87500  Biso   1.000  C
  C186     1.0000 0.37500  0.44220  0.87500  Biso   1.000  C
  C187     1.0000 0.37500  0.01430  0.37500  Biso   1.000  C
  C188     1.0000 0.37500  0.94220  0.37500  Biso   1.000  C
  C189     1.0000 0.87500  0.73570  0.87500  Biso   1.000  C
  C190     1.0000 0.87500  0.80780  0.87500  Biso   1.000  C
  C191     1.0000 0.87500  0.23570  0.37500  Biso   1.000  C
  C192     1.0000 0.87500  0.30780  0.37500  Biso   1.000  C
