data_image0
_cell_length_a       8.8244
_cell_length_b       20.6223
_cell_length_c       34.123
_cell_angle_alpha    90
_cell_angle_beta     90
_cell_angle_gamma    90

_symmetry_space_group_name_H-M    "P 1"
_symmetry_int_tables_number       1

loop_
  _symmetry_equiv_pos_as_xyz
  'x, y, z'

loop_
  _atom_site_label
  _atom_site_occupancy
  _atom_site_fract_x
  _atom_site_fract_y
  _atom_site_fract_z
  _atom_site_thermal_displace_type
  _atom_site_B_iso_or_equiv
  _atom_site_type_symbol
  O1       1.0000 0.24200  0.33260  0.67920  Biso   1.000  O
  C1       1.0000 0.10340  0.32000  0.68210  Biso   1.000  C
  O2       1.0000 0.00810  0.33550  0.65700  Biso   1.000  O
  C2       1.0000 0.04950  0.28440  0.71780  Biso   1.000  C
  C3       1.0000 0.14980  0.26480  0.74580  Biso   1.000  C
  C4       1.0000 0.10110  0.23010  0.77790  Biso   1.000  C
  O3       1.0000 0.24490  0.45750  0.63430  Biso   1.000  O
  C5       1.0000 0.25930  0.59149  0.62490  Biso   1.000  C
  H1       1.0000 0.25350  0.27560  0.74320  Biso   1.000  H
  H2       1.0000 0.17220  0.21580  0.79680  Biso   1.000  H
  H3       1.0000 0.35220  0.56870  0.62620  Biso   1.000  H
  O4       1.0000 0.24200  0.83260  0.17920  Biso   1.000  O
  C6       1.0000 0.10340  0.82000  0.18210  Biso   1.000  C
  O5       1.0000 0.00810  0.83550  0.15700  Biso   1.000  O
  C7       1.0000 0.04950  0.78440  0.21780  Biso   1.000  C
  C8       1.0000 0.14980  0.76480  0.24580  Biso   1.000  C
  C9       1.0000 0.10110  0.73010  0.27790  Biso   1.000  C
  O6       1.0000 0.24490  0.95750  0.13430  Biso   1.000  O
  C10      1.0000 0.25930  0.09149  0.12490  Biso   1.000  C
  H4       1.0000 0.25350  0.77560  0.24320  Biso   1.000  H
  H5       1.0000 0.17220  0.71580  0.29680  Biso   1.000  H
  H6       1.0000 0.35220  0.06870  0.12620  Biso   1.000  H
  O7       1.0000 0.74200  0.33260  0.17920  Biso   1.000  O
  C11      1.0000 0.60340  0.32000  0.18210  Biso   1.000  C
  O8       1.0000 0.50810  0.33550  0.15700  Biso   1.000  O
  C12      1.0000 0.54950  0.28440  0.21780  Biso   1.000  C
  C13      1.0000 0.64980  0.26480  0.24580  Biso   1.000  C
  C14      1.0000 0.60110  0.23010  0.27790  Biso   1.000  C
  O9       1.0000 0.74490  0.45750  0.13430  Biso   1.000  O
  C15      1.0000 0.75930  0.59149  0.12490  Biso   1.000  C
  H7       1.0000 0.75350  0.27560  0.24320  Biso   1.000  H
  H8       1.0000 0.67220  0.21580  0.29680  Biso   1.000  H
  H9       1.0000 0.85220  0.56870  0.12620  Biso   1.000  H
  O10      1.0000 0.74200  0.83260  0.67920  Biso   1.000  O
  C16      1.0000 0.60340  0.82000  0.68210  Biso   1.000  C
  O11      1.0000 0.50810  0.83550  0.65700  Biso   1.000  O
  C17      1.0000 0.54950  0.78440  0.71780  Biso   1.000  C
  C18      1.0000 0.64980  0.76480  0.74580  Biso   1.000  C
  C19      1.0000 0.60110  0.73010  0.77790  Biso   1.000  C
  O12      1.0000 0.74490  0.95750  0.63430  Biso   1.000  O
  C20      1.0000 0.75930  0.09149  0.62490  Biso   1.000  C
  H10      1.0000 0.75350  0.77560  0.74320  Biso   1.000  H
  H11      1.0000 0.67220  0.71580  0.79680  Biso   1.000  H
  H12      1.0000 0.85220  0.06870  0.62620  Biso   1.000  H
  O13      1.0000 0.50800  0.41740  0.67920  Biso   1.000  O
  C21      1.0000 0.64660  0.43000  0.68210  Biso   1.000  C
  O14      1.0000 0.74190  0.41450  0.65700  Biso   1.000  O
  C22      1.0000 0.70050  0.46560  0.71780  Biso   1.000  C
  C23      1.0000 0.60020  0.48520  0.74580  Biso   1.000  C
  C24      1.0000 0.64890  0.51990  0.77790  Biso   1.000  C
  O15      1.0000 0.50510  0.29250  0.63430  Biso   1.000  O
  C25      1.0000 0.49070  0.15851  0.62490  Biso   1.000  C
  H13      1.0000 0.49650  0.47440  0.74320  Biso   1.000  H
  H14      1.0000 0.57780  0.53420  0.79680  Biso   1.000  H
  H15      1.0000 0.39780  0.18130  0.62620  Biso   1.000  H
  O16      1.0000 0.50800  0.91740  0.17920  Biso   1.000  O
  C26      1.0000 0.64660  0.93000  0.18210  Biso   1.000  C
  O17      1.0000 0.74190  0.91450  0.15700  Biso   1.000  O
  C27      1.0000 0.70050  0.96560  0.21780  Biso   1.000  C
  C28      1.0000 0.60020  0.98520  0.24580  Biso   1.000  C
  C29      1.0000 0.64890  0.01990  0.27790  Biso   1.000  C
  O18      1.0000 0.50510  0.79250  0.13430  Biso   1.000  O
  C30      1.0000 0.49070  0.65851  0.12490  Biso   1.000  C
  H16      1.0000 0.49650  0.97440  0.24320  Biso   1.000  H
  H17      1.0000 0.57780  0.03420  0.29680  Biso   1.000  H
  H18      1.0000 0.39780  0.68130  0.12620  Biso   1.000  H
  O19      1.0000 0.00800  0.41740  0.17920  Biso   1.000  O
  C31      1.0000 0.14660  0.43000  0.18210  Biso   1.000  C
  O20      1.0000 0.24190  0.41450  0.15700  Biso   1.000  O
  C32      1.0000 0.20050  0.46560  0.21780  Biso   1.000  C
  C33      1.0000 0.10020  0.48520  0.24580  Biso   1.000  C
  C34      1.0000 0.14890  0.51990  0.27790  Biso   1.000  C
  O21      1.0000 0.00510  0.29250  0.13430  Biso   1.000  O
  C35      1.0000 0.99070  0.15851  0.12490  Biso   1.000  C
  H19      1.0000 0.99650  0.47440  0.24320  Biso   1.000  H
  H20      1.0000 0.07780  0.53420  0.29680  Biso   1.000  H
  H21      1.0000 0.89780  0.18130  0.12620  Biso   1.000  H
  O22      1.0000 0.00800  0.91740  0.67920  Biso   1.000  O
  C36      1.0000 0.14660  0.93000  0.68210  Biso   1.000  C
  O23      1.0000 0.24190  0.91450  0.65700  Biso   1.000  O
  C37      1.0000 0.20050  0.96560  0.71780  Biso   1.000  C
  C38      1.0000 0.10020  0.98520  0.74580  Biso   1.000  C
  C39      1.0000 0.14890  0.01990  0.77790  Biso   1.000  C
  O24      1.0000 0.00510  0.79250  0.63430  Biso   1.000  O
  C40      1.0000 0.99070  0.65851  0.62490  Biso   1.000  C
  H22      1.0000 0.99650  0.97440  0.74320  Biso   1.000  H
  H23      1.0000 0.07780  0.03420  0.79680  Biso   1.000  H
  H24      1.0000 0.89780  0.68130  0.62620  Biso   1.000  H
  O25      1.0000 0.50800  0.33260  0.07080  Biso   1.000  O
  C41      1.0000 0.64660  0.32000  0.06790  Biso   1.000  C
  O26      1.0000 0.74190  0.33550  0.09300  Biso   1.000  O
  C42      1.0000 0.70050  0.28440  0.03220  Biso   1.000  C
  C43      1.0000 0.60020  0.26480  0.00420  Biso   1.000  C
  C44      1.0000 0.64890  0.23010  0.97210  Biso   1.000  C
  O27      1.0000 0.50510  0.45750  0.11570  Biso   1.000  O
  C45      1.0000 0.49070  0.59149  0.12510  Biso   1.000  C
  H25      1.0000 0.49650  0.27560  0.00680  Biso   1.000  H
  H26      1.0000 0.57780  0.21580  0.95320  Biso   1.000  H
  H27      1.0000 0.39780  0.56870  0.12380  Biso   1.000  H
  O28      1.0000 0.50800  0.83260  0.57080  Biso   1.000  O
  C46      1.0000 0.64660  0.82000  0.56790  Biso   1.000  C
  O29      1.0000 0.74190  0.83550  0.59300  Biso   1.000  O
  C47      1.0000 0.70050  0.78440  0.53220  Biso   1.000  C
  C48      1.0000 0.60020  0.76480  0.50420  Biso   1.000  C
  C49      1.0000 0.64890  0.73010  0.47210  Biso   1.000  C
  O30      1.0000 0.50510  0.95750  0.61570  Biso   1.000  O
  C50      1.0000 0.49070  0.09149  0.62510  Biso   1.000  C
  H28      1.0000 0.49650  0.77560  0.50680  Biso   1.000  H
  H29      1.0000 0.57780  0.71580  0.45320  Biso   1.000  H
  H30      1.0000 0.39780  0.06870  0.62380  Biso   1.000  H
  O31      1.0000 0.00800  0.33260  0.57080  Biso   1.000  O
  C51      1.0000 0.14660  0.32000  0.56790  Biso   1.000  C
  O32      1.0000 0.24190  0.33550  0.59300  Biso   1.000  O
  C52      1.0000 0.20050  0.28440  0.53220  Biso   1.000  C
  C53      1.0000 0.10020  0.26480  0.50420  Biso   1.000  C
  C54      1.0000 0.14890  0.23010  0.47210  Biso   1.000  C
  O33      1.0000 0.00510  0.45750  0.61570  Biso   1.000  O
  C55      1.0000 0.99070  0.59149  0.62510  Biso   1.000  C
  H31      1.0000 0.99650  0.27560  0.50680  Biso   1.000  H
  H32      1.0000 0.07780  0.21580  0.45320  Biso   1.000  H
  H33      1.0000 0.89780  0.56870  0.62380  Biso   1.000  H
  O34      1.0000 0.00800  0.83260  0.07080  Biso   1.000  O
  C56      1.0000 0.14660  0.82000  0.06790  Biso   1.000  C
  O35      1.0000 0.24190  0.83550  0.09300  Biso   1.000  O
  C57      1.0000 0.20050  0.78440  0.03220  Biso   1.000  C
  C58      1.0000 0.10020  0.76480  0.00420  Biso   1.000  C
  C59      1.0000 0.14890  0.73010  0.97210  Biso   1.000  C
  O36      1.0000 0.00510  0.95750  0.11570  Biso   1.000  O
  C60      1.0000 0.99070  0.09149  0.12510  Biso   1.000  C
  H34      1.0000 0.99650  0.77560  0.00680  Biso   1.000  H
  H35      1.0000 0.07780  0.71580  0.95320  Biso   1.000  H
  H36      1.0000 0.89780  0.06870  0.12380  Biso   1.000  H
  O37      1.0000 0.24200  0.41740  0.07080  Biso   1.000  O
  C61      1.0000 0.10340  0.43000  0.06790  Biso   1.000  C
  O38      1.0000 0.00810  0.41450  0.09300  Biso   1.000  O
  C62      1.0000 0.04950  0.46560  0.03220  Biso   1.000  C
  C63      1.0000 0.14980  0.48520  0.00420  Biso   1.000  C
  C64      1.0000 0.10110  0.51990  0.97210  Biso   1.000  C
  O39      1.0000 0.24490  0.29250  0.11570  Biso   1.000  O
  C65      1.0000 0.25930  0.15851  0.12510  Biso   1.000  C
  H37      1.0000 0.25350  0.47440  0.00680  Biso   1.000  H
  H38      1.0000 0.17220  0.53420  0.95320  Biso   1.000  H
  H39      1.0000 0.35220  0.18130  0.12380  Biso   1.000  H
  O40      1.0000 0.24200  0.91740  0.57080  Biso   1.000  O
  C66      1.0000 0.10340  0.93000  0.56790  Biso   1.000  C
  O41      1.0000 0.00810  0.91450  0.59300  Biso   1.000  O
  C67      1.0000 0.04950  0.96560  0.53220  Biso   1.000  C
  C68      1.0000 0.14980  0.98520  0.50420  Biso   1.000  C
  C69      1.0000 0.10110  0.01990  0.47210  Biso   1.000  C
  O42      1.0000 0.24490  0.79250  0.61570  Biso   1.000  O
  C70      1.0000 0.25930  0.65851  0.62510  Biso   1.000  C
  H40      1.0000 0.25350  0.97440  0.50680  Biso   1.000  H
  H41      1.0000 0.17220  0.03420  0.45320  Biso   1.000  H
  H42      1.0000 0.35220  0.68130  0.62380  Biso   1.000  H
  O43      1.0000 0.74200  0.41740  0.57080  Biso   1.000  O
  C71      1.0000 0.60340  0.43000  0.56790  Biso   1.000  C
  O44      1.0000 0.50810  0.41450  0.59300  Biso   1.000  O
  C72      1.0000 0.54950  0.46560  0.53220  Biso   1.000  C
  C73      1.0000 0.64980  0.48520  0.50420  Biso   1.000  C
  C74      1.0000 0.60110  0.51990  0.47210  Biso   1.000  C
  O45      1.0000 0.74490  0.29250  0.61570  Biso   1.000  O
  C75      1.0000 0.75930  0.15851  0.62510  Biso   1.000  C
  H43      1.0000 0.75350  0.47440  0.50680  Biso   1.000  H
  H44      1.0000 0.67220  0.53420  0.45320  Biso   1.000  H
  H45      1.0000 0.85220  0.18130  0.62380  Biso   1.000  H
  O46      1.0000 0.74200  0.91740  0.07080  Biso   1.000  O
  C76      1.0000 0.60340  0.93000  0.06790  Biso   1.000  C
  O47      1.0000 0.50810  0.91450  0.09300  Biso   1.000  O
  C77      1.0000 0.54950  0.96560  0.03220  Biso   1.000  C
  C78      1.0000 0.64980  0.98520  0.00420  Biso   1.000  C
  C79      1.0000 0.60110  0.01990  0.97210  Biso   1.000  C
  O48      1.0000 0.74490  0.79250  0.11570  Biso   1.000  O
  C80      1.0000 0.75930  0.65851  0.12510  Biso   1.000  C
  H46      1.0000 0.75350  0.97440  0.00680  Biso   1.000  H
  H47      1.0000 0.67220  0.03420  0.95320  Biso   1.000  H
  H48      1.0000 0.85220  0.68130  0.12380  Biso   1.000  H
  O49      1.0000 0.75800  0.66740  0.32080  Biso   1.000  O
  C81      1.0000 0.89660  0.68000  0.31790  Biso   1.000  C
  O50      1.0000 0.99190  0.66450  0.34300  Biso   1.000  O
  C82      1.0000 0.95050  0.71560  0.28220  Biso   1.000  C
  C83      1.0000 0.85020  0.73520  0.25420  Biso   1.000  C
  C84      1.0000 0.89890  0.76990  0.22210  Biso   1.000  C
  O51      1.0000 0.75510  0.54250  0.36570  Biso   1.000  O
  C85      1.0000 0.74070  0.40851  0.37510  Biso   1.000  C
  H49      1.0000 0.74650  0.72440  0.25680  Biso   1.000  H
  H50      1.0000 0.82780  0.78420  0.20320  Biso   1.000  H
  H51      1.0000 0.64780  0.43130  0.37380  Biso   1.000  H
  O52      1.0000 0.75800  0.16740  0.82080  Biso   1.000  O
  C86      1.0000 0.89660  0.18000  0.81790  Biso   1.000  C
  O53      1.0000 0.99190  0.16450  0.84300  Biso   1.000  O
  C87      1.0000 0.95050  0.21560  0.78220  Biso   1.000  C
  C88      1.0000 0.85020  0.23520  0.75420  Biso   1.000  C
  C89      1.0000 0.89890  0.26990  0.72210  Biso   1.000  C
  O54      1.0000 0.75510  0.04250  0.86570  Biso   1.000  O
  C90      1.0000 0.74070  0.90851  0.87510  Biso   1.000  C
  H52      1.0000 0.74650  0.22440  0.75680  Biso   1.000  H
  H53      1.0000 0.82780  0.28420  0.70320  Biso   1.000  H
  H54      1.0000 0.64780  0.93130  0.87380  Biso   1.000  H
  O55      1.0000 0.25800  0.66740  0.82080  Biso   1.000  O
  C91      1.0000 0.39660  0.68000  0.81790  Biso   1.000  C
  O56      1.0000 0.49190  0.66450  0.84300  Biso   1.000  O
  C92      1.0000 0.45050  0.71560  0.78220  Biso   1.000  C
  C93      1.0000 0.35020  0.73520  0.75420  Biso   1.000  C
  C94      1.0000 0.39890  0.76990  0.72210  Biso   1.000  C
  O57      1.0000 0.25510  0.54250  0.86570  Biso   1.000  O
  C95      1.0000 0.24070  0.40851  0.87510  Biso   1.000  C
  H55      1.0000 0.24650  0.72440  0.75680  Biso   1.000  H
  H56      1.0000 0.32780  0.78420  0.70320  Biso   1.000  H
  H57      1.0000 0.14780  0.43130  0.87380  Biso   1.000  H
  O58      1.0000 0.25800  0.16740  0.32080  Biso   1.000  O
  C96      1.0000 0.39660  0.18000  0.31790  Biso   1.000  C
  O59      1.0000 0.49190  0.16450  0.34300  Biso   1.000  O
  C97      1.0000 0.45050  0.21560  0.28220  Biso   1.000  C
  C98      1.0000 0.35020  0.23520  0.25420  Biso   1.000  C
  C99      1.0000 0.39890  0.26990  0.22210  Biso   1.000  C
  O60      1.0000 0.25510  0.04250  0.36570  Biso   1.000  O
  C100     1.0000 0.24070  0.90851  0.37510  Biso   1.000  C
  H58      1.0000 0.24650  0.22440  0.25680  Biso   1.000  H
  H59      1.0000 0.32780  0.28420  0.20320  Biso   1.000  H
  H60      1.0000 0.14780  0.93130  0.37380  Biso   1.000  H
  O61      1.0000 0.49200  0.58260  0.32080  Biso   1.000  O
  C101     1.0000 0.35340  0.57000  0.31790  Biso   1.000  C
  O62      1.0000 0.25810  0.58550  0.34300  Biso   1.000  O
  C102     1.0000 0.29950  0.53440  0.28220  Biso   1.000  C
  C103     1.0000 0.39980  0.51480  0.25420  Biso   1.000  C
  C104     1.0000 0.35110  0.48010  0.22210  Biso   1.000  C
  O63      1.0000 0.49490  0.70750  0.36570  Biso   1.000  O
  C105     1.0000 0.50930  0.84149  0.37510  Biso   1.000  C
  H61      1.0000 0.50350  0.52560  0.25680  Biso   1.000  H
  H62      1.0000 0.42220  0.46580  0.20320  Biso   1.000  H
  H63      1.0000 0.60220  0.81870  0.37380  Biso   1.000  H
  O64      1.0000 0.49200  0.08260  0.82080  Biso   1.000  O
  C106     1.0000 0.35340  0.07000  0.81790  Biso   1.000  C
  O65      1.0000 0.25810  0.08550  0.84300  Biso   1.000  O
  C107     1.0000 0.29950  0.03440  0.78220  Biso   1.000  C
  C108     1.0000 0.39980  0.01480  0.75420  Biso   1.000  C
  C109     1.0000 0.35110  0.98010  0.72210  Biso   1.000  C
  O66      1.0000 0.49490  0.20750  0.86570  Biso   1.000  O
  C110     1.0000 0.50930  0.34149  0.87510  Biso   1.000  C
  H64      1.0000 0.50350  0.02560  0.75680  Biso   1.000  H
  H65      1.0000 0.42220  0.96580  0.70320  Biso   1.000  H
  H66      1.0000 0.60220  0.31870  0.87380  Biso   1.000  H
  O67      1.0000 0.99200  0.58260  0.82080  Biso   1.000  O
  C111     1.0000 0.85340  0.57000  0.81790  Biso   1.000  C
  O68      1.0000 0.75810  0.58550  0.84300  Biso   1.000  O
  C112     1.0000 0.79950  0.53440  0.78220  Biso   1.000  C
  C113     1.0000 0.89980  0.51480  0.75420  Biso   1.000  C
  C114     1.0000 0.85110  0.48010  0.72210  Biso   1.000  C
  O69      1.0000 0.99490  0.70750  0.86570  Biso   1.000  O
  C115     1.0000 0.00930  0.84149  0.87510  Biso   1.000  C
  H67      1.0000 0.00350  0.52560  0.75680  Biso   1.000  H
  H68      1.0000 0.92220  0.46580  0.70320  Biso   1.000  H
  H69      1.0000 0.10220  0.81870  0.87380  Biso   1.000  H
  O70      1.0000 0.99200  0.08260  0.32080  Biso   1.000  O
  C116     1.0000 0.85340  0.07000  0.31790  Biso   1.000  C
  O71      1.0000 0.75810  0.08550  0.34300  Biso   1.000  O
  C117     1.0000 0.79950  0.03440  0.28220  Biso   1.000  C
  C118     1.0000 0.89980  0.01480  0.25420  Biso   1.000  C
  C119     1.0000 0.85110  0.98010  0.22210  Biso   1.000  C
  O72      1.0000 0.99490  0.20750  0.36570  Biso   1.000  O
  C120     1.0000 0.00930  0.34149  0.37510  Biso   1.000  C
  H70      1.0000 0.00350  0.02560  0.25680  Biso   1.000  H
  H71      1.0000 0.92220  0.96580  0.20320  Biso   1.000  H
  H72      1.0000 0.10220  0.31870  0.37380  Biso   1.000  H
  O73      1.0000 0.49200  0.66740  0.92920  Biso   1.000  O
  C121     1.0000 0.35340  0.68000  0.93210  Biso   1.000  C
  O74      1.0000 0.25810  0.66450  0.90700  Biso   1.000  O
  C122     1.0000 0.29950  0.71560  0.96780  Biso   1.000  C
  C123     1.0000 0.39980  0.73520  0.99580  Biso   1.000  C
  C124     1.0000 0.35110  0.76990  0.02790  Biso   1.000  C
  O75      1.0000 0.49490  0.54250  0.88430  Biso   1.000  O
  C125     1.0000 0.50930  0.40851  0.87490  Biso   1.000  C
  H73      1.0000 0.50350  0.72440  0.99320  Biso   1.000  H
  H74      1.0000 0.42220  0.78420  0.04680  Biso   1.000  H
  H75      1.0000 0.60220  0.43130  0.87620  Biso   1.000  H
  O76      1.0000 0.49200  0.16740  0.42920  Biso   1.000  O
  C126     1.0000 0.35340  0.18000  0.43210  Biso   1.000  C
  O77      1.0000 0.25810  0.16450  0.40700  Biso   1.000  O
  C127     1.0000 0.29950  0.21560  0.46780  Biso   1.000  C
  C128     1.0000 0.39980  0.23520  0.49580  Biso   1.000  C
  C129     1.0000 0.35110  0.26990  0.52790  Biso   1.000  C
  O78      1.0000 0.49490  0.04250  0.38430  Biso   1.000  O
  C130     1.0000 0.50930  0.90851  0.37490  Biso   1.000  C
  H76      1.0000 0.50350  0.22440  0.49320  Biso   1.000  H
  H77      1.0000 0.42220  0.28420  0.54680  Biso   1.000  H
  H78      1.0000 0.60220  0.93130  0.37620  Biso   1.000  H
  O79      1.0000 0.99200  0.66740  0.42920  Biso   1.000  O
  C131     1.0000 0.85340  0.68000  0.43210  Biso   1.000  C
  O80      1.0000 0.75810  0.66450  0.40700  Biso   1.000  O
  C132     1.0000 0.79950  0.71560  0.46780  Biso   1.000  C
  C133     1.0000 0.89980  0.73520  0.49580  Biso   1.000  C
  C134     1.0000 0.85110  0.76990  0.52790  Biso   1.000  C
  O81      1.0000 0.99490  0.54250  0.38430  Biso   1.000  O
  C135     1.0000 0.00930  0.40851  0.37490  Biso   1.000  C
  H79      1.0000 0.00350  0.72440  0.49320  Biso   1.000  H
  H80      1.0000 0.92220  0.78420  0.54680  Biso   1.000  H
  H81      1.0000 0.10220  0.43130  0.37620  Biso   1.000  H
  O82      1.0000 0.99200  0.16740  0.92920  Biso   1.000  O
  C136     1.0000 0.85340  0.18000  0.93210  Biso   1.000  C
  O83      1.0000 0.75810  0.16450  0.90700  Biso   1.000  O
  C137     1.0000 0.79950  0.21560  0.96780  Biso   1.000  C
  C138     1.0000 0.89980  0.23520  0.99580  Biso   1.000  C
  C139     1.0000 0.85110  0.26990  0.02790  Biso   1.000  C
  O84      1.0000 0.99490  0.04250  0.88430  Biso   1.000  O
  C140     1.0000 0.00930  0.90851  0.87490  Biso   1.000  C
  H82      1.0000 0.00350  0.22440  0.99320  Biso   1.000  H
  H83      1.0000 0.92220  0.28420  0.04680  Biso   1.000  H
  H84      1.0000 0.10220  0.93130  0.87620  Biso   1.000  H
  O85      1.0000 0.75800  0.58260  0.92920  Biso   1.000  O
  C141     1.0000 0.89660  0.57000  0.93210  Biso   1.000  C
  O86      1.0000 0.99190  0.58550  0.90700  Biso   1.000  O
  C142     1.0000 0.95050  0.53440  0.96780  Biso   1.000  C
  C143     1.0000 0.85020  0.51480  0.99580  Biso   1.000  C
  C144     1.0000 0.89890  0.48010  0.02790  Biso   1.000  C
  O87      1.0000 0.75510  0.70750  0.88430  Biso   1.000  O
  C145     1.0000 0.74070  0.84149  0.87490  Biso   1.000  C
  H85      1.0000 0.74650  0.52560  0.99320  Biso   1.000  H
  H86      1.0000 0.82780  0.46580  0.04680  Biso   1.000  H
  H87      1.0000 0.64780  0.81870  0.87620  Biso   1.000  H
  O88      1.0000 0.75800  0.08260  0.42920  Biso   1.000  O
  C146     1.0000 0.89660  0.07000  0.43210  Biso   1.000  C
  O89      1.0000 0.99190  0.08550  0.40700  Biso   1.000  O
  C147     1.0000 0.95050  0.03440  0.46780  Biso   1.000  C
  C148     1.0000 0.85020  0.01480  0.49580  Biso   1.000  C
  C149     1.0000 0.89890  0.98010  0.52790  Biso   1.000  C
  O90      1.0000 0.75510  0.20750  0.38430  Biso   1.000  O
  C150     1.0000 0.74070  0.34149  0.37490  Biso   1.000  C
  H88      1.0000 0.74650  0.02560  0.49320  Biso   1.000  H
  H89      1.0000 0.82780  0.96580  0.54680  Biso   1.000  H
  H90      1.0000 0.64780  0.31870  0.37620  Biso   1.000  H
  O91      1.0000 0.25800  0.58260  0.42920  Biso   1.000  O
  C151     1.0000 0.39660  0.57000  0.43210  Biso   1.000  C
  O92      1.0000 0.49190  0.58550  0.40700  Biso   1.000  O
  C152     1.0000 0.45050  0.53440  0.46780  Biso   1.000  C
  C153     1.0000 0.35020  0.51480  0.49580  Biso   1.000  C
  C154     1.0000 0.39890  0.48010  0.52790  Biso   1.000  C
  O93      1.0000 0.25510  0.70750  0.38430  Biso   1.000  O
  C155     1.0000 0.24070  0.84149  0.37490  Biso   1.000  C
  H91      1.0000 0.24650  0.52560  0.49320  Biso   1.000  H
  H92      1.0000 0.32780  0.46580  0.54680  Biso   1.000  H
  H93      1.0000 0.14780  0.81870  0.37620  Biso   1.000  H
  O94      1.0000 0.25800  0.08260  0.92920  Biso   1.000  O
  C156     1.0000 0.39660  0.07000  0.93210  Biso   1.000  C
  O95      1.0000 0.49190  0.08550  0.90700  Biso   1.000  O
  C157     1.0000 0.45050  0.03440  0.96780  Biso   1.000  C
  C158     1.0000 0.35020  0.01480  0.99580  Biso   1.000  C
  C159     1.0000 0.39890  0.98010  0.02790  Biso   1.000  C
  O96      1.0000 0.25510  0.20750  0.88430  Biso   1.000  O
  C160     1.0000 0.24070  0.34149  0.87490  Biso   1.000  C
  H94      1.0000 0.24650  0.02560  0.99320  Biso   1.000  H
  H95      1.0000 0.32780  0.96580  0.04680  Biso   1.000  H
  H96      1.0000 0.14780  0.31870  0.87620  Biso   1.000  H
  Sc1      1.0000 0.37500  0.37500  0.63518  Biso   1.000  Sc
  Sc2      1.0000 0.37500  0.87500  0.13518  Biso   1.000  Sc
  Sc3      1.0000 0.87500  0.37500  0.13518  Biso   1.000  Sc
  Sc4      1.0000 0.87500  0.87500  0.63518  Biso   1.000  Sc
  Sc5      1.0000 0.37500  0.37500  0.11482  Biso   1.000  Sc
  Sc6      1.0000 0.37500  0.87500  0.61482  Biso   1.000  Sc
  Sc7      1.0000 0.87500  0.37500  0.61482  Biso   1.000  Sc
  Sc8      1.0000 0.87500  0.87500  0.11482  Biso   1.000  Sc
  Sc9      1.0000 0.62500  0.62500  0.36482  Biso   1.000  Sc
  Sc10     1.0000 0.62500  0.12500  0.86482  Biso   1.000  Sc
  Sc11     1.0000 0.12500  0.62500  0.86482  Biso   1.000  Sc
  Sc12     1.0000 0.12500  0.12500  0.36482  Biso   1.000  Sc
  Sc13     1.0000 0.62500  0.62500  0.88518  Biso   1.000  Sc
  Sc14     1.0000 0.62500  0.12500  0.38518  Biso   1.000  Sc
  Sc15     1.0000 0.12500  0.62500  0.38518  Biso   1.000  Sc
  Sc16     1.0000 0.12500  0.12500  0.88518  Biso   1.000  Sc
  C161     1.0000 0.12500  0.48600  0.62500  Biso   1.000  C
  C162     1.0000 0.12500  0.55820  0.62500  Biso   1.000  C
  C163     1.0000 0.12500  0.98600  0.12500  Biso   1.000  C
  C164     1.0000 0.12500  0.05820  0.12500  Biso   1.000  C
  C165     1.0000 0.62500  0.98600  0.62500  Biso   1.000  C
  C166     1.0000 0.62500  0.05820  0.62500  Biso   1.000  C
  C167     1.0000 0.62500  0.26400  0.62500  Biso   1.000  C
  C168     1.0000 0.62500  0.19180  0.62500  Biso   1.000  C
  C169     1.0000 0.62500  0.76400  0.12500  Biso   1.000  C
  C170     1.0000 0.62500  0.69180  0.12500  Biso   1.000  C
  C171     1.0000 0.62500  0.48600  0.12500  Biso   1.000  C
  C172     1.0000 0.62500  0.55820  0.12500  Biso   1.000  C
  C173     1.0000 0.12500  0.26400  0.12500  Biso   1.000  C
  C174     1.0000 0.12500  0.19180  0.12500  Biso   1.000  C
  C175     1.0000 0.12500  0.76400  0.62500  Biso   1.000  C
  C176     1.0000 0.12500  0.69180  0.62500  Biso   1.000  C
  C177     1.0000 0.87500  0.51400  0.37500  Biso   1.000  C
  C178     1.0000 0.87500  0.44180  0.37500  Biso   1.000  C
  C179     1.0000 0.87500  0.01400  0.87500  Biso   1.000  C
  C180     1.0000 0.87500  0.94180  0.87500  Biso   1.000  C
  C181     1.0000 0.37500  0.73600  0.37500  Biso   1.000  C
  C182     1.0000 0.37500  0.80820  0.37500  Biso   1.000  C
  C183     1.0000 0.37500  0.23600  0.87500  Biso   1.000  C
  C184     1.0000 0.37500  0.30820  0.87500  Biso   1.000  C
  C185     1.0000 0.37500  0.51400  0.87500  Biso   1.000  C
  C186     1.0000 0.37500  0.44180  0.87500  Biso   1.000  C
  C187     1.0000 0.37500  0.01400  0.37500  Biso   1.000  C
  C188     1.0000 0.37500  0.94180  0.37500  Biso   1.000  C
  C189     1.0000 0.87500  0.73600  0.87500  Biso   1.000  C
  C190     1.0000 0.87500  0.80820  0.87500  Biso   1.000  C
  C191     1.0000 0.87500  0.23600  0.37500  Biso   1.000  C
  C192     1.0000 0.87500  0.30820  0.37500  Biso   1.000  C
