data_image0
_cell_length_a       16.444
_cell_length_b       16.444
_cell_length_c       14.178
_cell_angle_alpha    90
_cell_angle_beta     90
_cell_angle_gamma    90

_symmetry_space_group_name_H-M    "P 1"
_symmetry_int_tables_number       1

loop_
  _symmetry_equiv_pos_as_xyz
  'x, y, z'

loop_
  _atom_site_label
  _atom_site_occupancy
  _atom_site_fract_x
  _atom_site_fract_y
  _atom_site_fract_z
  _atom_site_thermal_displace_type
  _atom_site_B_iso_or_equiv
  _atom_site_type_symbol
  Co1      1.0000 0.66950  0.34630  0.60730  Biso   1.000  Co
  O1       1.0000 0.67650  0.46840  0.42120  Biso   1.000  O
  N1       1.0000 0.67370  0.22270  0.33320  Biso   1.000  N
  C1       1.0000 0.62900  0.15770  0.35900  Biso   1.000  C
  C2       1.0000 0.63600  0.08700  0.30800  Biso   1.000  C
  C3       1.0000 0.69400  0.08100  0.24200  Biso   1.000  C
  N2       1.0000 0.73970  0.14500  0.21730  Biso   1.000  N
  C4       1.0000 0.77340  0.28590  0.23530  Biso   1.000  C
  H1       1.0000 0.89700  0.45800  0.17500  Biso   1.000  H
  H2       1.0000 0.79800  0.47000  0.29100  Biso   1.000  H
  H3       1.0000 0.91030  0.33690  0.09100  Biso   1.000  H
  Co2      1.0000 0.16950  0.84630  0.10730  Biso   1.000  Co
  O2       1.0000 0.17650  0.96840  0.92120  Biso   1.000  O
  N3       1.0000 0.17370  0.72270  0.83320  Biso   1.000  N
  C5       1.0000 0.12900  0.65770  0.85900  Biso   1.000  C
  C6       1.0000 0.13600  0.58700  0.80800  Biso   1.000  C
  C7       1.0000 0.19400  0.58100  0.74200  Biso   1.000  C
  N4       1.0000 0.23970  0.64500  0.71730  Biso   1.000  N
  C8       1.0000 0.27340  0.78590  0.73530  Biso   1.000  C
  H4       1.0000 0.39700  0.95800  0.67500  Biso   1.000  H
  H5       1.0000 0.29800  0.97000  0.79100  Biso   1.000  H
  H6       1.0000 0.41030  0.83690  0.59100  Biso   1.000  H
  Co3      1.0000 0.33050  0.65370  0.60730  Biso   1.000  Co
  O3       1.0000 0.32350  0.53160  0.42120  Biso   1.000  O
  N5       1.0000 0.32630  0.77730  0.33320  Biso   1.000  N
  C9       1.0000 0.37100  0.84230  0.35900  Biso   1.000  C
  C10      1.0000 0.36400  0.91300  0.30800  Biso   1.000  C
  C11      1.0000 0.30600  0.91900  0.24200  Biso   1.000  C
  N6       1.0000 0.26030  0.85500  0.21730  Biso   1.000  N
  C12      1.0000 0.22660  0.71410  0.23530  Biso   1.000  C
  H7       1.0000 0.10300  0.54200  0.17500  Biso   1.000  H
  H8       1.0000 0.20200  0.53000  0.29100  Biso   1.000  H
  H9       1.0000 0.08970  0.66310  0.09100  Biso   1.000  H
  Co4      1.0000 0.83050  0.15370  0.10730  Biso   1.000  Co
  O4       1.0000 0.82350  0.03160  0.92120  Biso   1.000  O
  N7       1.0000 0.82630  0.27730  0.83320  Biso   1.000  N
  C13      1.0000 0.87100  0.34230  0.85900  Biso   1.000  C
  C14      1.0000 0.86400  0.41300  0.80800  Biso   1.000  C
  C15      1.0000 0.80600  0.41900  0.74200  Biso   1.000  C
  N8       1.0000 0.76030  0.35500  0.71730  Biso   1.000  N
  C16      1.0000 0.72660  0.21410  0.73530  Biso   1.000  C
  H10      1.0000 0.60300  0.04200  0.67500  Biso   1.000  H
  H11      1.0000 0.70200  0.03000  0.79100  Biso   1.000  H
  H12      1.0000 0.58970  0.16310  0.59100  Biso   1.000  H
  Co5      1.0000 0.65370  0.66950  0.60730  Biso   1.000  Co
  O5       1.0000 0.53160  0.67650  0.42120  Biso   1.000  O
  N9       1.0000 0.77730  0.67370  0.33320  Biso   1.000  N
  C17      1.0000 0.84230  0.62900  0.35900  Biso   1.000  C
  C18      1.0000 0.91300  0.63600  0.30800  Biso   1.000  C
  C19      1.0000 0.91900  0.69400  0.24200  Biso   1.000  C
  N10      1.0000 0.85500  0.73970  0.21730  Biso   1.000  N
  C20      1.0000 0.71410  0.77340  0.23530  Biso   1.000  C
  H13      1.0000 0.54200  0.89700  0.17500  Biso   1.000  H
  H14      1.0000 0.53000  0.79800  0.29100  Biso   1.000  H
  H15      1.0000 0.66310  0.91030  0.09100  Biso   1.000  H
  Co6      1.0000 0.15370  0.16950  0.10730  Biso   1.000  Co
  O6       1.0000 0.03160  0.17650  0.92120  Biso   1.000  O
  N11      1.0000 0.27730  0.17370  0.83320  Biso   1.000  N
  C21      1.0000 0.34230  0.12900  0.85900  Biso   1.000  C
  C22      1.0000 0.41300  0.13600  0.80800  Biso   1.000  C
  C23      1.0000 0.41900  0.19400  0.74200  Biso   1.000  C
  N12      1.0000 0.35500  0.23970  0.71730  Biso   1.000  N
  C24      1.0000 0.21410  0.27340  0.73530  Biso   1.000  C
  H16      1.0000 0.04200  0.39700  0.67500  Biso   1.000  H
  H17      1.0000 0.03000  0.29800  0.79100  Biso   1.000  H
  H18      1.0000 0.16310  0.41030  0.59100  Biso   1.000  H
  Co7      1.0000 0.34630  0.33050  0.60730  Biso   1.000  Co
  O7       1.0000 0.46840  0.32350  0.42120  Biso   1.000  O
  N13      1.0000 0.22270  0.32630  0.33320  Biso   1.000  N
  C25      1.0000 0.15770  0.37100  0.35900  Biso   1.000  C
  C26      1.0000 0.08700  0.36400  0.30800  Biso   1.000  C
  C27      1.0000 0.08100  0.30600  0.24200  Biso   1.000  C
  N14      1.0000 0.14500  0.26030  0.21730  Biso   1.000  N
  C28      1.0000 0.28590  0.22660  0.23530  Biso   1.000  C
  H19      1.0000 0.45800  0.10300  0.17500  Biso   1.000  H
  H20      1.0000 0.47000  0.20200  0.29100  Biso   1.000  H
  H21      1.0000 0.33690  0.08970  0.09100  Biso   1.000  H
  Co8      1.0000 0.84630  0.83050  0.10730  Biso   1.000  Co
  O8       1.0000 0.96840  0.82350  0.92120  Biso   1.000  O
  N15      1.0000 0.72270  0.82630  0.83320  Biso   1.000  N
  C29      1.0000 0.65770  0.87100  0.85900  Biso   1.000  C
  C30      1.0000 0.58700  0.86400  0.80800  Biso   1.000  C
  C31      1.0000 0.58100  0.80600  0.74200  Biso   1.000  C
  N16      1.0000 0.64500  0.76030  0.71730  Biso   1.000  N
  C32      1.0000 0.78590  0.72660  0.73530  Biso   1.000  C
  H22      1.0000 0.95800  0.60300  0.67500  Biso   1.000  H
  H23      1.0000 0.97000  0.70200  0.79100  Biso   1.000  H
  H24      1.0000 0.83690  0.58970  0.59100  Biso   1.000  H
  Co9      1.0000 0.33050  0.65370  0.39270  Biso   1.000  Co
  O9       1.0000 0.32350  0.53160  0.57880  Biso   1.000  O
  N17      1.0000 0.32630  0.77730  0.66680  Biso   1.000  N
  C33      1.0000 0.37100  0.84230  0.64100  Biso   1.000  C
  C34      1.0000 0.36400  0.91300  0.69200  Biso   1.000  C
  C35      1.0000 0.30600  0.91900  0.75800  Biso   1.000  C
  N18      1.0000 0.26030  0.85500  0.78270  Biso   1.000  N
  C36      1.0000 0.22660  0.71410  0.76470  Biso   1.000  C
  H25      1.0000 0.10300  0.54200  0.82500  Biso   1.000  H
  H26      1.0000 0.20200  0.53000  0.70900  Biso   1.000  H
  H27      1.0000 0.08970  0.66310  0.90900  Biso   1.000  H
  Co10     1.0000 0.83050  0.15370  0.89270  Biso   1.000  Co
  O10      1.0000 0.82350  0.03160  0.07880  Biso   1.000  O
  N19      1.0000 0.82630  0.27730  0.16680  Biso   1.000  N
  C37      1.0000 0.87100  0.34230  0.14100  Biso   1.000  C
  C38      1.0000 0.86400  0.41300  0.19200  Biso   1.000  C
  C39      1.0000 0.80600  0.41900  0.25800  Biso   1.000  C
  N20      1.0000 0.76030  0.35500  0.28270  Biso   1.000  N
  C40      1.0000 0.72660  0.21410  0.26470  Biso   1.000  C
  H28      1.0000 0.60300  0.04200  0.32500  Biso   1.000  H
  H29      1.0000 0.70200  0.03000  0.20900  Biso   1.000  H
  H30      1.0000 0.58970  0.16310  0.40900  Biso   1.000  H
  Co11     1.0000 0.66950  0.34630  0.39270  Biso   1.000  Co
  O11      1.0000 0.67650  0.46840  0.57880  Biso   1.000  O
  N21      1.0000 0.67370  0.22270  0.66680  Biso   1.000  N
  C41      1.0000 0.62900  0.15770  0.64100  Biso   1.000  C
  C42      1.0000 0.63600  0.08700  0.69200  Biso   1.000  C
  C43      1.0000 0.69400  0.08100  0.75800  Biso   1.000  C
  N22      1.0000 0.73970  0.14500  0.78270  Biso   1.000  N
  C44      1.0000 0.77340  0.28590  0.76470  Biso   1.000  C
  H31      1.0000 0.89700  0.45800  0.82500  Biso   1.000  H
  H32      1.0000 0.79800  0.47000  0.70900  Biso   1.000  H
  H33      1.0000 0.91030  0.33690  0.90900  Biso   1.000  H
  Co12     1.0000 0.16950  0.84630  0.89270  Biso   1.000  Co
  O12      1.0000 0.17650  0.96840  0.07880  Biso   1.000  O
  N23      1.0000 0.17370  0.72270  0.16680  Biso   1.000  N
  C45      1.0000 0.12900  0.65770  0.14100  Biso   1.000  C
  C46      1.0000 0.13600  0.58700  0.19200  Biso   1.000  C
  C47      1.0000 0.19400  0.58100  0.25800  Biso   1.000  C
  N24      1.0000 0.23970  0.64500  0.28270  Biso   1.000  N
  C48      1.0000 0.27340  0.78590  0.26470  Biso   1.000  C
  H34      1.0000 0.39700  0.95800  0.32500  Biso   1.000  H
  H35      1.0000 0.29800  0.97000  0.20900  Biso   1.000  H
  H36      1.0000 0.41030  0.83690  0.40900  Biso   1.000  H
  Co13     1.0000 0.34630  0.33050  0.39270  Biso   1.000  Co
  O13      1.0000 0.46840  0.32350  0.57880  Biso   1.000  O
  N25      1.0000 0.22270  0.32630  0.66680  Biso   1.000  N
  C49      1.0000 0.15770  0.37100  0.64100  Biso   1.000  C
  C50      1.0000 0.08700  0.36400  0.69200  Biso   1.000  C
  C51      1.0000 0.08100  0.30600  0.75800  Biso   1.000  C
  N26      1.0000 0.14500  0.26030  0.78270  Biso   1.000  N
  C52      1.0000 0.28590  0.22660  0.76470  Biso   1.000  C
  H37      1.0000 0.45800  0.10300  0.82500  Biso   1.000  H
  H38      1.0000 0.47000  0.20200  0.70900  Biso   1.000  H
  H39      1.0000 0.33690  0.08970  0.90900  Biso   1.000  H
  Co14     1.0000 0.84630  0.83050  0.89270  Biso   1.000  Co
  O14      1.0000 0.96840  0.82350  0.07880  Biso   1.000  O
  N27      1.0000 0.72270  0.82630  0.16680  Biso   1.000  N
  C53      1.0000 0.65770  0.87100  0.14100  Biso   1.000  C
  C54      1.0000 0.58700  0.86400  0.19200  Biso   1.000  C
  C55      1.0000 0.58100  0.80600  0.25800  Biso   1.000  C
  N28      1.0000 0.64500  0.76030  0.28270  Biso   1.000  N
  C56      1.0000 0.78590  0.72660  0.26470  Biso   1.000  C
  H40      1.0000 0.95800  0.60300  0.32500  Biso   1.000  H
  H41      1.0000 0.97000  0.70200  0.20900  Biso   1.000  H
  H42      1.0000 0.83690  0.58970  0.40900  Biso   1.000  H
  Co15     1.0000 0.65370  0.66950  0.39270  Biso   1.000  Co
  O15      1.0000 0.53160  0.67650  0.57880  Biso   1.000  O
  N29      1.0000 0.77730  0.67370  0.66680  Biso   1.000  N
  C57      1.0000 0.84230  0.62900  0.64100  Biso   1.000  C
  C58      1.0000 0.91300  0.63600  0.69200  Biso   1.000  C
  C59      1.0000 0.91900  0.69400  0.75800  Biso   1.000  C
  N30      1.0000 0.85500  0.73970  0.78270  Biso   1.000  N
  C60      1.0000 0.71410  0.77340  0.76470  Biso   1.000  C
  H43      1.0000 0.54200  0.89700  0.82500  Biso   1.000  H
  H44      1.0000 0.53000  0.79800  0.70900  Biso   1.000  H
  H45      1.0000 0.66310  0.91030  0.90900  Biso   1.000  H
  Co16     1.0000 0.15370  0.16950  0.89270  Biso   1.000  Co
  O16      1.0000 0.03160  0.17650  0.07880  Biso   1.000  O
  N31      1.0000 0.27730  0.17370  0.16680  Biso   1.000  N
  C61      1.0000 0.34230  0.12900  0.14100  Biso   1.000  C
  C62      1.0000 0.41300  0.13600  0.19200  Biso   1.000  C
  C63      1.0000 0.41900  0.19400  0.25800  Biso   1.000  C
  N32      1.0000 0.35500  0.23970  0.28270  Biso   1.000  N
  C64      1.0000 0.21410  0.27340  0.26470  Biso   1.000  C
  H46      1.0000 0.04200  0.39700  0.32500  Biso   1.000  H
  H47      1.0000 0.03000  0.29800  0.20900  Biso   1.000  H
  H48      1.0000 0.16310  0.41030  0.40900  Biso   1.000  H
  O17      1.0000 0.74660  0.31660  0.50000  Biso   1.000  O
  O18      1.0000 0.67730  0.58430  0.50000  Biso   1.000  O
  C65      1.0000 0.67700  0.50500  0.50000  Biso   1.000  C
  H49      1.0000 0.76190  0.26750  0.50000  Biso   1.000  H
  O19      1.0000 0.24660  0.81660  0.00000  Biso   1.000  O
  O20      1.0000 0.17730  0.08430  0.00000  Biso   1.000  O
  C66      1.0000 0.17700  0.00500  0.00000  Biso   1.000  C
  H50      1.0000 0.26190  0.76750  0.00000  Biso   1.000  H
  O21      1.0000 0.25340  0.68340  0.50000  Biso   1.000  O
  O22      1.0000 0.32270  0.41570  0.50000  Biso   1.000  O
  C67      1.0000 0.32300  0.49500  0.50000  Biso   1.000  C
  H51      1.0000 0.23810  0.73250  0.50000  Biso   1.000  H
  O23      1.0000 0.75340  0.18340  0.00000  Biso   1.000  O
  O24      1.0000 0.82270  0.91570  0.00000  Biso   1.000  O
  C68      1.0000 0.82300  0.99500  0.00000  Biso   1.000  C
  H52      1.0000 0.73810  0.23250  0.00000  Biso   1.000  H
  O25      1.0000 0.68340  0.74660  0.50000  Biso   1.000  O
  O26      1.0000 0.41570  0.67730  0.50000  Biso   1.000  O
  C69      1.0000 0.49500  0.67700  0.50000  Biso   1.000  C
  H53      1.0000 0.73250  0.76190  0.50000  Biso   1.000  H
  O27      1.0000 0.18340  0.24660  0.00000  Biso   1.000  O
  O28      1.0000 0.91570  0.17730  0.00000  Biso   1.000  O
  C70      1.0000 0.99500  0.17700  0.00000  Biso   1.000  C
  H54      1.0000 0.23250  0.26190  0.00000  Biso   1.000  H
  O29      1.0000 0.31660  0.25340  0.50000  Biso   1.000  O
  O30      1.0000 0.58430  0.32270  0.50000  Biso   1.000  O
  C71      1.0000 0.50500  0.32300  0.50000  Biso   1.000  C
  H55      1.0000 0.26750  0.23810  0.50000  Biso   1.000  H
  O31      1.0000 0.81660  0.75340  0.00000  Biso   1.000  O
  O32      1.0000 0.08430  0.82270  0.00000  Biso   1.000  O
  C72      1.0000 0.00500  0.82300  0.00000  Biso   1.000  C
  H56      1.0000 0.76750  0.73810  0.00000  Biso   1.000  H
