data_image0
_cell_length_a       7.903
_cell_length_b       9.355
_cell_length_c       7.485
_cell_angle_alpha    90
_cell_angle_beta     118.25
_cell_angle_gamma    90

_symmetry_space_group_name_H-M    "P 1"
_symmetry_int_tables_number       1

loop_
  _symmetry_equiv_pos_as_xyz
  'x, y, z'

loop_
  _atom_site_label
  _atom_site_occupancy
  _atom_site_fract_x
  _atom_site_fract_y
  _atom_site_fract_z
  _atom_site_thermal_displace_type
  _atom_site_B_iso_or_equiv
  _atom_site_type_symbol
  P1       1.0000 0.19180  0.48400  0.36830  Biso   1.000  P
  O1       1.0000 0.18570  0.38850  0.18880  Biso   1.000  O
  O2       1.0000 0.06550  0.61140  0.29490  Biso   1.000  O
  O3       1.0000 0.14200  0.40720  0.50860  Biso   1.000  O
  C1       1.0000 0.42830  0.57190  0.46050  Biso   1.000  C
  P2       1.0000 0.80820  0.98400  0.63170  Biso   1.000  P
  O4       1.0000 0.81430  0.88850  0.81120  Biso   1.000  O
  O5       1.0000 0.93450  0.11140  0.70510  Biso   1.000  O
  O6       1.0000 0.85800  0.90720  0.49140  Biso   1.000  O
  C2       1.0000 0.57170  0.07190  0.53950  Biso   1.000  C
  P3       1.0000 0.80820  0.51600  0.63170  Biso   1.000  P
  O7       1.0000 0.81430  0.61150  0.81120  Biso   1.000  O
  O8       1.0000 0.93450  0.38860  0.70510  Biso   1.000  O
  O9       1.0000 0.85800  0.59280  0.49140  Biso   1.000  O
  C3       1.0000 0.57170  0.42810  0.53950  Biso   1.000  C
  P4       1.0000 0.19180  0.01600  0.36830  Biso   1.000  P
  O10      1.0000 0.18570  0.11150  0.18880  Biso   1.000  O
  O11      1.0000 0.06550  0.88860  0.29490  Biso   1.000  O
  O12      1.0000 0.14200  0.09280  0.50860  Biso   1.000  O
  C4       1.0000 0.42830  0.92810  0.46050  Biso   1.000  C
  V1       1.0000 0.96180  0.75000  0.43400  Biso   1.000  V
  O13      1.0000 0.72850  0.75000  0.10410  Biso   1.000  O
  V2       1.0000 0.03820  0.25000  0.56600  Biso   1.000  V
  O14      1.0000 0.27150  0.25000  0.89590  Biso   1.000  O
  V3       1.0000 0.00510  0.25000  0.96080  Biso   1.000  V
  V4       1.0000 0.99490  0.75000  0.03920  Biso   1.000  V
