data_image0
_cell_length_a       10.0049
_cell_length_b       8.2745
_cell_length_c       11.8304
_cell_angle_alpha    90
_cell_angle_beta     103.093
_cell_angle_gamma    90

_symmetry_space_group_name_H-M    "P 1"
_symmetry_int_tables_number       1

loop_
  _symmetry_equiv_pos_as_xyz
  'x, y, z'

loop_
  _atom_site_label
  _atom_site_occupancy
  _atom_site_fract_x
  _atom_site_fract_y
  _atom_site_fract_z
  _atom_site_thermal_displace_type
  _atom_site_B_iso_or_equiv
  _atom_site_type_symbol
  Zn1      1.0000 0.32276  0.67570  0.02965  Biso   1.000  Zn
  Zn2      1.0000 0.62163  0.65398  0.92951  Biso   1.000  Zn
  Zn3      1.0000 0.07314  0.88043  0.33641  Biso   1.000  Zn
  Zn4      1.0000 0.33633  0.26391  0.71462  Biso   1.000  Zn
  P1       1.0000 0.58300  0.44980  0.12550  Biso   1.000  P
  P2       1.0000 0.35420  0.86130  0.25930  Biso   1.000  P
  P3       1.0000 0.07350  0.11100  0.54570  Biso   1.000  P
  P4       1.0000 0.17330  0.37710  0.89740  Biso   1.000  P
  O1       1.0000 0.50950  0.58450  0.03980  Biso   1.000  O
  O2       1.0000 0.68900  0.36530  0.07010  Biso   1.000  O
  O3       1.0000 0.16920  0.53000  0.96860  Biso   1.000  O
  O4       1.0000 0.29650  0.71730  0.18300  Biso   1.000  O
  O5       1.0000 0.47650  0.33580  0.15480  Biso   1.000  O
  O6       1.0000 0.20590  0.23090  0.97690  Biso   1.000  O
  O7       1.0000 0.35010  0.01470  0.18840  Biso   1.000  O
  O8       1.0000 0.26880  0.88880  0.35040  Biso   1.000  O
  O9       1.0000 0.02660  0.07270  0.41710  Biso   1.000  O
  O10      1.0000 0.03210  0.34990  0.81880  Biso   1.000  O
  O11      1.0000 0.95360  0.16510  0.59570  Biso   1.000  O
  O12      1.0000 0.12700  0.94480  0.60580  Biso   1.000  O
  O13      1.0000 0.19060  0.23180  0.56820  Biso   1.000  O
  O14      1.0000 0.28540  0.40220  0.82860  Biso   1.000  O
  O15      1.0000 0.49890  0.82390  0.32880  Biso   1.000  O
  O16      1.0000 0.65820  0.53290  0.23860  Biso   1.000  O
  Zn5      1.0000 0.67724  0.17570  0.97035  Biso   1.000  Zn
  Zn6      1.0000 0.37837  0.15398  0.07049  Biso   1.000  Zn
  Zn7      1.0000 0.92686  0.38043  0.66359  Biso   1.000  Zn
  Zn8      1.0000 0.66367  0.76391  0.28538  Biso   1.000  Zn
  P5       1.0000 0.41700  0.94980  0.87450  Biso   1.000  P
  P6       1.0000 0.64580  0.36130  0.74070  Biso   1.000  P
  P7       1.0000 0.92650  0.61100  0.45430  Biso   1.000  P
  P8       1.0000 0.82670  0.87710  0.10260  Biso   1.000  P
  O17      1.0000 0.49050  0.08450  0.96020  Biso   1.000  O
  O18      1.0000 0.31100  0.86530  0.92990  Biso   1.000  O
  O19      1.0000 0.83080  0.03000  0.03140  Biso   1.000  O
  O20      1.0000 0.70350  0.21730  0.81700  Biso   1.000  O
  O21      1.0000 0.52350  0.83580  0.84520  Biso   1.000  O
  O22      1.0000 0.79410  0.73090  0.02310  Biso   1.000  O
  O23      1.0000 0.64990  0.51470  0.81160  Biso   1.000  O
  O24      1.0000 0.73120  0.38880  0.64960  Biso   1.000  O
  O25      1.0000 0.97340  0.57270  0.58290  Biso   1.000  O
  O26      1.0000 0.96790  0.84990  0.18120  Biso   1.000  O
  O27      1.0000 0.04640  0.66510  0.40430  Biso   1.000  O
  O28      1.0000 0.87300  0.44480  0.39420  Biso   1.000  O
  O29      1.0000 0.80940  0.73180  0.43180  Biso   1.000  O
  O30      1.0000 0.71460  0.90220  0.17140  Biso   1.000  O
  O31      1.0000 0.50110  0.32390  0.67120  Biso   1.000  O
  O32      1.0000 0.34180  0.03290  0.76140  Biso   1.000  O
