data_image0
_cell_length_a       10.021
_cell_length_b       8.286
_cell_length_c       11.856
_cell_angle_alpha    90
_cell_angle_beta     103.13
_cell_angle_gamma    90

_symmetry_space_group_name_H-M    "P 1"
_symmetry_int_tables_number       1

loop_
  _symmetry_equiv_pos_as_xyz
  'x, y, z'

loop_
  _atom_site_label
  _atom_site_occupancy
  _atom_site_fract_x
  _atom_site_fract_y
  _atom_site_fract_z
  _atom_site_thermal_displace_type
  _atom_site_B_iso_or_equiv
  _atom_site_type_symbol
  Zn1      1.0000 0.67730  0.53030  0.47040  Biso   1.000  Zn
  Zn2      1.0000 0.62190  0.05210  0.42960  Biso   1.000  Zn
  Zn3      1.0000 0.92680  0.32540  0.16320  Biso   1.000  Zn
  Zn4      1.0000 0.66370  0.94220  0.78580  Biso   1.000  Zn
  P1       1.0000 0.64560  0.34440  0.24040  Biso   1.000  P
  P2       1.0000 0.58280  0.25650  0.62580  Biso   1.000  P
  P3       1.0000 0.92700  0.09540  0.95500  Biso   1.000  P
  P4       1.0000 0.82690  0.82870  0.60290  Biso   1.000  P
  O1       1.0000 0.70580  0.48970  0.31730  Biso   1.000  O
  O2       1.0000 0.82980  0.67430  0.53020  Biso   1.000  O
  O3       1.0000 0.68730  0.33860  0.56910  Biso   1.000  O
  O4       1.0000 0.50960  0.12370  0.54030  Biso   1.000  O
  O5       1.0000 0.65000  0.19110  0.31090  Biso   1.000  O
  O6       1.0000 0.47790  0.36850  0.65530  Biso   1.000  O
  O7       1.0000 0.79630  0.97780  0.52310  Biso   1.000  O
  O8       1.0000 0.73020  0.31880  0.14710  Biso   1.000  O
  O9       1.0000 0.96890  0.85670  0.68200  Biso   1.000  O
  O10      1.0000 0.97120  0.13360  0.08190  Biso   1.000  O
  O11      1.0000 0.04820  0.03960  0.90470  Biso   1.000  O
  O12      1.0000 0.71650  0.80420  0.67260  Biso   1.000  O
  O13      1.0000 0.50130  0.38330  0.17200  Biso   1.000  O
  O14      1.0000 0.65890  0.17410  0.73900  Biso   1.000  O
  O15      1.0000 0.80800  0.97420  0.93110  Biso   1.000  O
  O16      1.0000 0.87400  0.26010  0.89350  Biso   1.000  O
  H1       1.0000 0.80980  0.29380  0.91900  Biso   1.000  H
  Zn5      1.0000 0.32270  0.03030  0.52960  Biso   1.000  Zn
  Zn6      1.0000 0.37810  0.55210  0.57040  Biso   1.000  Zn
  Zn7      1.0000 0.07320  0.82540  0.83680  Biso   1.000  Zn
  Zn8      1.0000 0.33630  0.44220  0.21420  Biso   1.000  Zn
  P5       1.0000 0.35440  0.84440  0.75960  Biso   1.000  P
  P6       1.0000 0.41720  0.75650  0.37420  Biso   1.000  P
  P7       1.0000 0.07300  0.59540  0.04500  Biso   1.000  P
  P8       1.0000 0.17310  0.32870  0.39710  Biso   1.000  P
  O17      1.0000 0.29420  0.98970  0.68270  Biso   1.000  O
  O18      1.0000 0.17020  0.17430  0.46980  Biso   1.000  O
  O19      1.0000 0.31270  0.83860  0.43090  Biso   1.000  O
  O20      1.0000 0.49040  0.62370  0.45970  Biso   1.000  O
  O21      1.0000 0.35000  0.69110  0.68910  Biso   1.000  O
  O22      1.0000 0.52210  0.86850  0.34470  Biso   1.000  O
  O23      1.0000 0.20370  0.47780  0.47690  Biso   1.000  O
  O24      1.0000 0.26980  0.81880  0.85290  Biso   1.000  O
  O25      1.0000 0.03110  0.35670  0.31800  Biso   1.000  O
  O26      1.0000 0.02880  0.63360  0.91810  Biso   1.000  O
  O27      1.0000 0.95180  0.53960  0.09530  Biso   1.000  O
  O28      1.0000 0.28350  0.30420  0.32740  Biso   1.000  O
  O29      1.0000 0.49870  0.88330  0.82800  Biso   1.000  O
  O30      1.0000 0.34110  0.67410  0.26100  Biso   1.000  O
  O31      1.0000 0.19200  0.47420  0.06890  Biso   1.000  O
  O32      1.0000 0.12600  0.76010  0.10650  Biso   1.000  O
  H2       1.0000 0.19020  0.79380  0.08100  Biso   1.000  H
