data_image0
_cell_length_a       16.557
_cell_length_b       18.311
_cell_length_c       11.9349
_cell_angle_alpha    90
_cell_angle_beta     123.096
_cell_angle_gamma    90

_symmetry_space_group_name_H-M    "P 1"
_symmetry_int_tables_number       1

loop_
  _symmetry_equiv_pos_as_xyz
  'x, y, z'

loop_
  _atom_site_label
  _atom_site_occupancy
  _atom_site_fract_x
  _atom_site_fract_y
  _atom_site_fract_z
  _atom_site_thermal_displace_type
  _atom_site_B_iso_or_equiv
  _atom_site_type_symbol
  O1       1.0000 0.08439  0.37990  0.38200  Biso   1.000  O
  O2       1.0000 0.22040  0.34318  0.56860  Biso   1.000  O
  O3       1.0000 0.08595  0.70228  0.67610  Biso   1.000  O
  O4       1.0000 0.23762  0.68646  0.84720  Biso   1.000  O
  O5       1.0000 0.09758  0.22253  0.38830  Biso   1.000  O
  N1       1.0000 0.06980  0.16090  0.41870  Biso   1.000  N
  C1       1.0000 0.16270  0.46400  0.55810  Biso   1.000  C
  C2       1.0000 0.23190  0.47850  0.69060  Biso   1.000  C
  H1       1.0000 0.27100  0.44300  0.74500  Biso   1.000  H
  C3       1.0000 0.23500  0.54550  0.74500  Biso   1.000  C
  H2       1.0000 0.28100  0.55400  0.84200  Biso   1.000  H
  C4       1.0000 0.16850  0.59910  0.67090  Biso   1.000  C
  C5       1.0000 0.10010  0.58420  0.53830  Biso   1.000  C
  H3       1.0000 0.07300  0.61900  0.49900  Biso   1.000  H
  C6       1.0000 0.09810  0.51760  0.48400  Biso   1.000  C
  H4       1.0000 0.06800  0.50700  0.40400  Biso   1.000  H
  C7       1.0000 0.15470  0.39000  0.49820  Biso   1.000  C
  C8       1.0000 0.16420  0.66790  0.73600  Biso   1.000  C
  C9       1.0000 0.09600  0.09680  0.39520  Biso   1.000  C
  H5       1.0000 0.14400  0.10000  0.37000  Biso   1.000  H
  C10      1.0000 0.06780  0.03310  0.42440  Biso   1.000  C
  H6       1.0000 0.09000  0.99100  0.41200  Biso   1.000  H
  C11      1.0000 0.01390  0.03450  0.48130  Biso   1.000  C
  C12      1.0000 0.98870  0.10220  0.50260  Biso   1.000  C
  H7       1.0000 0.95100  0.11100  0.53900  Biso   1.000  H
  C13      1.0000 0.01600  0.16500  0.47150  Biso   1.000  C
  H8       1.0000 0.99500  0.21900  0.47700  Biso   1.000  H
  O6       1.0000 0.58439  0.87990  0.38200  Biso   1.000  O
  O7       1.0000 0.72040  0.84318  0.56860  Biso   1.000  O
  O8       1.0000 0.58595  0.20228  0.67610  Biso   1.000  O
  O9       1.0000 0.73762  0.18646  0.84720  Biso   1.000  O
  O10      1.0000 0.59758  0.72253  0.38830  Biso   1.000  O
  N2       1.0000 0.56980  0.66090  0.41870  Biso   1.000  N
  C14      1.0000 0.66270  0.96400  0.55810  Biso   1.000  C
  C15      1.0000 0.73190  0.97850  0.69060  Biso   1.000  C
  H9       1.0000 0.77100  0.94300  0.74500  Biso   1.000  H
  C16      1.0000 0.73500  0.04550  0.74500  Biso   1.000  C
  H10      1.0000 0.78100  0.05400  0.84200  Biso   1.000  H
  C17      1.0000 0.66850  0.09910  0.67090  Biso   1.000  C
  C18      1.0000 0.60010  0.08420  0.53830  Biso   1.000  C
  H11      1.0000 0.57300  0.11900  0.49900  Biso   1.000  H
  C19      1.0000 0.59810  0.01760  0.48400  Biso   1.000  C
  H12      1.0000 0.56800  0.00700  0.40400  Biso   1.000  H
  C20      1.0000 0.65470  0.89000  0.49820  Biso   1.000  C
  C21      1.0000 0.66420  0.16790  0.73600  Biso   1.000  C
  C22      1.0000 0.59600  0.59680  0.39520  Biso   1.000  C
  H13      1.0000 0.64400  0.60000  0.37000  Biso   1.000  H
  C23      1.0000 0.56780  0.53310  0.42440  Biso   1.000  C
  H14      1.0000 0.59000  0.49100  0.41200  Biso   1.000  H
  C24      1.0000 0.51390  0.53450  0.48130  Biso   1.000  C
  C25      1.0000 0.48870  0.60220  0.50260  Biso   1.000  C
  H15      1.0000 0.45100  0.61100  0.53900  Biso   1.000  H
  C26      1.0000 0.51600  0.66500  0.47150  Biso   1.000  C
  H16      1.0000 0.49500  0.71900  0.47700  Biso   1.000  H
  O11      1.0000 0.91561  0.37990  0.11800  Biso   1.000  O
  O12      1.0000 0.77960  0.34318  0.93140  Biso   1.000  O
  O13      1.0000 0.91405  0.70228  0.82390  Biso   1.000  O
  O14      1.0000 0.76238  0.68646  0.65280  Biso   1.000  O
  O15      1.0000 0.90242  0.22253  0.11170  Biso   1.000  O
  N3       1.0000 0.93020  0.16090  0.08130  Biso   1.000  N
  C27      1.0000 0.83730  0.46400  0.94190  Biso   1.000  C
  C28      1.0000 0.76810  0.47850  0.80940  Biso   1.000  C
  H17      1.0000 0.72900  0.44300  0.75500  Biso   1.000  H
  C29      1.0000 0.76500  0.54550  0.75500  Biso   1.000  C
  H18      1.0000 0.71900  0.55400  0.65800  Biso   1.000  H
  C30      1.0000 0.83150  0.59910  0.82910  Biso   1.000  C
  C31      1.0000 0.89990  0.58420  0.96170  Biso   1.000  C
  H19      1.0000 0.92700  0.61900  0.00100  Biso   1.000  H
  C32      1.0000 0.90190  0.51760  0.01600  Biso   1.000  C
  H20      1.0000 0.93200  0.50700  0.09600  Biso   1.000  H
  C33      1.0000 0.84530  0.39000  0.00180  Biso   1.000  C
  C34      1.0000 0.83580  0.66790  0.76400  Biso   1.000  C
  C35      1.0000 0.90400  0.09680  0.10480  Biso   1.000  C
  H21      1.0000 0.85600  0.10000  0.13000  Biso   1.000  H
  C36      1.0000 0.93220  0.03310  0.07560  Biso   1.000  C
  H22      1.0000 0.91000  0.99100  0.08800  Biso   1.000  H
  C37      1.0000 0.98610  0.03450  0.01870  Biso   1.000  C
  C38      1.0000 0.01130  0.10220  0.99740  Biso   1.000  C
  H23      1.0000 0.04900  0.11100  0.96100  Biso   1.000  H
  C39      1.0000 0.98400  0.16500  0.02850  Biso   1.000  C
  H24      1.0000 0.00500  0.21900  0.02300  Biso   1.000  H
  O16      1.0000 0.41561  0.87990  0.11800  Biso   1.000  O
  O17      1.0000 0.27960  0.84318  0.93140  Biso   1.000  O
  O18      1.0000 0.41405  0.20228  0.82390  Biso   1.000  O
  O19      1.0000 0.26238  0.18646  0.65280  Biso   1.000  O
  O20      1.0000 0.40242  0.72253  0.11170  Biso   1.000  O
  N4       1.0000 0.43020  0.66090  0.08130  Biso   1.000  N
  C40      1.0000 0.33730  0.96400  0.94190  Biso   1.000  C
  C41      1.0000 0.26810  0.97850  0.80940  Biso   1.000  C
  H25      1.0000 0.22900  0.94300  0.75500  Biso   1.000  H
  C42      1.0000 0.26500  0.04550  0.75500  Biso   1.000  C
  H26      1.0000 0.21900  0.05400  0.65800  Biso   1.000  H
  C43      1.0000 0.33150  0.09910  0.82910  Biso   1.000  C
  C44      1.0000 0.39990  0.08420  0.96170  Biso   1.000  C
  H27      1.0000 0.42700  0.11900  0.00100  Biso   1.000  H
  C45      1.0000 0.40190  0.01760  0.01600  Biso   1.000  C
  H28      1.0000 0.43200  0.00700  0.09600  Biso   1.000  H
  C46      1.0000 0.34530  0.89000  0.00180  Biso   1.000  C
  C47      1.0000 0.33580  0.16790  0.76400  Biso   1.000  C
  C48      1.0000 0.40400  0.59680  0.10480  Biso   1.000  C
  H29      1.0000 0.35600  0.60000  0.13000  Biso   1.000  H
  C49      1.0000 0.43220  0.53310  0.07560  Biso   1.000  C
  H30      1.0000 0.41000  0.49100  0.08800  Biso   1.000  H
  C50      1.0000 0.48610  0.53450  0.01870  Biso   1.000  C
  C51      1.0000 0.51130  0.60220  0.99740  Biso   1.000  C
  H31      1.0000 0.54900  0.61100  0.96100  Biso   1.000  H
  C52      1.0000 0.48400  0.66500  0.02850  Biso   1.000  C
  H32      1.0000 0.50500  0.71900  0.02300  Biso   1.000  H
  O21      1.0000 0.91561  0.62010  0.61800  Biso   1.000  O
  O22      1.0000 0.77960  0.65682  0.43140  Biso   1.000  O
  O23      1.0000 0.91405  0.29772  0.32390  Biso   1.000  O
  O24      1.0000 0.76238  0.31354  0.15280  Biso   1.000  O
  O25      1.0000 0.90242  0.77747  0.61170  Biso   1.000  O
  N5       1.0000 0.93020  0.83910  0.58130  Biso   1.000  N
  C53      1.0000 0.83730  0.53600  0.44190  Biso   1.000  C
  C54      1.0000 0.76810  0.52150  0.30940  Biso   1.000  C
  H33      1.0000 0.72900  0.55700  0.25500  Biso   1.000  H
  C55      1.0000 0.76500  0.45450  0.25500  Biso   1.000  C
  H34      1.0000 0.71900  0.44600  0.15800  Biso   1.000  H
  C56      1.0000 0.83150  0.40090  0.32910  Biso   1.000  C
  C57      1.0000 0.89990  0.41580  0.46170  Biso   1.000  C
  H35      1.0000 0.92700  0.38100  0.50100  Biso   1.000  H
  C58      1.0000 0.90190  0.48240  0.51600  Biso   1.000  C
  H36      1.0000 0.93200  0.49300  0.59600  Biso   1.000  H
  C59      1.0000 0.84530  0.61000  0.50180  Biso   1.000  C
  C60      1.0000 0.83580  0.33210  0.26400  Biso   1.000  C
  C61      1.0000 0.90400  0.90320  0.60480  Biso   1.000  C
  H37      1.0000 0.85600  0.90000  0.63000  Biso   1.000  H
  C62      1.0000 0.93220  0.96690  0.57560  Biso   1.000  C
  H38      1.0000 0.91000  0.00900  0.58800  Biso   1.000  H
  C63      1.0000 0.98610  0.96550  0.51870  Biso   1.000  C
  C64      1.0000 0.01130  0.89780  0.49740  Biso   1.000  C
  H39      1.0000 0.04900  0.88900  0.46100  Biso   1.000  H
  C65      1.0000 0.98400  0.83500  0.52850  Biso   1.000  C
  H40      1.0000 0.00500  0.78100  0.52300  Biso   1.000  H
  O26      1.0000 0.41561  0.12010  0.61800  Biso   1.000  O
  O27      1.0000 0.27960  0.15682  0.43140  Biso   1.000  O
  O28      1.0000 0.41405  0.79772  0.32390  Biso   1.000  O
  O29      1.0000 0.26238  0.81354  0.15280  Biso   1.000  O
  O30      1.0000 0.40242  0.27747  0.61170  Biso   1.000  O
  N6       1.0000 0.43020  0.33910  0.58130  Biso   1.000  N
  C66      1.0000 0.33730  0.03600  0.44190  Biso   1.000  C
  C67      1.0000 0.26810  0.02150  0.30940  Biso   1.000  C
  H41      1.0000 0.22900  0.05700  0.25500  Biso   1.000  H
  C68      1.0000 0.26500  0.95450  0.25500  Biso   1.000  C
  H42      1.0000 0.21900  0.94600  0.15800  Biso   1.000  H
  C69      1.0000 0.33150  0.90090  0.32910  Biso   1.000  C
  C70      1.0000 0.39990  0.91580  0.46170  Biso   1.000  C
  H43      1.0000 0.42700  0.88100  0.50100  Biso   1.000  H
  C71      1.0000 0.40190  0.98240  0.51600  Biso   1.000  C
  H44      1.0000 0.43200  0.99300  0.59600  Biso   1.000  H
  C72      1.0000 0.34530  0.11000  0.50180  Biso   1.000  C
  C73      1.0000 0.33580  0.83210  0.26400  Biso   1.000  C
  C74      1.0000 0.40400  0.40320  0.60480  Biso   1.000  C
  H45      1.0000 0.35600  0.40000  0.63000  Biso   1.000  H
  C75      1.0000 0.43220  0.46690  0.57560  Biso   1.000  C
  H46      1.0000 0.41000  0.50900  0.58800  Biso   1.000  H
  C76      1.0000 0.48610  0.46550  0.51870  Biso   1.000  C
  C77      1.0000 0.51130  0.39780  0.49740  Biso   1.000  C
  H47      1.0000 0.54900  0.38900  0.46100  Biso   1.000  H
  C78      1.0000 0.48400  0.33500  0.52850  Biso   1.000  C
  H48      1.0000 0.50500  0.28100  0.52300  Biso   1.000  H
  O31      1.0000 0.08439  0.62010  0.88200  Biso   1.000  O
  O32      1.0000 0.22040  0.65682  0.06860  Biso   1.000  O
  O33      1.0000 0.08595  0.29772  0.17610  Biso   1.000  O
  O34      1.0000 0.23762  0.31354  0.34720  Biso   1.000  O
  O35      1.0000 0.09758  0.77747  0.88830  Biso   1.000  O
  N7       1.0000 0.06980  0.83910  0.91870  Biso   1.000  N
  C79      1.0000 0.16270  0.53600  0.05810  Biso   1.000  C
  C80      1.0000 0.23190  0.52150  0.19060  Biso   1.000  C
  H49      1.0000 0.27100  0.55700  0.24500  Biso   1.000  H
  C81      1.0000 0.23500  0.45450  0.24500  Biso   1.000  C
  H50      1.0000 0.28100  0.44600  0.34200  Biso   1.000  H
  C82      1.0000 0.16850  0.40090  0.17090  Biso   1.000  C
  C83      1.0000 0.10010  0.41580  0.03830  Biso   1.000  C
  H51      1.0000 0.07300  0.38100  0.99900  Biso   1.000  H
  C84      1.0000 0.09810  0.48240  0.98400  Biso   1.000  C
  H52      1.0000 0.06800  0.49300  0.90400  Biso   1.000  H
  C85      1.0000 0.15470  0.61000  0.99820  Biso   1.000  C
  C86      1.0000 0.16420  0.33210  0.23600  Biso   1.000  C
  C87      1.0000 0.09600  0.90320  0.89520  Biso   1.000  C
  H53      1.0000 0.14400  0.90000  0.87000  Biso   1.000  H
  C88      1.0000 0.06780  0.96690  0.92440  Biso   1.000  C
  H54      1.0000 0.09000  0.00900  0.91200  Biso   1.000  H
  C89      1.0000 0.01390  0.96550  0.98130  Biso   1.000  C
  C90      1.0000 0.98870  0.89780  0.00260  Biso   1.000  C
  H55      1.0000 0.95100  0.88900  0.03900  Biso   1.000  H
  C91      1.0000 0.01600  0.83500  0.97150  Biso   1.000  C
  H56      1.0000 0.99500  0.78100  0.97700  Biso   1.000  H
  O36      1.0000 0.58439  0.12010  0.88200  Biso   1.000  O
  O37      1.0000 0.72040  0.15682  0.06860  Biso   1.000  O
  O38      1.0000 0.58595  0.79772  0.17610  Biso   1.000  O
  O39      1.0000 0.73762  0.81354  0.34720  Biso   1.000  O
  O40      1.0000 0.59758  0.27747  0.88830  Biso   1.000  O
  N8       1.0000 0.56980  0.33910  0.91870  Biso   1.000  N
  C92      1.0000 0.66270  0.03600  0.05810  Biso   1.000  C
  C93      1.0000 0.73190  0.02150  0.19060  Biso   1.000  C
  H57      1.0000 0.77100  0.05700  0.24500  Biso   1.000  H
  C94      1.0000 0.73500  0.95450  0.24500  Biso   1.000  C
  H58      1.0000 0.78100  0.94600  0.34200  Biso   1.000  H
  C95      1.0000 0.66850  0.90090  0.17090  Biso   1.000  C
  C96      1.0000 0.60010  0.91580  0.03830  Biso   1.000  C
  H59      1.0000 0.57300  0.88100  0.99900  Biso   1.000  H
  C97      1.0000 0.59810  0.98240  0.98400  Biso   1.000  C
  H60      1.0000 0.56800  0.99300  0.90400  Biso   1.000  H
  C98      1.0000 0.65470  0.11000  0.99820  Biso   1.000  C
  C99      1.0000 0.66420  0.83210  0.23600  Biso   1.000  C
  C100     1.0000 0.59600  0.40320  0.89520  Biso   1.000  C
  H61      1.0000 0.64400  0.40000  0.87000  Biso   1.000  H
  C101     1.0000 0.56780  0.46690  0.92440  Biso   1.000  C
  H62      1.0000 0.59000  0.50900  0.91200  Biso   1.000  H
  C102     1.0000 0.51390  0.46550  0.98130  Biso   1.000  C
  C103     1.0000 0.48870  0.39780  0.00260  Biso   1.000  C
  H63      1.0000 0.45100  0.38900  0.03900  Biso   1.000  H
  C104     1.0000 0.51600  0.33500  0.97150  Biso   1.000  C
  H64      1.0000 0.49500  0.28100  0.97700  Biso   1.000  H
  Mg1      1.0000 0.00000  0.30224  0.25000  Biso   1.000  Mg
  Mg2      1.0000 0.50000  0.80224  0.25000  Biso   1.000  Mg
  Mg3      1.0000 0.00000  0.69776  0.75000  Biso   1.000  Mg
  Mg4      1.0000 0.50000  0.19776  0.75000  Biso   1.000  Mg
  Mg5      1.0000 0.25000  0.25000  0.50000  Biso   1.000  Mg
  Mg6      1.0000 0.75000  0.25000  0.00000  Biso   1.000  Mg
  Mg7      1.0000 0.75000  0.75000  0.50000  Biso   1.000  Mg
  Mg8      1.0000 0.25000  0.75000  0.00000  Biso   1.000  Mg
