data_HOQMIL04_clean
_audit_creation_date              2015-10-16
_audit_creation_method            'Materials Studio'
_symmetry_space_group_name_H-M    'P1'
_symmetry_Int_Tables_number       1
_symmetry_cell_setting            triclinic
loop_
_symmetry_equiv_pos_as_xyz
  x,y,z
_cell_length_a                    12.5669
_cell_length_b                    12.5669
_cell_length_c                    13.5483
_cell_angle_alpha                 65.7086
_cell_angle_beta                  62.3975
_cell_angle_gamma                 93.2666
loop_
_atom_site_label
_atom_site_type_symbol
_atom_site_fract_x
_atom_site_fract_y
_atom_site_fract_z
_atom_site_U_iso_or_equiv
_atom_site_adp_type
_atom_site_occupancy
Mg1    Mg    0.55532   0.80532   0.25000   0.01267  Uiso   1.00
Mg2    Mg    0.44468   0.19468   0.75000   0.01267  Uiso   1.00
Mg3    Mg    0.50000  -0.00000   0.00000   0.01267  Uiso   1.00
Mg4    Mg    0.50000   0.50000   0.50000   0.01267  Uiso   1.00
H1     H     0.35730   0.02430   0.59700   0.01267  Uiso   1.00
H2     H     0.10720   0.75430   0.23370   0.01267  Uiso   1.00
H3     H     0.90920   0.84940   0.00320   0.01267  Uiso   1.00
H4     H     0.32540   0.69650   0.13910   0.01267  Uiso   1.00
H5     H     0.95330   0.36260   0.44730   0.01267  Uiso   1.00
H6     H     0.66440   0.53550   0.63910   0.01267  Uiso   1.00
H7     H     0.69010   0.59940   0.94730   0.01267  Uiso   1.00
H8     H     0.12130   0.95430   0.90300   0.01267  Uiso   1.00
H9     H     0.68520   0.46200   0.90560   0.01267  Uiso   1.00
H10    H     0.47710   0.22850   0.16820   0.01267  Uiso   1.00
H11    H     0.09080   0.15060   0.99680   0.01267  Uiso   1.00
H12    H     0.51200   0.65910   0.73370   0.01267  Uiso   1.00
H13    H     0.33560   0.46450   0.36090   0.01267  Uiso   1.00
H14    H     0.64270   0.97570   0.40300   0.01267  Uiso   1.00
H15    H     0.31480   0.53800   0.09440   0.01267  Uiso   1.00
H16    H     0.67460   0.30350   0.86090   0.01267  Uiso   1.00
H17    H     0.89670   0.64530   0.33180   0.01267  Uiso   1.00
H18    H     0.30990   0.40060   0.05270   0.01267  Uiso   1.00
H19    H     0.10330   0.35470   0.66820   0.01267  Uiso   1.00
H20    H     0.52290   0.77150   0.83180   0.01267  Uiso   1.00
H21    H     0.48800   0.34090   0.26630   0.01267  Uiso   1.00
H22    H     0.04670   0.63740   0.55270   0.01267  Uiso   1.00
H23    H     0.25330   0.69070   0.50180   0.01267  Uiso   1.00
H24    H     0.89280   0.24570   0.76630   0.01267  Uiso   1.00
H25    H     0.35260   0.91240   0.49680   0.01267  Uiso   1.00
H26    H     0.74670   0.30930   0.49820   0.01267  Uiso   1.00
H27    H     0.64740   0.08760   0.50320   0.01267  Uiso   1.00
H28    H     0.87870   0.04570   0.09700   0.01267  Uiso   1.00
H29    H     0.86760   0.59080   0.59440   0.01267  Uiso   1.00
H30    H     0.13240   0.40920   0.40560   0.01267  Uiso   1.00
H31    H     0.30750   0.24490   0.00180   0.01267  Uiso   1.00
H32    H     0.69250   0.75510   0.99820   0.01267  Uiso   1.00
C1     C     0.07537   0.89265   0.99080   0.01267  Uiso   1.00
C2     C     0.84473   0.53275   0.57420   0.01267  Uiso   1.00
C3     C     0.77206   0.36586   0.51870   0.01267  Uiso   1.00
C4     C     0.26890   0.94226   0.99498   0.01267  Uiso   1.00
C5     C     0.05077   0.17039   0.94970   0.01267  Uiso   1.00
C6     C     0.74183   0.67683   0.24556   0.01267  Uiso   1.00
C7     C     0.38345   0.06617   0.50920   0.01267  Uiso   1.00
C8     C     0.60081   0.32569   0.89800   0.01267  Uiso   1.00
C9     C     0.41607   0.05947   0.32204   0.01267  Uiso   1.00
C10    C     0.10496   0.60192   0.51200   0.01267  Uiso   1.00
C11    C     0.49825   0.45041   0.98382   0.01267  Uiso   1.00
C12    C     0.56276   0.73612   0.49498   0.01267  Uiso   1.00
C13    C     0.22794   0.63414   0.48130   0.01267  Uiso   1.00
C14    C     0.61655   0.93383   0.49080   0.01267  Uiso   1.00
C15    C     0.92463   0.10735   0.00920   0.01267  Uiso   1.00
C16    C     0.11849   0.26189   0.82204   0.01267  Uiso   1.00
C17    C     0.42239   0.98739   0.25444   0.01267  Uiso   1.00
C18    C     0.86545   0.13397   0.94082   0.01267  Uiso   1.00
C19    C     0.94923   0.82961   0.05030   0.01267  Uiso   1.00
C20    C     0.05839   0.29057   0.75490   0.01267  Uiso   1.00
C21    C     0.57479   0.80627   0.55918   0.01267  Uiso   1.00
C22    C     0.27631   0.50119   0.39800   0.01267  Uiso   1.00
C23    C     0.53987   0.74617   0.68640   0.01267  Uiso   1.00
C24    C     0.06743   0.77373   0.18640   0.01267  Uiso   1.00
C25    C     0.62009   0.00047   0.55030   0.01267  Uiso   1.00
C26    C     0.61392   0.61696   0.98800   0.01267  Uiso   1.00
C27    C     0.72369   0.49881   0.60200   0.01267  Uiso   1.00
C28    C     0.88151   0.73811   0.17796   0.01267  Uiso   1.00
C29    C     0.50175   0.54959   0.01618   0.01267  Uiso   1.00
C30    C     0.25817   0.32317   0.75444   0.01267  Uiso   1.00
C31    C     0.37991   0.99953   0.44970   0.01267  Uiso   1.00
C32    C     0.93257   0.22627   0.81360   0.01267  Uiso   1.00
C33    C     0.39919   0.67431   0.10200   0.01267  Uiso   1.00
C34    C     0.57761   0.01261   0.74556   0.01267  Uiso   1.00
C35    C     0.89504   0.39808   0.48800   0.01267  Uiso   1.00
C36    C     0.39305   0.58107   0.07420   0.01267  Uiso   1.00
C37    C     0.94161   0.70943   0.24510   0.01267  Uiso   1.00
C38    C     0.93423   0.48207   0.51618   0.01267  Uiso   1.00
C39    C     0.38456   0.29076   0.98130   0.01267  Uiso   1.00
C40    C     0.61544   0.70924   0.01870   0.01267  Uiso   1.00
C41    C     0.15527   0.46725   0.42580   0.01267  Uiso   1.00
C42    C     0.73110   0.05774   0.00502   0.01267  Uiso   1.00
C43    C     0.60695   0.41893   0.92580   0.01267  Uiso   1.00
C44    C     0.06577   0.51793   0.48382   0.01267  Uiso   1.00
C45    C     0.13455   0.86603   0.05918   0.01267  Uiso   1.00
C46    C     0.46013   0.25383   0.31360   0.01267  Uiso   1.00
C47    C     0.42521   0.19373   0.44082   0.01267  Uiso   1.00
C48    C     0.54547   0.81329   0.74510   0.01267  Uiso   1.00
C49    C     0.45453   0.18671   0.25490   0.01267  Uiso   1.00
C50    C     0.58393   0.94053   0.67796   0.01267  Uiso   1.00
C51    C     0.38608   0.38304   0.01200   0.01267  Uiso   1.00
C52    C     0.43724   0.26388   0.50502   0.01267  Uiso   1.00
N1     N     0.50823   0.73411   0.07736   0.01267  Uiso   1.00
N2     N     0.49177   0.26589   0.92264   0.01267  Uiso   1.00
N3     N     0.68853   0.41441   0.57736   0.01267  Uiso   1.00
N4     N     0.31147   0.58559   0.42264   0.01267  Uiso   1.00
O1     O     0.48091   0.37932   0.43785   0.01267  Uiso   1.00
O2     O     0.68283   0.08124   0.93785   0.01267  Uiso   1.00
O3     O     0.31717   0.91876   0.06215   0.01267  Uiso   1.00
O4     O     0.43117   0.62053   0.38916   0.01267  Uiso   1.00
O5     O     0.55983   0.95663   0.85542   0.01267  Uiso   1.00
O6     O     0.31058   0.27440   0.81414   0.01267  Uiso   1.00
O7     O     0.68795   0.58475   0.35542   0.01267  Uiso   1.00
O8     O     0.44017   0.04337   0.14458   0.01267  Uiso   1.00
O9     O     0.58854   0.12472   0.68586   0.01267  Uiso   1.00
O10    O     0.32047   0.02396   0.88025   0.01267  Uiso   1.00
O11    O     0.40421   0.20072   0.61975   0.01267  Uiso   1.00
O12    O     0.41146   0.87528   0.31414   0.01267  Uiso   1.00
O13    O     0.59579   0.79928   0.38025   0.01267  Uiso   1.00
O14    O     0.49031   0.17967   0.88916   0.01267  Uiso   1.00
O15    O     0.50969   0.82033   0.11084   0.01267  Uiso   1.00
O16    O     0.56883   0.37947   0.61084   0.01267  Uiso   1.00
O17    O     0.67953   0.97604   0.11975   0.01267  Uiso   1.00
O18    O     0.68942   0.72560   0.18586   0.01267  Uiso   1.00
O19    O     0.31205   0.41525   0.64458   0.01267  Uiso   1.00
O20    O     0.51909   0.62068   0.56215   0.01267  Uiso   1.00
