data_image0
_cell_length_a       18.119
_cell_length_b       17.2294
_cell_length_c       13.478
_cell_angle_alpha    90
_cell_angle_beta     129.38
_cell_angle_gamma    90

_symmetry_space_group_name_H-M    "P 1"
_symmetry_int_tables_number       1

loop_
  _symmetry_equiv_pos_as_xyz
  'x, y, z'

loop_
  _atom_site_label
  _atom_site_occupancy
  _atom_site_fract_x
  _atom_site_fract_y
  _atom_site_fract_z
  _atom_site_thermal_displace_type
  _atom_site_B_iso_or_equiv
  _atom_site_type_symbol
  O1       1.0000 0.23013  0.18662  0.35500  Biso   1.000  O
  O2       1.0000 0.07555  0.20013  0.18620  Biso   1.000  O
  O3       1.0000 0.23052  0.85104  0.06190  Biso   1.000  O
  O4       1.0000 0.08837  0.88808  0.88000  Biso   1.000  O
  O5       1.0000 0.09988  0.27906  0.38970  Biso   1.000  O
  N1       1.0000 0.07407  0.33972  0.42280  Biso   1.000  N
  C1       1.0000 0.16170  0.10198  0.17720  Biso   1.000  C
  C2       1.0000 0.23960  0.05230  0.24400  Biso   1.000  C
  H1       1.0000 0.29400  0.06500  0.33500  Biso   1.000  H
  C3       1.0000 0.24070  0.98710  0.18560  Biso   1.000  C
  H2       1.0000 0.29100  0.95300  0.22700  Biso   1.000  H
  C4       1.0000 0.16460  0.97055  0.05860  Biso   1.000  C
  C5       1.0000 0.08780  0.02130  0.99150  Biso   1.000  C
  H3       1.0000 0.03800  0.00800  0.91500  Biso   1.000  H
  C6       1.0000 0.08610  0.08580  0.05050  Biso   1.000  C
  H4       1.0000 0.04100  0.12300  0.01300  Biso   1.000  H
  C7       1.0000 0.15640  0.16822  0.24510  Biso   1.000  C
  C8       1.0000 0.16100  0.89730  0.99470  Biso   1.000  C
  C9       1.0000 0.08620  0.41130  0.39770  Biso   1.000  C
  H5       1.0000 0.11100  0.41700  0.36500  Biso   1.000  H
  C10      1.0000 0.05690  0.47490  0.42540  Biso   1.000  C
  H6       1.0000 0.06600  0.52100  0.40400  Biso   1.000  H
  C11      1.0000 0.01540  0.46580  0.48330  Biso   1.000  C
  C12      1.0000 0.00730  0.39090  0.51210  Biso   1.000  C
  H7       1.0000 0.97500  0.37800  0.54500  Biso   1.000  H
  C13      1.0000 0.03680  0.32860  0.48150  Biso   1.000  C
  H8       1.0000 0.02900  0.28000  0.48900  Biso   1.000  H
  O6       1.0000 0.73013  0.68662  0.35500  Biso   1.000  O
  O7       1.0000 0.57555  0.70013  0.18620  Biso   1.000  O
  O8       1.0000 0.73052  0.35104  0.06190  Biso   1.000  O
  O9       1.0000 0.58837  0.38808  0.88000  Biso   1.000  O
  O10      1.0000 0.59988  0.77906  0.38970  Biso   1.000  O
  N2       1.0000 0.57407  0.83972  0.42280  Biso   1.000  N
  C14      1.0000 0.66170  0.60198  0.17720  Biso   1.000  C
  C15      1.0000 0.73960  0.55230  0.24400  Biso   1.000  C
  H9       1.0000 0.79400  0.56500  0.33500  Biso   1.000  H
  C16      1.0000 0.74070  0.48710  0.18560  Biso   1.000  C
  H10      1.0000 0.79100  0.45300  0.22700  Biso   1.000  H
  C17      1.0000 0.66460  0.47055  0.05860  Biso   1.000  C
  C18      1.0000 0.58780  0.52130  0.99150  Biso   1.000  C
  H11      1.0000 0.53800  0.50800  0.91500  Biso   1.000  H
  C19      1.0000 0.58610  0.58580  0.05050  Biso   1.000  C
  H12      1.0000 0.54100  0.62300  0.01300  Biso   1.000  H
  C20      1.0000 0.65640  0.66822  0.24510  Biso   1.000  C
  C21      1.0000 0.66100  0.39730  0.99470  Biso   1.000  C
  C22      1.0000 0.58620  0.91130  0.39770  Biso   1.000  C
  H13      1.0000 0.61100  0.91700  0.36500  Biso   1.000  H
  C23      1.0000 0.55690  0.97490  0.42540  Biso   1.000  C
  H14      1.0000 0.56600  0.02100  0.40400  Biso   1.000  H
  C24      1.0000 0.51540  0.96580  0.48330  Biso   1.000  C
  C25      1.0000 0.50730  0.89090  0.51210  Biso   1.000  C
  H15      1.0000 0.47500  0.87800  0.54500  Biso   1.000  H
  C26      1.0000 0.53680  0.82860  0.48150  Biso   1.000  C
  H16      1.0000 0.52900  0.78000  0.48900  Biso   1.000  H
  O11      1.0000 0.76987  0.18662  0.14500  Biso   1.000  O
  O12      1.0000 0.92445  0.20013  0.31380  Biso   1.000  O
  O13      1.0000 0.76948  0.85104  0.43810  Biso   1.000  O
  O14      1.0000 0.91163  0.88808  0.62000  Biso   1.000  O
  O15      1.0000 0.90012  0.27906  0.11030  Biso   1.000  O
  N3       1.0000 0.92593  0.33972  0.07720  Biso   1.000  N
  C27      1.0000 0.83830  0.10198  0.32280  Biso   1.000  C
  C28      1.0000 0.76040  0.05230  0.25600  Biso   1.000  C
  H17      1.0000 0.70600  0.06500  0.16500  Biso   1.000  H
  C29      1.0000 0.75930  0.98710  0.31440  Biso   1.000  C
  H18      1.0000 0.70900  0.95300  0.27300  Biso   1.000  H
  C30      1.0000 0.83540  0.97055  0.44140  Biso   1.000  C
  C31      1.0000 0.91220  0.02130  0.50850  Biso   1.000  C
  H19      1.0000 0.96200  0.00800  0.58500  Biso   1.000  H
  C32      1.0000 0.91390  0.08580  0.44950  Biso   1.000  C
  H20      1.0000 0.95900  0.12300  0.48700  Biso   1.000  H
  C33      1.0000 0.84360  0.16822  0.25490  Biso   1.000  C
  C34      1.0000 0.83900  0.89730  0.50530  Biso   1.000  C
  C35      1.0000 0.91380  0.41130  0.10230  Biso   1.000  C
  H21      1.0000 0.88900  0.41700  0.13500  Biso   1.000  H
  C36      1.0000 0.94310  0.47490  0.07460  Biso   1.000  C
  H22      1.0000 0.93400  0.52100  0.09600  Biso   1.000  H
  C37      1.0000 0.98460  0.46580  0.01670  Biso   1.000  C
  C38      1.0000 0.99270  0.39090  0.98790  Biso   1.000  C
  H23      1.0000 0.02500  0.37800  0.95500  Biso   1.000  H
  C39      1.0000 0.96320  0.32860  0.01850  Biso   1.000  C
  H24      1.0000 0.97100  0.28000  0.01100  Biso   1.000  H
  O16      1.0000 0.26987  0.68662  0.14500  Biso   1.000  O
  O17      1.0000 0.42445  0.70013  0.31380  Biso   1.000  O
  O18      1.0000 0.26948  0.35104  0.43810  Biso   1.000  O
  O19      1.0000 0.41163  0.38808  0.62000  Biso   1.000  O
  O20      1.0000 0.40012  0.77906  0.11030  Biso   1.000  O
  N4       1.0000 0.42593  0.83972  0.07720  Biso   1.000  N
  C40      1.0000 0.33830  0.60198  0.32280  Biso   1.000  C
  C41      1.0000 0.26040  0.55230  0.25600  Biso   1.000  C
  H25      1.0000 0.20600  0.56500  0.16500  Biso   1.000  H
  C42      1.0000 0.25930  0.48710  0.31440  Biso   1.000  C
  H26      1.0000 0.20900  0.45300  0.27300  Biso   1.000  H
  C43      1.0000 0.33540  0.47055  0.44140  Biso   1.000  C
  C44      1.0000 0.41220  0.52130  0.50850  Biso   1.000  C
  H27      1.0000 0.46200  0.50800  0.58500  Biso   1.000  H
  C45      1.0000 0.41390  0.58580  0.44950  Biso   1.000  C
  H28      1.0000 0.45900  0.62300  0.48700  Biso   1.000  H
  C46      1.0000 0.34360  0.66822  0.25490  Biso   1.000  C
  C47      1.0000 0.33900  0.39730  0.50530  Biso   1.000  C
  C48      1.0000 0.41380  0.91130  0.10230  Biso   1.000  C
  H29      1.0000 0.38900  0.91700  0.13500  Biso   1.000  H
  C49      1.0000 0.44310  0.97490  0.07460  Biso   1.000  C
  H30      1.0000 0.43400  0.02100  0.09600  Biso   1.000  H
  C50      1.0000 0.48460  0.96580  0.01670  Biso   1.000  C
  C51      1.0000 0.49270  0.89090  0.98790  Biso   1.000  C
  H31      1.0000 0.52500  0.87800  0.95500  Biso   1.000  H
  C52      1.0000 0.46320  0.82860  0.01850  Biso   1.000  C
  H32      1.0000 0.47100  0.78000  0.01100  Biso   1.000  H
  O21      1.0000 0.76987  0.81338  0.64500  Biso   1.000  O
  O22      1.0000 0.92445  0.79987  0.81380  Biso   1.000  O
  O23      1.0000 0.76948  0.14896  0.93810  Biso   1.000  O
  O24      1.0000 0.91163  0.11192  0.12000  Biso   1.000  O
  O25      1.0000 0.90012  0.72094  0.61030  Biso   1.000  O
  N5       1.0000 0.92593  0.66028  0.57720  Biso   1.000  N
  C53      1.0000 0.83830  0.89802  0.82280  Biso   1.000  C
  C54      1.0000 0.76040  0.94770  0.75600  Biso   1.000  C
  H33      1.0000 0.70600  0.93500  0.66500  Biso   1.000  H
  C55      1.0000 0.75930  0.01290  0.81440  Biso   1.000  C
  H34      1.0000 0.70900  0.04700  0.77300  Biso   1.000  H
  C56      1.0000 0.83540  0.02945  0.94140  Biso   1.000  C
  C57      1.0000 0.91220  0.97870  0.00850  Biso   1.000  C
  H35      1.0000 0.96200  0.99200  0.08500  Biso   1.000  H
  C58      1.0000 0.91390  0.91420  0.94950  Biso   1.000  C
  H36      1.0000 0.95900  0.87700  0.98700  Biso   1.000  H
  C59      1.0000 0.84360  0.83178  0.75490  Biso   1.000  C
  C60      1.0000 0.83900  0.10270  0.00530  Biso   1.000  C
  C61      1.0000 0.91380  0.58870  0.60230  Biso   1.000  C
  H37      1.0000 0.88900  0.58300  0.63500  Biso   1.000  H
  C62      1.0000 0.94310  0.52510  0.57460  Biso   1.000  C
  H38      1.0000 0.93400  0.47900  0.59600  Biso   1.000  H
  C63      1.0000 0.98460  0.53420  0.51670  Biso   1.000  C
  C64      1.0000 0.99270  0.60910  0.48790  Biso   1.000  C
  H39      1.0000 0.02500  0.62200  0.45500  Biso   1.000  H
  C65      1.0000 0.96320  0.67140  0.51850  Biso   1.000  C
  H40      1.0000 0.97100  0.72000  0.51100  Biso   1.000  H
  O26      1.0000 0.26987  0.31338  0.64500  Biso   1.000  O
  O27      1.0000 0.42445  0.29987  0.81380  Biso   1.000  O
  O28      1.0000 0.26948  0.64896  0.93810  Biso   1.000  O
  O29      1.0000 0.41163  0.61192  0.12000  Biso   1.000  O
  O30      1.0000 0.40012  0.22094  0.61030  Biso   1.000  O
  N6       1.0000 0.42593  0.16028  0.57720  Biso   1.000  N
  C66      1.0000 0.33830  0.39802  0.82280  Biso   1.000  C
  C67      1.0000 0.26040  0.44770  0.75600  Biso   1.000  C
  H41      1.0000 0.20600  0.43500  0.66500  Biso   1.000  H
  C68      1.0000 0.25930  0.51290  0.81440  Biso   1.000  C
  H42      1.0000 0.20900  0.54700  0.77300  Biso   1.000  H
  C69      1.0000 0.33540  0.52945  0.94140  Biso   1.000  C
  C70      1.0000 0.41220  0.47870  0.00850  Biso   1.000  C
  H43      1.0000 0.46200  0.49200  0.08500  Biso   1.000  H
  C71      1.0000 0.41390  0.41420  0.94950  Biso   1.000  C
  H44      1.0000 0.45900  0.37700  0.98700  Biso   1.000  H
  C72      1.0000 0.34360  0.33178  0.75490  Biso   1.000  C
  C73      1.0000 0.33900  0.60270  0.00530  Biso   1.000  C
  C74      1.0000 0.41380  0.08870  0.60230  Biso   1.000  C
  H45      1.0000 0.38900  0.08300  0.63500  Biso   1.000  H
  C75      1.0000 0.44310  0.02510  0.57460  Biso   1.000  C
  H46      1.0000 0.43400  0.97900  0.59600  Biso   1.000  H
  C76      1.0000 0.48460  0.03420  0.51670  Biso   1.000  C
  C77      1.0000 0.49270  0.10910  0.48790  Biso   1.000  C
  H47      1.0000 0.52500  0.12200  0.45500  Biso   1.000  H
  C78      1.0000 0.46320  0.17140  0.51850  Biso   1.000  C
  H48      1.0000 0.47100  0.22000  0.51100  Biso   1.000  H
  O31      1.0000 0.23013  0.81338  0.85500  Biso   1.000  O
  O32      1.0000 0.07555  0.79987  0.68620  Biso   1.000  O
  O33      1.0000 0.23052  0.14896  0.56190  Biso   1.000  O
  O34      1.0000 0.08837  0.11192  0.38000  Biso   1.000  O
  O35      1.0000 0.09988  0.72094  0.88970  Biso   1.000  O
  N7       1.0000 0.07407  0.66028  0.92280  Biso   1.000  N
  C79      1.0000 0.16170  0.89802  0.67720  Biso   1.000  C
  C80      1.0000 0.23960  0.94770  0.74400  Biso   1.000  C
  H49      1.0000 0.29400  0.93500  0.83500  Biso   1.000  H
  C81      1.0000 0.24070  0.01290  0.68560  Biso   1.000  C
  H50      1.0000 0.29100  0.04700  0.72700  Biso   1.000  H
  C82      1.0000 0.16460  0.02945  0.55860  Biso   1.000  C
  C83      1.0000 0.08780  0.97870  0.49150  Biso   1.000  C
  H51      1.0000 0.03800  0.99200  0.41500  Biso   1.000  H
  C84      1.0000 0.08610  0.91420  0.55050  Biso   1.000  C
  H52      1.0000 0.04100  0.87700  0.51300  Biso   1.000  H
  C85      1.0000 0.15640  0.83178  0.74510  Biso   1.000  C
  C86      1.0000 0.16100  0.10270  0.49470  Biso   1.000  C
  C87      1.0000 0.08620  0.58870  0.89770  Biso   1.000  C
  H53      1.0000 0.11100  0.58300  0.86500  Biso   1.000  H
  C88      1.0000 0.05690  0.52510  0.92540  Biso   1.000  C
  H54      1.0000 0.06600  0.47900  0.90400  Biso   1.000  H
  C89      1.0000 0.01540  0.53420  0.98330  Biso   1.000  C
  C90      1.0000 0.00730  0.60910  0.01210  Biso   1.000  C
  H55      1.0000 0.97500  0.62200  0.04500  Biso   1.000  H
  C91      1.0000 0.03680  0.67140  0.98150  Biso   1.000  C
  H56      1.0000 0.02900  0.72000  0.98900  Biso   1.000  H
  O36      1.0000 0.73013  0.31338  0.85500  Biso   1.000  O
  O37      1.0000 0.57555  0.29987  0.68620  Biso   1.000  O
  O38      1.0000 0.73052  0.64896  0.56190  Biso   1.000  O
  O39      1.0000 0.58837  0.61192  0.38000  Biso   1.000  O
  O40      1.0000 0.59988  0.22094  0.88970  Biso   1.000  O
  N8       1.0000 0.57407  0.16028  0.92280  Biso   1.000  N
  C92      1.0000 0.66170  0.39802  0.67720  Biso   1.000  C
  C93      1.0000 0.73960  0.44770  0.74400  Biso   1.000  C
  H57      1.0000 0.79400  0.43500  0.83500  Biso   1.000  H
  C94      1.0000 0.74070  0.51290  0.68560  Biso   1.000  C
  H58      1.0000 0.79100  0.54700  0.72700  Biso   1.000  H
  C95      1.0000 0.66460  0.52945  0.55860  Biso   1.000  C
  C96      1.0000 0.58780  0.47870  0.49150  Biso   1.000  C
  H59      1.0000 0.53800  0.49200  0.41500  Biso   1.000  H
  C97      1.0000 0.58610  0.41420  0.55050  Biso   1.000  C
  H60      1.0000 0.54100  0.37700  0.51300  Biso   1.000  H
  C98      1.0000 0.65640  0.33178  0.74510  Biso   1.000  C
  C99      1.0000 0.66100  0.60270  0.49470  Biso   1.000  C
  C100     1.0000 0.58620  0.08870  0.89770  Biso   1.000  C
  H61      1.0000 0.61100  0.08300  0.86500  Biso   1.000  H
  C101     1.0000 0.55690  0.02510  0.92540  Biso   1.000  C
  H62      1.0000 0.56600  0.97900  0.90400  Biso   1.000  H
  C102     1.0000 0.51540  0.03420  0.98330  Biso   1.000  C
  C103     1.0000 0.50730  0.10910  0.01210  Biso   1.000  C
  H63      1.0000 0.47500  0.12200  0.04500  Biso   1.000  H
  C104     1.0000 0.53680  0.17140  0.98150  Biso   1.000  C
  H64      1.0000 0.52900  0.22000  0.98900  Biso   1.000  H
  Mg1      1.0000 0.25000  0.25000  0.50000  Biso   1.000  Mg
  Mg2      1.0000 0.75000  0.25000  0.00000  Biso   1.000  Mg
  Mg3      1.0000 0.75000  0.75000  0.50000  Biso   1.000  Mg
  Mg4      1.0000 0.25000  0.75000  0.00000  Biso   1.000  Mg
  Mg5      1.0000 0.00000  0.19470  0.25000  Biso   1.000  Mg
  Mg6      1.0000 0.50000  0.69470  0.25000  Biso   1.000  Mg
  Mg7      1.0000 0.00000  0.80530  0.75000  Biso   1.000  Mg
  Mg8      1.0000 0.50000  0.30530  0.75000  Biso   1.000  Mg
