data_image0
_cell_length_a       18.51
_cell_length_b       16.894
_cell_length_c       13.924
_cell_angle_alpha    90
_cell_angle_beta     130.542
_cell_angle_gamma    90

_symmetry_space_group_name_H-M    "P 1"
_symmetry_int_tables_number       1

loop_
  _symmetry_equiv_pos_as_xyz
  'x, y, z'

loop_
  _atom_site_label
  _atom_site_occupancy
  _atom_site_fract_x
  _atom_site_fract_y
  _atom_site_fract_z
  _atom_site_thermal_displace_type
  _atom_site_B_iso_or_equiv
  _atom_site_type_symbol
  O1       1.0000 0.58840  0.39131  0.38060  Biso   1.000  O
  O2       1.0000 0.73061  0.35318  0.55848  Biso   1.000  O
  O3       1.0000 0.57600  0.69797  0.69239  Biso   1.000  O
  O4       1.0000 0.73030  0.68590  0.85797  Biso   1.000  O
  O5       1.0000 0.40079  0.21990  0.11233  Biso   1.000  O
  N1       1.0000 0.42669  0.15949  0.07910  Biso   1.000  N
  C1       1.0000 0.66494  0.47305  0.55860  Biso   1.000  C
  C2       1.0000 0.58830  0.52371  0.49450  Biso   1.000  C
  H1       1.0000 0.53700  0.51490  0.40940  Biso   1.000  H
  C3       1.0000 0.58670  0.58751  0.55530  Biso   1.000  C
  H2       1.0000 0.53400  0.62070  0.51090  Biso   1.000  H
  C4       1.0000 0.66245  0.60262  0.68090  Biso   1.000  C
  C5       1.0000 0.73980  0.55330  0.74360  Biso   1.000  C
  H3       1.0000 0.79230  0.56350  0.82770  Biso   1.000  H
  C6       1.0000 0.74100  0.48842  0.68370  Biso   1.000  C
  H4       1.0000 0.79360  0.45510  0.72830  Biso   1.000  H
  C7       1.0000 0.66110  0.40000  0.49380  Biso   1.000  C
  C8       1.0000 0.65645  0.66775  0.74930  Biso   1.000  C
  C9       1.0000 0.46300  0.17348  0.02320  Biso   1.000  C
  H5       1.0000 0.46840  0.22520  0.00560  Biso   1.000  H
  C10      1.0000 0.49220  0.11144  0.99190  Biso   1.000  C
  H6       1.0000 0.51740  0.12170  0.95330  Biso   1.000  H
  C11      1.0000 0.48461  0.03385  0.01700  Biso   1.000  C
  C12      1.0000 0.44400  0.02244  0.07170  Biso   1.000  C
  H7       1.0000 0.43640  0.97130  0.08860  Biso   1.000  H
  C13      1.0000 0.41490  0.08566  0.10120  Biso   1.000  C
  H8       1.0000 0.38690  0.07710  0.13660  Biso   1.000  H
  O6       1.0000 0.08840  0.89131  0.38060  Biso   1.000  O
  O7       1.0000 0.23061  0.85318  0.55848  Biso   1.000  O
  O8       1.0000 0.07600  0.19797  0.69239  Biso   1.000  O
  O9       1.0000 0.23030  0.18590  0.85797  Biso   1.000  O
  O10      1.0000 0.90079  0.71990  0.11233  Biso   1.000  O
  N2       1.0000 0.92669  0.65949  0.07910  Biso   1.000  N
  C14      1.0000 0.16494  0.97305  0.55860  Biso   1.000  C
  C15      1.0000 0.08830  0.02371  0.49450  Biso   1.000  C
  H9       1.0000 0.03700  0.01490  0.40940  Biso   1.000  H
  C16      1.0000 0.08670  0.08751  0.55530  Biso   1.000  C
  H10      1.0000 0.03400  0.12070  0.51090  Biso   1.000  H
  C17      1.0000 0.16245  0.10262  0.68090  Biso   1.000  C
  C18      1.0000 0.23980  0.05330  0.74360  Biso   1.000  C
  H11      1.0000 0.29230  0.06350  0.82770  Biso   1.000  H
  C19      1.0000 0.24100  0.98842  0.68370  Biso   1.000  C
  H12      1.0000 0.29360  0.95510  0.72830  Biso   1.000  H
  C20      1.0000 0.16110  0.90000  0.49380  Biso   1.000  C
  C21      1.0000 0.15645  0.16775  0.74930  Biso   1.000  C
  C22      1.0000 0.96300  0.67348  0.02320  Biso   1.000  C
  H13      1.0000 0.96840  0.72520  0.00560  Biso   1.000  H
  C23      1.0000 0.99220  0.61144  0.99190  Biso   1.000  C
  H14      1.0000 0.01740  0.62170  0.95330  Biso   1.000  H
  C24      1.0000 0.98461  0.53385  0.01700  Biso   1.000  C
  C25      1.0000 0.94400  0.52244  0.07170  Biso   1.000  C
  H15      1.0000 0.93640  0.47130  0.08860  Biso   1.000  H
  C26      1.0000 0.91490  0.58566  0.10120  Biso   1.000  C
  H16      1.0000 0.88690  0.57710  0.13660  Biso   1.000  H
  O11      1.0000 0.41160  0.39131  0.11940  Biso   1.000  O
  O12      1.0000 0.26939  0.35318  0.94152  Biso   1.000  O
  O13      1.0000 0.42400  0.69797  0.80761  Biso   1.000  O
  O14      1.0000 0.26970  0.68590  0.64203  Biso   1.000  O
  O15      1.0000 0.59921  0.21990  0.38767  Biso   1.000  O
  N3       1.0000 0.57331  0.15949  0.42090  Biso   1.000  N
  C27      1.0000 0.33506  0.47305  0.94140  Biso   1.000  C
  C28      1.0000 0.41170  0.52371  0.00550  Biso   1.000  C
  H17      1.0000 0.46300  0.51490  0.09060  Biso   1.000  H
  C29      1.0000 0.41330  0.58751  0.94470  Biso   1.000  C
  H18      1.0000 0.46600  0.62070  0.98910  Biso   1.000  H
  C30      1.0000 0.33755  0.60262  0.81910  Biso   1.000  C
  C31      1.0000 0.26020  0.55330  0.75640  Biso   1.000  C
  H19      1.0000 0.20770  0.56350  0.67230  Biso   1.000  H
  C32      1.0000 0.25900  0.48842  0.81630  Biso   1.000  C
  H20      1.0000 0.20640  0.45510  0.77170  Biso   1.000  H
  C33      1.0000 0.33890  0.40000  0.00620  Biso   1.000  C
  C34      1.0000 0.34355  0.66775  0.75070  Biso   1.000  C
  C35      1.0000 0.53700  0.17348  0.47680  Biso   1.000  C
  H21      1.0000 0.53160  0.22520  0.49440  Biso   1.000  H
  C36      1.0000 0.50780  0.11144  0.50810  Biso   1.000  C
  H22      1.0000 0.48260  0.12170  0.54670  Biso   1.000  H
  C37      1.0000 0.51539  0.03385  0.48300  Biso   1.000  C
  C38      1.0000 0.55600  0.02244  0.42830  Biso   1.000  C
  H23      1.0000 0.56360  0.97130  0.41140  Biso   1.000  H
  C39      1.0000 0.58510  0.08566  0.39880  Biso   1.000  C
  H24      1.0000 0.61310  0.07710  0.36340  Biso   1.000  H
  O16      1.0000 0.91160  0.89131  0.11940  Biso   1.000  O
  O17      1.0000 0.76939  0.85318  0.94152  Biso   1.000  O
  O18      1.0000 0.92400  0.19797  0.80761  Biso   1.000  O
  O19      1.0000 0.76970  0.18590  0.64203  Biso   1.000  O
  O20      1.0000 0.09921  0.71990  0.38767  Biso   1.000  O
  N4       1.0000 0.07331  0.65949  0.42090  Biso   1.000  N
  C40      1.0000 0.83506  0.97305  0.94140  Biso   1.000  C
  C41      1.0000 0.91170  0.02371  0.00550  Biso   1.000  C
  H25      1.0000 0.96300  0.01490  0.09060  Biso   1.000  H
  C42      1.0000 0.91330  0.08751  0.94470  Biso   1.000  C
  H26      1.0000 0.96600  0.12070  0.98910  Biso   1.000  H
  C43      1.0000 0.83755  0.10262  0.81910  Biso   1.000  C
  C44      1.0000 0.76020  0.05330  0.75640  Biso   1.000  C
  H27      1.0000 0.70770  0.06350  0.67230  Biso   1.000  H
  C45      1.0000 0.75900  0.98842  0.81630  Biso   1.000  C
  H28      1.0000 0.70640  0.95510  0.77170  Biso   1.000  H
  C46      1.0000 0.83890  0.90000  0.00620  Biso   1.000  C
  C47      1.0000 0.84355  0.16775  0.75070  Biso   1.000  C
  C48      1.0000 0.03700  0.67348  0.47680  Biso   1.000  C
  H29      1.0000 0.03160  0.72520  0.49440  Biso   1.000  H
  C49      1.0000 0.00780  0.61144  0.50810  Biso   1.000  C
  H30      1.0000 0.98260  0.62170  0.54670  Biso   1.000  H
  C50      1.0000 0.01539  0.53385  0.48300  Biso   1.000  C
  C51      1.0000 0.05600  0.52244  0.42830  Biso   1.000  C
  H31      1.0000 0.06360  0.47130  0.41140  Biso   1.000  H
  C52      1.0000 0.08510  0.58566  0.39880  Biso   1.000  C
  H32      1.0000 0.11310  0.57710  0.36340  Biso   1.000  H
  O21      1.0000 0.41160  0.60869  0.61940  Biso   1.000  O
  O22      1.0000 0.26939  0.64682  0.44152  Biso   1.000  O
  O23      1.0000 0.42400  0.30203  0.30761  Biso   1.000  O
  O24      1.0000 0.26970  0.31410  0.14203  Biso   1.000  O
  O25      1.0000 0.59921  0.78010  0.88767  Biso   1.000  O
  N5       1.0000 0.57331  0.84051  0.92090  Biso   1.000  N
  C53      1.0000 0.33506  0.52695  0.44140  Biso   1.000  C
  C54      1.0000 0.41170  0.47629  0.50550  Biso   1.000  C
  H33      1.0000 0.46300  0.48510  0.59060  Biso   1.000  H
  C55      1.0000 0.41330  0.41249  0.44470  Biso   1.000  C
  H34      1.0000 0.46600  0.37930  0.48910  Biso   1.000  H
  C56      1.0000 0.33755  0.39738  0.31910  Biso   1.000  C
  C57      1.0000 0.26020  0.44670  0.25640  Biso   1.000  C
  H35      1.0000 0.20770  0.43650  0.17230  Biso   1.000  H
  C58      1.0000 0.25900  0.51158  0.31630  Biso   1.000  C
  H36      1.0000 0.20640  0.54490  0.27170  Biso   1.000  H
  C59      1.0000 0.33890  0.60000  0.50620  Biso   1.000  C
  C60      1.0000 0.34355  0.33225  0.25070  Biso   1.000  C
  C61      1.0000 0.53700  0.82652  0.97680  Biso   1.000  C
  H37      1.0000 0.53160  0.77480  0.99440  Biso   1.000  H
  C62      1.0000 0.50780  0.88856  0.00810  Biso   1.000  C
  H38      1.0000 0.48260  0.87830  0.04670  Biso   1.000  H
  C63      1.0000 0.51539  0.96615  0.98300  Biso   1.000  C
  C64      1.0000 0.55600  0.97756  0.92830  Biso   1.000  C
  H39      1.0000 0.56360  0.02870  0.91140  Biso   1.000  H
  C65      1.0000 0.58510  0.91434  0.89880  Biso   1.000  C
  H40      1.0000 0.61310  0.92290  0.86340  Biso   1.000  H
  O26      1.0000 0.91160  0.10869  0.61940  Biso   1.000  O
  O27      1.0000 0.76939  0.14682  0.44152  Biso   1.000  O
  O28      1.0000 0.92400  0.80203  0.30761  Biso   1.000  O
  O29      1.0000 0.76970  0.81410  0.14203  Biso   1.000  O
  O30      1.0000 0.09921  0.28010  0.88767  Biso   1.000  O
  N6       1.0000 0.07331  0.34051  0.92090  Biso   1.000  N
  C66      1.0000 0.83506  0.02695  0.44140  Biso   1.000  C
  C67      1.0000 0.91170  0.97629  0.50550  Biso   1.000  C
  H41      1.0000 0.96300  0.98510  0.59060  Biso   1.000  H
  C68      1.0000 0.91330  0.91249  0.44470  Biso   1.000  C
  H42      1.0000 0.96600  0.87930  0.48910  Biso   1.000  H
  C69      1.0000 0.83755  0.89738  0.31910  Biso   1.000  C
  C70      1.0000 0.76020  0.94670  0.25640  Biso   1.000  C
  H43      1.0000 0.70770  0.93650  0.17230  Biso   1.000  H
  C71      1.0000 0.75900  0.01158  0.31630  Biso   1.000  C
  H44      1.0000 0.70640  0.04490  0.27170  Biso   1.000  H
  C72      1.0000 0.83890  0.10000  0.50620  Biso   1.000  C
  C73      1.0000 0.84355  0.83225  0.25070  Biso   1.000  C
  C74      1.0000 0.03700  0.32652  0.97680  Biso   1.000  C
  H45      1.0000 0.03160  0.27480  0.99440  Biso   1.000  H
  C75      1.0000 0.00780  0.38856  0.00810  Biso   1.000  C
  H46      1.0000 0.98260  0.37830  0.04670  Biso   1.000  H
  C76      1.0000 0.01539  0.46615  0.98300  Biso   1.000  C
  C77      1.0000 0.05600  0.47756  0.92830  Biso   1.000  C
  H47      1.0000 0.06360  0.52870  0.91140  Biso   1.000  H
  C78      1.0000 0.08510  0.41434  0.89880  Biso   1.000  C
  H48      1.0000 0.11310  0.42290  0.86340  Biso   1.000  H
  O31      1.0000 0.58840  0.60869  0.88060  Biso   1.000  O
  O32      1.0000 0.73061  0.64682  0.05848  Biso   1.000  O
  O33      1.0000 0.57600  0.30203  0.19239  Biso   1.000  O
  O34      1.0000 0.73030  0.31410  0.35797  Biso   1.000  O
  O35      1.0000 0.40079  0.78010  0.61233  Biso   1.000  O
  N7       1.0000 0.42669  0.84051  0.57910  Biso   1.000  N
  C79      1.0000 0.66494  0.52695  0.05860  Biso   1.000  C
  C80      1.0000 0.58830  0.47629  0.99450  Biso   1.000  C
  H49      1.0000 0.53700  0.48510  0.90940  Biso   1.000  H
  C81      1.0000 0.58670  0.41249  0.05530  Biso   1.000  C
  H50      1.0000 0.53400  0.37930  0.01090  Biso   1.000  H
  C82      1.0000 0.66245  0.39738  0.18090  Biso   1.000  C
  C83      1.0000 0.73980  0.44670  0.24360  Biso   1.000  C
  H51      1.0000 0.79230  0.43650  0.32770  Biso   1.000  H
  C84      1.0000 0.74100  0.51158  0.18370  Biso   1.000  C
  H52      1.0000 0.79360  0.54490  0.22830  Biso   1.000  H
  C85      1.0000 0.66110  0.60000  0.99380  Biso   1.000  C
  C86      1.0000 0.65645  0.33225  0.24930  Biso   1.000  C
  C87      1.0000 0.46300  0.82652  0.52320  Biso   1.000  C
  H53      1.0000 0.46840  0.77480  0.50560  Biso   1.000  H
  C88      1.0000 0.49220  0.88856  0.49190  Biso   1.000  C
  H54      1.0000 0.51740  0.87830  0.45330  Biso   1.000  H
  C89      1.0000 0.48461  0.96615  0.51700  Biso   1.000  C
  C90      1.0000 0.44400  0.97756  0.57170  Biso   1.000  C
  H55      1.0000 0.43640  0.02870  0.58860  Biso   1.000  H
  C91      1.0000 0.41490  0.91434  0.60120  Biso   1.000  C
  H56      1.0000 0.38690  0.92290  0.63660  Biso   1.000  H
  O36      1.0000 0.08840  0.10869  0.88060  Biso   1.000  O
  O37      1.0000 0.23061  0.14682  0.05848  Biso   1.000  O
  O38      1.0000 0.07600  0.80203  0.19239  Biso   1.000  O
  O39      1.0000 0.23030  0.81410  0.35797  Biso   1.000  O
  O40      1.0000 0.90079  0.28010  0.61233  Biso   1.000  O
  N8       1.0000 0.92669  0.34051  0.57910  Biso   1.000  N
  C92      1.0000 0.16494  0.02695  0.05860  Biso   1.000  C
  C93      1.0000 0.08830  0.97629  0.99450  Biso   1.000  C
  H57      1.0000 0.03700  0.98510  0.90940  Biso   1.000  H
  C94      1.0000 0.08670  0.91249  0.05530  Biso   1.000  C
  H58      1.0000 0.03400  0.87930  0.01090  Biso   1.000  H
  C95      1.0000 0.16245  0.89738  0.18090  Biso   1.000  C
  C96      1.0000 0.23980  0.94670  0.24360  Biso   1.000  C
  H59      1.0000 0.29230  0.93650  0.32770  Biso   1.000  H
  C97      1.0000 0.24100  0.01158  0.18370  Biso   1.000  C
  H60      1.0000 0.29360  0.04490  0.22830  Biso   1.000  H
  C98      1.0000 0.16110  0.10000  0.99380  Biso   1.000  C
  C99      1.0000 0.15645  0.83225  0.24930  Biso   1.000  C
  C100     1.0000 0.96300  0.32652  0.52320  Biso   1.000  C
  H61      1.0000 0.96840  0.27480  0.50560  Biso   1.000  H
  C101     1.0000 0.99220  0.38856  0.49190  Biso   1.000  C
  H62      1.0000 0.01740  0.37830  0.45330  Biso   1.000  H
  C102     1.0000 0.98461  0.46615  0.51700  Biso   1.000  C
  C103     1.0000 0.94400  0.47756  0.57170  Biso   1.000  C
  H63      1.0000 0.93640  0.52870  0.58860  Biso   1.000  H
  C104     1.0000 0.91490  0.41434  0.60120  Biso   1.000  C
  H64      1.0000 0.88690  0.42290  0.63660  Biso   1.000  H
  Mg1      1.0000 0.50000  0.30790  0.25000  Biso   1.000  Mg
  Mg2      1.0000 0.00000  0.80790  0.25000  Biso   1.000  Mg
  Mg3      1.0000 0.50000  0.69210  0.75000  Biso   1.000  Mg
  Mg4      1.0000 0.00000  0.19210  0.75000  Biso   1.000  Mg
  Mg5      1.0000 0.75000  0.25000  0.50000  Biso   1.000  Mg
  Mg6      1.0000 0.25000  0.25000  0.00000  Biso   1.000  Mg
  Mg7      1.0000 0.25000  0.75000  0.50000  Biso   1.000  Mg
  Mg8      1.0000 0.75000  0.75000  0.00000  Biso   1.000  Mg
