data_image0
_cell_length_a       17.3288
_cell_length_b       17.7491
_cell_length_c       12.857
_cell_angle_alpha    90
_cell_angle_beta     126.53
_cell_angle_gamma    90

_symmetry_space_group_name_H-M    "P 1"
_symmetry_int_tables_number       1

loop_
  _symmetry_equiv_pos_as_xyz
  'x, y, z'

loop_
  _atom_site_label
  _atom_site_occupancy
  _atom_site_fract_x
  _atom_site_fract_y
  _atom_site_fract_z
  _atom_site_thermal_displace_type
  _atom_site_B_iso_or_equiv
  _atom_site_type_symbol
  O1       1.0000 0.27454  0.15291  0.43710  Biso   1.000  O
  O2       1.0000 0.41385  0.11508  0.61930  Biso   1.000  O
  O3       1.0000 0.26395  0.81384  0.14670  Biso   1.000  O
  O4       1.0000 0.41793  0.79930  0.31410  Biso   1.000  O
  O5       1.0000 0.40262  0.27875  0.61320  Biso   1.000  O
  N1       1.0000 0.43010  0.33944  0.58260  Biso   1.000  N
  C1       1.0000 0.33500  0.03140  0.44270  Biso   1.000  C
  C2       1.0000 0.40710  0.97870  0.51100  Biso   1.000  C
  H1       1.0000 0.45670  0.98720  0.59780  Biso   1.000  H
  C3       1.0000 0.40660  0.91350  0.45200  Biso   1.000  C
  H2       1.0000 0.45640  0.87900  0.49910  Biso   1.000  H
  C4       1.0000 0.33300  0.89898  0.32440  Biso   1.000  C
  C5       1.0000 0.25870  0.95000  0.25710  Biso   1.000  C
  H3       1.0000 0.20710  0.93970  0.17200  Biso   1.000  H
  C6       1.0000 0.26030  0.01650  0.31520  Biso   1.000  C
  H4       1.0000 0.21070  0.05120  0.26800  Biso   1.000  H
  C7       1.0000 0.34170  0.10570  0.50490  Biso   1.000  C
  C8       1.0000 0.33750  0.83194  0.25620  Biso   1.000  C
  C9       1.0000 0.47850  0.33200  0.53200  Biso   1.000  C
  H5       1.0000 0.49330  0.28420  0.51900  Biso   1.000  H
  C10      1.0000 0.50630  0.39400  0.49930  Biso   1.000  C
  H6       1.0000 0.53920  0.38790  0.46330  Biso   1.000  H
  C11      1.0000 0.48620  0.46600  0.51880  Biso   1.000  C
  C12      1.0000 0.43680  0.47130  0.57260  Biso   1.000  C
  H7       1.0000 0.42230  0.51860  0.58820  Biso   1.000  H
  C13      1.0000 0.40890  0.40740  0.60330  Biso   1.000  C
  H8       1.0000 0.37520  0.41170  0.63850  Biso   1.000  H
  O6       1.0000 0.77454  0.65291  0.43710  Biso   1.000  O
  O7       1.0000 0.91385  0.61508  0.61930  Biso   1.000  O
  O8       1.0000 0.76395  0.31384  0.14670  Biso   1.000  O
  O9       1.0000 0.91793  0.29930  0.31410  Biso   1.000  O
  O10      1.0000 0.90262  0.77875  0.61320  Biso   1.000  O
  N2       1.0000 0.93010  0.83944  0.58260  Biso   1.000  N
  C14      1.0000 0.83500  0.53140  0.44270  Biso   1.000  C
  C15      1.0000 0.90710  0.47870  0.51100  Biso   1.000  C
  H9       1.0000 0.95670  0.48720  0.59780  Biso   1.000  H
  C16      1.0000 0.90660  0.41350  0.45200  Biso   1.000  C
  H10      1.0000 0.95640  0.37900  0.49910  Biso   1.000  H
  C17      1.0000 0.83300  0.39898  0.32440  Biso   1.000  C
  C18      1.0000 0.75870  0.45000  0.25710  Biso   1.000  C
  H11      1.0000 0.70710  0.43970  0.17200  Biso   1.000  H
  C19      1.0000 0.76030  0.51650  0.31520  Biso   1.000  C
  H12      1.0000 0.71070  0.55120  0.26800  Biso   1.000  H
  C20      1.0000 0.84170  0.60570  0.50490  Biso   1.000  C
  C21      1.0000 0.83750  0.33194  0.25620  Biso   1.000  C
  C22      1.0000 0.97850  0.83200  0.53200  Biso   1.000  C
  H13      1.0000 0.99330  0.78420  0.51900  Biso   1.000  H
  C23      1.0000 0.00630  0.89400  0.49930  Biso   1.000  C
  H14      1.0000 0.03920  0.88790  0.46330  Biso   1.000  H
  C24      1.0000 0.98620  0.96600  0.51880  Biso   1.000  C
  C25      1.0000 0.93680  0.97130  0.57260  Biso   1.000  C
  H15      1.0000 0.92230  0.01860  0.58820  Biso   1.000  H
  C26      1.0000 0.90890  0.90740  0.60330  Biso   1.000  C
  H16      1.0000 0.87520  0.91170  0.63850  Biso   1.000  H
  O11      1.0000 0.72546  0.15291  0.06290  Biso   1.000  O
  O12      1.0000 0.58615  0.11508  0.88070  Biso   1.000  O
  O13      1.0000 0.73605  0.81384  0.35330  Biso   1.000  O
  O14      1.0000 0.58207  0.79930  0.18590  Biso   1.000  O
  O15      1.0000 0.59738  0.27875  0.88680  Biso   1.000  O
  N3       1.0000 0.56990  0.33944  0.91740  Biso   1.000  N
  C27      1.0000 0.66500  0.03140  0.05730  Biso   1.000  C
  C28      1.0000 0.59290  0.97870  0.98900  Biso   1.000  C
  H17      1.0000 0.54330  0.98720  0.90220  Biso   1.000  H
  C29      1.0000 0.59340  0.91350  0.04800  Biso   1.000  C
  H18      1.0000 0.54360  0.87900  0.00090  Biso   1.000  H
  C30      1.0000 0.66700  0.89898  0.17560  Biso   1.000  C
  C31      1.0000 0.74130  0.95000  0.24290  Biso   1.000  C
  H19      1.0000 0.79290  0.93970  0.32800  Biso   1.000  H
  C32      1.0000 0.73970  0.01650  0.18480  Biso   1.000  C
  H20      1.0000 0.78930  0.05120  0.23200  Biso   1.000  H
  C33      1.0000 0.65830  0.10570  0.99510  Biso   1.000  C
  C34      1.0000 0.66250  0.83194  0.24380  Biso   1.000  C
  C35      1.0000 0.52150  0.33200  0.96800  Biso   1.000  C
  H21      1.0000 0.50670  0.28420  0.98100  Biso   1.000  H
  C36      1.0000 0.49370  0.39400  0.00070  Biso   1.000  C
  H22      1.0000 0.46080  0.38790  0.03670  Biso   1.000  H
  C37      1.0000 0.51380  0.46600  0.98120  Biso   1.000  C
  C38      1.0000 0.56320  0.47130  0.92740  Biso   1.000  C
  H23      1.0000 0.57770  0.51860  0.91180  Biso   1.000  H
  C39      1.0000 0.59110  0.40740  0.89670  Biso   1.000  C
  H24      1.0000 0.62480  0.41170  0.86150  Biso   1.000  H
  O16      1.0000 0.22546  0.65291  0.06290  Biso   1.000  O
  O17      1.0000 0.08615  0.61508  0.88070  Biso   1.000  O
  O18      1.0000 0.23605  0.31384  0.35330  Biso   1.000  O
  O19      1.0000 0.08207  0.29930  0.18590  Biso   1.000  O
  O20      1.0000 0.09738  0.77875  0.88680  Biso   1.000  O
  N4       1.0000 0.06990  0.83944  0.91740  Biso   1.000  N
  C40      1.0000 0.16500  0.53140  0.05730  Biso   1.000  C
  C41      1.0000 0.09290  0.47870  0.98900  Biso   1.000  C
  H25      1.0000 0.04330  0.48720  0.90220  Biso   1.000  H
  C42      1.0000 0.09340  0.41350  0.04800  Biso   1.000  C
  H26      1.0000 0.04360  0.37900  0.00090  Biso   1.000  H
  C43      1.0000 0.16700  0.39898  0.17560  Biso   1.000  C
  C44      1.0000 0.24130  0.45000  0.24290  Biso   1.000  C
  H27      1.0000 0.29290  0.43970  0.32800  Biso   1.000  H
  C45      1.0000 0.23970  0.51650  0.18480  Biso   1.000  C
  H28      1.0000 0.28930  0.55120  0.23200  Biso   1.000  H
  C46      1.0000 0.15830  0.60570  0.99510  Biso   1.000  C
  C47      1.0000 0.16250  0.33194  0.24380  Biso   1.000  C
  C48      1.0000 0.02150  0.83200  0.96800  Biso   1.000  C
  H29      1.0000 0.00670  0.78420  0.98100  Biso   1.000  H
  C49      1.0000 0.99370  0.89400  0.00070  Biso   1.000  C
  H30      1.0000 0.96080  0.88790  0.03670  Biso   1.000  H
  C50      1.0000 0.01380  0.96600  0.98120  Biso   1.000  C
  C51      1.0000 0.06320  0.97130  0.92740  Biso   1.000  C
  H31      1.0000 0.07770  0.01860  0.91180  Biso   1.000  H
  C52      1.0000 0.09110  0.90740  0.89670  Biso   1.000  C
  H32      1.0000 0.12480  0.91170  0.86150  Biso   1.000  H
  O21      1.0000 0.72546  0.84709  0.56290  Biso   1.000  O
  O22      1.0000 0.58615  0.88492  0.38070  Biso   1.000  O
  O23      1.0000 0.73605  0.18616  0.85330  Biso   1.000  O
  O24      1.0000 0.58207  0.20070  0.68590  Biso   1.000  O
  O25      1.0000 0.59738  0.72125  0.38680  Biso   1.000  O
  N5       1.0000 0.56990  0.66056  0.41740  Biso   1.000  N
  C53      1.0000 0.66500  0.96860  0.55730  Biso   1.000  C
  C54      1.0000 0.59290  0.02130  0.48900  Biso   1.000  C
  H33      1.0000 0.54330  0.01280  0.40220  Biso   1.000  H
  C55      1.0000 0.59340  0.08650  0.54800  Biso   1.000  C
  H34      1.0000 0.54360  0.12100  0.50090  Biso   1.000  H
  C56      1.0000 0.66700  0.10102  0.67560  Biso   1.000  C
  C57      1.0000 0.74130  0.05000  0.74290  Biso   1.000  C
  H35      1.0000 0.79290  0.06030  0.82800  Biso   1.000  H
  C58      1.0000 0.73970  0.98350  0.68480  Biso   1.000  C
  H36      1.0000 0.78930  0.94880  0.73200  Biso   1.000  H
  C59      1.0000 0.65830  0.89430  0.49510  Biso   1.000  C
  C60      1.0000 0.66250  0.16806  0.74380  Biso   1.000  C
  C61      1.0000 0.52150  0.66800  0.46800  Biso   1.000  C
  H37      1.0000 0.50670  0.71580  0.48100  Biso   1.000  H
  C62      1.0000 0.49370  0.60600  0.50070  Biso   1.000  C
  H38      1.0000 0.46080  0.61210  0.53670  Biso   1.000  H
  C63      1.0000 0.51380  0.53400  0.48120  Biso   1.000  C
  C64      1.0000 0.56320  0.52870  0.42740  Biso   1.000  C
  H39      1.0000 0.57770  0.48140  0.41180  Biso   1.000  H
  C65      1.0000 0.59110  0.59260  0.39670  Biso   1.000  C
  H40      1.0000 0.62480  0.58830  0.36150  Biso   1.000  H
  O26      1.0000 0.22546  0.34709  0.56290  Biso   1.000  O
  O27      1.0000 0.08615  0.38492  0.38070  Biso   1.000  O
  O28      1.0000 0.23605  0.68616  0.85330  Biso   1.000  O
  O29      1.0000 0.08207  0.70070  0.68590  Biso   1.000  O
  O30      1.0000 0.09738  0.22125  0.38680  Biso   1.000  O
  N6       1.0000 0.06990  0.16056  0.41740  Biso   1.000  N
  C66      1.0000 0.16500  0.46860  0.55730  Biso   1.000  C
  C67      1.0000 0.09290  0.52130  0.48900  Biso   1.000  C
  H41      1.0000 0.04330  0.51280  0.40220  Biso   1.000  H
  C68      1.0000 0.09340  0.58650  0.54800  Biso   1.000  C
  H42      1.0000 0.04360  0.62100  0.50090  Biso   1.000  H
  C69      1.0000 0.16700  0.60102  0.67560  Biso   1.000  C
  C70      1.0000 0.24130  0.55000  0.74290  Biso   1.000  C
  H43      1.0000 0.29290  0.56030  0.82800  Biso   1.000  H
  C71      1.0000 0.23970  0.48350  0.68480  Biso   1.000  C
  H44      1.0000 0.28930  0.44880  0.73200  Biso   1.000  H
  C72      1.0000 0.15830  0.39430  0.49510  Biso   1.000  C
  C73      1.0000 0.16250  0.66806  0.74380  Biso   1.000  C
  C74      1.0000 0.02150  0.16800  0.46800  Biso   1.000  C
  H45      1.0000 0.00670  0.21580  0.48100  Biso   1.000  H
  C75      1.0000 0.99370  0.10600  0.50070  Biso   1.000  C
  H46      1.0000 0.96080  0.11210  0.53670  Biso   1.000  H
  C76      1.0000 0.01380  0.03400  0.48120  Biso   1.000  C
  C77      1.0000 0.06320  0.02870  0.42740  Biso   1.000  C
  H47      1.0000 0.07770  0.98140  0.41180  Biso   1.000  H
  C78      1.0000 0.09110  0.09260  0.39670  Biso   1.000  C
  H48      1.0000 0.12480  0.08830  0.36150  Biso   1.000  H
  O31      1.0000 0.27454  0.84709  0.93710  Biso   1.000  O
  O32      1.0000 0.41385  0.88492  0.11930  Biso   1.000  O
  O33      1.0000 0.26395  0.18616  0.64670  Biso   1.000  O
  O34      1.0000 0.41793  0.20070  0.81410  Biso   1.000  O
  O35      1.0000 0.40262  0.72125  0.11320  Biso   1.000  O
  N7       1.0000 0.43010  0.66056  0.08260  Biso   1.000  N
  C79      1.0000 0.33500  0.96860  0.94270  Biso   1.000  C
  C80      1.0000 0.40710  0.02130  0.01100  Biso   1.000  C
  H49      1.0000 0.45670  0.01280  0.09780  Biso   1.000  H
  C81      1.0000 0.40660  0.08650  0.95200  Biso   1.000  C
  H50      1.0000 0.45640  0.12100  0.99910  Biso   1.000  H
  C82      1.0000 0.33300  0.10102  0.82440  Biso   1.000  C
  C83      1.0000 0.25870  0.05000  0.75710  Biso   1.000  C
  H51      1.0000 0.20710  0.06030  0.67200  Biso   1.000  H
  C84      1.0000 0.26030  0.98350  0.81520  Biso   1.000  C
  H52      1.0000 0.21070  0.94880  0.76800  Biso   1.000  H
  C85      1.0000 0.34170  0.89430  0.00490  Biso   1.000  C
  C86      1.0000 0.33750  0.16806  0.75620  Biso   1.000  C
  C87      1.0000 0.47850  0.66800  0.03200  Biso   1.000  C
  H53      1.0000 0.49330  0.71580  0.01900  Biso   1.000  H
  C88      1.0000 0.50630  0.60600  0.99930  Biso   1.000  C
  H54      1.0000 0.53920  0.61210  0.96330  Biso   1.000  H
  C89      1.0000 0.48620  0.53400  0.01880  Biso   1.000  C
  C90      1.0000 0.43680  0.52870  0.07260  Biso   1.000  C
  H55      1.0000 0.42230  0.48140  0.08820  Biso   1.000  H
  C91      1.0000 0.40890  0.59260  0.10330  Biso   1.000  C
  H56      1.0000 0.37520  0.58830  0.13850  Biso   1.000  H
  O36      1.0000 0.77454  0.34709  0.93710  Biso   1.000  O
  O37      1.0000 0.91385  0.38492  0.11930  Biso   1.000  O
  O38      1.0000 0.76395  0.68616  0.64670  Biso   1.000  O
  O39      1.0000 0.91793  0.70070  0.81410  Biso   1.000  O
  O40      1.0000 0.90262  0.22125  0.11320  Biso   1.000  O
  N8       1.0000 0.93010  0.16056  0.08260  Biso   1.000  N
  C92      1.0000 0.83500  0.46860  0.94270  Biso   1.000  C
  C93      1.0000 0.90710  0.52130  0.01100  Biso   1.000  C
  H57      1.0000 0.95670  0.51280  0.09780  Biso   1.000  H
  C94      1.0000 0.90660  0.58650  0.95200  Biso   1.000  C
  H58      1.0000 0.95640  0.62100  0.99910  Biso   1.000  H
  C95      1.0000 0.83300  0.60102  0.82440  Biso   1.000  C
  C96      1.0000 0.75870  0.55000  0.75710  Biso   1.000  C
  H59      1.0000 0.70710  0.56030  0.67200  Biso   1.000  H
  C97      1.0000 0.76030  0.48350  0.81520  Biso   1.000  C
  H60      1.0000 0.71070  0.44880  0.76800  Biso   1.000  H
  C98      1.0000 0.84170  0.39430  0.00490  Biso   1.000  C
  C99      1.0000 0.83750  0.66806  0.75620  Biso   1.000  C
  C100     1.0000 0.97850  0.16800  0.03200  Biso   1.000  C
  H61      1.0000 0.99330  0.21580  0.01900  Biso   1.000  H
  C101     1.0000 0.00630  0.10600  0.99930  Biso   1.000  C
  H62      1.0000 0.03920  0.11210  0.96330  Biso   1.000  H
  C102     1.0000 0.98620  0.03400  0.01880  Biso   1.000  C
  C103     1.0000 0.93680  0.02870  0.07260  Biso   1.000  C
  H63      1.0000 0.92230  0.98140  0.08820  Biso   1.000  H
  C104     1.0000 0.90890  0.09260  0.10330  Biso   1.000  C
  H64      1.0000 0.87520  0.08830  0.13850  Biso   1.000  H
  Mg1      1.0000 0.25000  0.25000  0.50000  Biso   1.000  Mg
  Mg2      1.0000 0.75000  0.25000  0.00000  Biso   1.000  Mg
  Mg3      1.0000 0.75000  0.75000  0.50000  Biso   1.000  Mg
  Mg4      1.0000 0.25000  0.75000  0.00000  Biso   1.000  Mg
  Mg5      1.0000 0.50000  0.19483  0.75000  Biso   1.000  Mg
  Mg6      1.0000 0.00000  0.69483  0.75000  Biso   1.000  Mg
  Mg7      1.0000 0.50000  0.80517  0.25000  Biso   1.000  Mg
  Mg8      1.0000 0.00000  0.30517  0.25000  Biso   1.000  Mg
