data_image0
_cell_length_a       21.5594
_cell_length_b       21.5594
_cell_length_c       14.9195
_cell_angle_alpha    90
_cell_angle_beta     90
_cell_angle_gamma    120

_symmetry_space_group_name_H-M    "P 1"
_symmetry_int_tables_number       1

loop_
  _symmetry_equiv_pos_as_xyz
  'x, y, z'

loop_
  _atom_site_label
  _atom_site_occupancy
  _atom_site_fract_x
  _atom_site_fract_y
  _atom_site_fract_z
  _atom_site_thermal_displace_type
  _atom_site_B_iso_or_equiv
  _atom_site_type_symbol
  N1       1.0000 0.07510  0.20810  0.14140  Biso   1.000  N
  N2       1.0000 0.02150  0.09790  0.08970  Biso   1.000  N
  N3       1.0000 0.17490  0.16480  0.32880  Biso   1.000  N
  N4       1.0000 0.10110  0.07190  0.41070  Biso   1.000  N
  C1       1.0000 0.14880  0.30830  0.24610  Biso   1.000  C
  C2       1.0000 0.13430  0.35920  0.27930  Biso   1.000  C
  H1       1.0000 0.11210  0.37670  0.24180  Biso   1.000  H
  C3       1.0000 0.18220  0.28120  0.30160  Biso   1.000  C
  C4       1.0000 0.12920  0.28420  0.14880  Biso   1.000  C
  H2       1.0000 0.17200  0.29290  0.11670  Biso   1.000  H
  H3       1.0000 0.11110  0.31250  0.12060  Biso   1.000  H
  C5       1.0000 0.07810  0.16210  0.08310  Biso   1.000  C
  H4       1.0000 0.11560  0.17420  0.04310  Biso   1.000  H
  C6       1.0000 0.98060  0.10320  0.15620  Biso   1.000  C
  H5       1.0000 0.93690  0.06590  0.17610  Biso   1.000  H
  C7       1.0000 0.01350  0.17080  0.18840  Biso   1.000  C
  H6       1.0000 0.99710  0.18830  0.23400  Biso   1.000  H
  C8       1.0000 0.20330  0.22770  0.27020  Biso   1.000  C
  H7       1.0000 0.18550  0.21240  0.20980  Biso   1.000  H
  H8       1.0000 0.25510  0.25060  0.26860  Biso   1.000  H
  C9       1.0000 0.10770  0.12440  0.35910  Biso   1.000  C
  H9       1.0000 0.07030  0.13250  0.34530  Biso   1.000  H
  C10      1.0000 0.16700  0.07860  0.41100  Biso   1.000  C
  H10      1.0000 0.17880  0.04810  0.44110  Biso   1.000  H
  C11      1.0000 0.21270  0.13490  0.36240  Biso   1.000  C
  H11      1.0000 0.26100  0.15070  0.35310  Biso   1.000  H
  N5       1.0000 0.74177  0.54143  0.47473  Biso   1.000  N
  N6       1.0000 0.68817  0.43123  0.42303  Biso   1.000  N
  N7       1.0000 0.84157  0.49813  0.66213  Biso   1.000  N
  N8       1.0000 0.76777  0.40523  0.74403  Biso   1.000  N
  C12      1.0000 0.81547  0.64163  0.57943  Biso   1.000  C
  C13      1.0000 0.80097  0.69253  0.61263  Biso   1.000  C
  H12      1.0000 0.77877  0.71003  0.57513  Biso   1.000  H
  C14      1.0000 0.84887  0.61453  0.63493  Biso   1.000  C
  C15      1.0000 0.79587  0.61753  0.48213  Biso   1.000  C
  H13      1.0000 0.83867  0.62623  0.45003  Biso   1.000  H
  H14      1.0000 0.77777  0.64583  0.45393  Biso   1.000  H
  C16      1.0000 0.74477  0.49543  0.41643  Biso   1.000  C
  H15      1.0000 0.78227  0.50753  0.37643  Biso   1.000  H
  C17      1.0000 0.64727  0.43653  0.48953  Biso   1.000  C
  H16      1.0000 0.60357  0.39923  0.50943  Biso   1.000  H
  C18      1.0000 0.68017  0.50413  0.52173  Biso   1.000  C
  H17      1.0000 0.66377  0.52163  0.56733  Biso   1.000  H
  C19      1.0000 0.86997  0.56103  0.60353  Biso   1.000  C
  H18      1.0000 0.85217  0.54573  0.54313  Biso   1.000  H
  H19      1.0000 0.92177  0.58393  0.60193  Biso   1.000  H
  C20      1.0000 0.77437  0.45773  0.69243  Biso   1.000  C
  H20      1.0000 0.73697  0.46583  0.67863  Biso   1.000  H
  C21      1.0000 0.83367  0.41193  0.74433  Biso   1.000  C
  H21      1.0000 0.84547  0.38143  0.77443  Biso   1.000  H
  C22      1.0000 0.87937  0.46823  0.69573  Biso   1.000  C
  H22      1.0000 0.92767  0.48403  0.68643  Biso   1.000  H
  N9       1.0000 0.40843  0.87477  0.80807  Biso   1.000  N
  N10      1.0000 0.35483  0.76457  0.75637  Biso   1.000  N
  N11      1.0000 0.50823  0.83147  0.99547  Biso   1.000  N
  N12      1.0000 0.43443  0.73857  0.07737  Biso   1.000  N
  C23      1.0000 0.48213  0.97497  0.91277  Biso   1.000  C
  C24      1.0000 0.46763  0.02587  0.94597  Biso   1.000  C
  H23      1.0000 0.44543  0.04337  0.90847  Biso   1.000  H
  C25      1.0000 0.51553  0.94787  0.96827  Biso   1.000  C
  C26      1.0000 0.46253  0.95087  0.81547  Biso   1.000  C
  H24      1.0000 0.50533  0.95957  0.78337  Biso   1.000  H
  H25      1.0000 0.44443  0.97917  0.78727  Biso   1.000  H
  C27      1.0000 0.41143  0.82877  0.74977  Biso   1.000  C
  H26      1.0000 0.44893  0.84087  0.70977  Biso   1.000  H
  C28      1.0000 0.31393  0.76987  0.82287  Biso   1.000  C
  H27      1.0000 0.27023  0.73257  0.84277  Biso   1.000  H
  C29      1.0000 0.34683  0.83747  0.85507  Biso   1.000  C
  H28      1.0000 0.33043  0.85497  0.90067  Biso   1.000  H
  C30      1.0000 0.53663  0.89437  0.93687  Biso   1.000  C
  H29      1.0000 0.51883  0.87907  0.87647  Biso   1.000  H
  H30      1.0000 0.58843  0.91727  0.93527  Biso   1.000  H
  C31      1.0000 0.44103  0.79107  0.02577  Biso   1.000  C
  H31      1.0000 0.40363  0.79917  0.01197  Biso   1.000  H
  C32      1.0000 0.50033  0.74527  0.07767  Biso   1.000  C
  H32      1.0000 0.51213  0.71477  0.10777  Biso   1.000  H
  C33      1.0000 0.54603  0.80157  0.02907  Biso   1.000  C
  H33      1.0000 0.59433  0.81737  0.01977  Biso   1.000  H
  N13      1.0000 0.79190  0.86700  0.14140  Biso   1.000  N
  N14      1.0000 0.90210  0.92360  0.08970  Biso   1.000  N
  N15      1.0000 0.83520  0.01010  0.32880  Biso   1.000  N
  N16      1.0000 0.92810  0.02920  0.41070  Biso   1.000  N
  C34      1.0000 0.69170  0.84050  0.24610  Biso   1.000  C
  C35      1.0000 0.64080  0.77510  0.27930  Biso   1.000  C
  H34      1.0000 0.62330  0.73540  0.24180  Biso   1.000  H
  C36      1.0000 0.71880  0.90100  0.30160  Biso   1.000  C
  C37      1.0000 0.71580  0.84500  0.14880  Biso   1.000  C
  H35      1.0000 0.70710  0.87910  0.11670  Biso   1.000  H
  H36      1.0000 0.68750  0.79860  0.12060  Biso   1.000  H
  C38      1.0000 0.83790  0.91600  0.08310  Biso   1.000  C
  H37      1.0000 0.82580  0.94140  0.04310  Biso   1.000  H
  C39      1.0000 0.89680  0.87740  0.15620  Biso   1.000  C
  H38      1.0000 0.93410  0.87100  0.17610  Biso   1.000  H
  C40      1.0000 0.82920  0.84270  0.18840  Biso   1.000  C
  H39      1.0000 0.81170  0.80880  0.23400  Biso   1.000  H
  C41      1.0000 0.77230  0.97560  0.27020  Biso   1.000  C
  H40      1.0000 0.78760  0.97310  0.20980  Biso   1.000  H
  H41      1.0000 0.74940  0.00450  0.26860  Biso   1.000  H
  C42      1.0000 0.87560  0.98330  0.35910  Biso   1.000  C
  H42      1.0000 0.86750  0.93780  0.34530  Biso   1.000  H
  C43      1.0000 0.92140  0.08840  0.41100  Biso   1.000  C
  H43      1.0000 0.95190  0.13070  0.44110  Biso   1.000  H
  C44      1.0000 0.86510  0.07780  0.36240  Biso   1.000  C
  H44      1.0000 0.84930  0.11030  0.35310  Biso   1.000  H
  N17      1.0000 0.45857  0.20033  0.47473  Biso   1.000  N
  N18      1.0000 0.56877  0.25693  0.42303  Biso   1.000  N
  N19      1.0000 0.50187  0.34343  0.66213  Biso   1.000  N
  N20      1.0000 0.59477  0.36253  0.74403  Biso   1.000  N
  C45      1.0000 0.35837  0.17383  0.57943  Biso   1.000  C
  C46      1.0000 0.30747  0.10843  0.61263  Biso   1.000  C
  H45      1.0000 0.28997  0.06873  0.57513  Biso   1.000  H
  C47      1.0000 0.38547  0.23433  0.63493  Biso   1.000  C
  C48      1.0000 0.38247  0.17833  0.48213  Biso   1.000  C
  H46      1.0000 0.37377  0.21243  0.45003  Biso   1.000  H
  H47      1.0000 0.35417  0.13193  0.45393  Biso   1.000  H
  C49      1.0000 0.50457  0.24933  0.41643  Biso   1.000  C
  H48      1.0000 0.49247  0.27473  0.37643  Biso   1.000  H
  C50      1.0000 0.56347  0.21073  0.48953  Biso   1.000  C
  H49      1.0000 0.60077  0.20433  0.50943  Biso   1.000  H
  C51      1.0000 0.49587  0.17603  0.52173  Biso   1.000  C
  H50      1.0000 0.47837  0.14213  0.56733  Biso   1.000  H
  C52      1.0000 0.43897  0.30893  0.60353  Biso   1.000  C
  H51      1.0000 0.45427  0.30643  0.54313  Biso   1.000  H
  H52      1.0000 0.41607  0.33783  0.60193  Biso   1.000  H
  C53      1.0000 0.54227  0.31663  0.69243  Biso   1.000  C
  H53      1.0000 0.53417  0.27113  0.67863  Biso   1.000  H
  C54      1.0000 0.58807  0.42173  0.74433  Biso   1.000  C
  H54      1.0000 0.61857  0.46403  0.77443  Biso   1.000  H
  C55      1.0000 0.53177  0.41113  0.69573  Biso   1.000  C
  H55      1.0000 0.51597  0.44363  0.68643  Biso   1.000  H
  N21      1.0000 0.12523  0.53367  0.80807  Biso   1.000  N
  N22      1.0000 0.23543  0.59027  0.75637  Biso   1.000  N
  N23      1.0000 0.16853  0.67677  0.99547  Biso   1.000  N
  N24      1.0000 0.26143  0.69587  0.07737  Biso   1.000  N
  C56      1.0000 0.02503  0.50717  0.91277  Biso   1.000  C
  C57      1.0000 0.97413  0.44177  0.94597  Biso   1.000  C
  H56      1.0000 0.95663  0.40207  0.90847  Biso   1.000  H
  C58      1.0000 0.05213  0.56767  0.96827  Biso   1.000  C
  C59      1.0000 0.04913  0.51167  0.81547  Biso   1.000  C
  H57      1.0000 0.04043  0.54577  0.78337  Biso   1.000  H
  H58      1.0000 0.02083  0.46527  0.78727  Biso   1.000  H
  C60      1.0000 0.17123  0.58267  0.74977  Biso   1.000  C
  H59      1.0000 0.15913  0.60807  0.70977  Biso   1.000  H
  C61      1.0000 0.23013  0.54407  0.82287  Biso   1.000  C
  H60      1.0000 0.26743  0.53767  0.84277  Biso   1.000  H
  C62      1.0000 0.16253  0.50937  0.85507  Biso   1.000  C
  H61      1.0000 0.14503  0.47547  0.90067  Biso   1.000  H
  C63      1.0000 0.10563  0.64227  0.93687  Biso   1.000  C
  H62      1.0000 0.12093  0.63977  0.87647  Biso   1.000  H
  H63      1.0000 0.08273  0.67117  0.93527  Biso   1.000  H
  C64      1.0000 0.20893  0.64997  0.02577  Biso   1.000  C
  H64      1.0000 0.20083  0.60447  0.01197  Biso   1.000  H
  C65      1.0000 0.25473  0.75507  0.07767  Biso   1.000  C
  H65      1.0000 0.28523  0.79737  0.10777  Biso   1.000  H
  C66      1.0000 0.19843  0.74447  0.02907  Biso   1.000  C
  H66      1.0000 0.18263  0.77697  0.01977  Biso   1.000  H
  N25      1.0000 0.13300  0.92490  0.14140  Biso   1.000  N
  N26      1.0000 0.07640  0.97850  0.08970  Biso   1.000  N
  N27      1.0000 0.98990  0.82510  0.32880  Biso   1.000  N
  N28      1.0000 0.97080  0.89890  0.41070  Biso   1.000  N
  C67      1.0000 0.15950  0.85120  0.24610  Biso   1.000  C
  C68      1.0000 0.22490  0.86570  0.27930  Biso   1.000  C
  H67      1.0000 0.26460  0.88790  0.24180  Biso   1.000  H
  C69      1.0000 0.09900  0.81780  0.30160  Biso   1.000  C
  C70      1.0000 0.15500  0.87080  0.14880  Biso   1.000  C
  H68      1.0000 0.12090  0.82800  0.11670  Biso   1.000  H
  H69      1.0000 0.20140  0.88890  0.12060  Biso   1.000  H
  C71      1.0000 0.08400  0.92190  0.08310  Biso   1.000  C
  H70      1.0000 0.05860  0.88440  0.04310  Biso   1.000  H
  C72      1.0000 0.12260  0.01940  0.15620  Biso   1.000  C
  H71      1.0000 0.12900  0.06310  0.17610  Biso   1.000  H
  C73      1.0000 0.15730  0.98650  0.18840  Biso   1.000  C
  H72      1.0000 0.19120  0.00290  0.23400  Biso   1.000  H
  C74      1.0000 0.02440  0.79670  0.27020  Biso   1.000  C
  H73      1.0000 0.02690  0.81450  0.20980  Biso   1.000  H
  H74      1.0000 0.99550  0.74490  0.26860  Biso   1.000  H
  C75      1.0000 0.01670  0.89230  0.35910  Biso   1.000  C
  H75      1.0000 0.06220  0.92970  0.34530  Biso   1.000  H
  C76      1.0000 0.91160  0.83300  0.41100  Biso   1.000  C
  H76      1.0000 0.86930  0.82120  0.44110  Biso   1.000  H
  C77      1.0000 0.92220  0.78730  0.36240  Biso   1.000  C
  H77      1.0000 0.88970  0.73900  0.35310  Biso   1.000  H
  N29      1.0000 0.79967  0.25823  0.47473  Biso   1.000  N
  N30      1.0000 0.74307  0.31183  0.42303  Biso   1.000  N
  N31      1.0000 0.65657  0.15843  0.66213  Biso   1.000  N
  N32      1.0000 0.63747  0.23223  0.74403  Biso   1.000  N
  C78      1.0000 0.82617  0.18453  0.57943  Biso   1.000  C
  C79      1.0000 0.89157  0.19903  0.61263  Biso   1.000  C
  H78      1.0000 0.93127  0.22123  0.57513  Biso   1.000  H
  C80      1.0000 0.76567  0.15113  0.63493  Biso   1.000  C
  C81      1.0000 0.82167  0.20413  0.48213  Biso   1.000  C
  H79      1.0000 0.78757  0.16133  0.45003  Biso   1.000  H
  H80      1.0000 0.86807  0.22223  0.45393  Biso   1.000  H
  C82      1.0000 0.75067  0.25523  0.41643  Biso   1.000  C
  H81      1.0000 0.72527  0.21773  0.37643  Biso   1.000  H
  C83      1.0000 0.78927  0.35273  0.48953  Biso   1.000  C
  H82      1.0000 0.79567  0.39643  0.50943  Biso   1.000  H
  C84      1.0000 0.82397  0.31983  0.52173  Biso   1.000  C
  H83      1.0000 0.85787  0.33623  0.56733  Biso   1.000  H
  C85      1.0000 0.69107  0.13003  0.60353  Biso   1.000  C
  H84      1.0000 0.69357  0.14783  0.54313  Biso   1.000  H
  H85      1.0000 0.66217  0.07823  0.60193  Biso   1.000  H
  C86      1.0000 0.68337  0.22563  0.69243  Biso   1.000  C
  H86      1.0000 0.72887  0.26303  0.67863  Biso   1.000  H
  C87      1.0000 0.57827  0.16633  0.74433  Biso   1.000  C
  H87      1.0000 0.53597  0.15453  0.77443  Biso   1.000  H
  C88      1.0000 0.58887  0.12063  0.69573  Biso   1.000  C
  H88      1.0000 0.55637  0.07233  0.68643  Biso   1.000  H
  N33      1.0000 0.46633  0.59157  0.80807  Biso   1.000  N
  N34      1.0000 0.40973  0.64517  0.75637  Biso   1.000  N
  N35      1.0000 0.32323  0.49177  0.99547  Biso   1.000  N
  N36      1.0000 0.30413  0.56557  0.07737  Biso   1.000  N
  C89      1.0000 0.49283  0.51787  0.91277  Biso   1.000  C
  C90      1.0000 0.55823  0.53237  0.94597  Biso   1.000  C
  H89      1.0000 0.59793  0.55457  0.90847  Biso   1.000  H
  C91      1.0000 0.43233  0.48447  0.96827  Biso   1.000  C
  C92      1.0000 0.48833  0.53747  0.81547  Biso   1.000  C
  H90      1.0000 0.45423  0.49467  0.78337  Biso   1.000  H
  H91      1.0000 0.53473  0.55557  0.78727  Biso   1.000  H
  C93      1.0000 0.41733  0.58857  0.74977  Biso   1.000  C
  H92      1.0000 0.39193  0.55107  0.70977  Biso   1.000  H
  C94      1.0000 0.45593  0.68607  0.82287  Biso   1.000  C
  H93      1.0000 0.46233  0.72977  0.84277  Biso   1.000  H
  C95      1.0000 0.49063  0.65317  0.85507  Biso   1.000  C
  H94      1.0000 0.52453  0.66957  0.90067  Biso   1.000  H
  C96      1.0000 0.35773  0.46337  0.93687  Biso   1.000  C
  H95      1.0000 0.36023  0.48117  0.87647  Biso   1.000  H
  H96      1.0000 0.32883  0.41157  0.93527  Biso   1.000  H
  C97      1.0000 0.35003  0.55897  0.02577  Biso   1.000  C
  H97      1.0000 0.39553  0.59637  0.01197  Biso   1.000  H
  C98      1.0000 0.24493  0.49967  0.07767  Biso   1.000  C
  H98      1.0000 0.20263  0.48787  0.10777  Biso   1.000  H
  C99      1.0000 0.25553  0.45397  0.02907  Biso   1.000  C
  H99      1.0000 0.22303  0.40567  0.01977  Biso   1.000  H
  N37      1.0000 0.92490  0.79190  0.85860  Biso   1.000  N
  N38      1.0000 0.97850  0.90210  0.91030  Biso   1.000  N
  N39      1.0000 0.82510  0.83520  0.67120  Biso   1.000  N
  N40      1.0000 0.89890  0.92810  0.58930  Biso   1.000  N
  C100     1.0000 0.85120  0.69170  0.75390  Biso   1.000  C
  C101     1.0000 0.86570  0.64080  0.72070  Biso   1.000  C
  H100     1.0000 0.88790  0.62330  0.75820  Biso   1.000  H
  C102     1.0000 0.81780  0.71880  0.69840  Biso   1.000  C
  C103     1.0000 0.87080  0.71580  0.85120  Biso   1.000  C
  H101     1.0000 0.82800  0.70710  0.88330  Biso   1.000  H
  H102     1.0000 0.88890  0.68750  0.87940  Biso   1.000  H
  C104     1.0000 0.92190  0.83790  0.91690  Biso   1.000  C
  H103     1.0000 0.88440  0.82580  0.95690  Biso   1.000  H
  C105     1.0000 0.01940  0.89680  0.84380  Biso   1.000  C
  H104     1.0000 0.06310  0.93410  0.82390  Biso   1.000  H
  C106     1.0000 0.98650  0.82920  0.81160  Biso   1.000  C
  H105     1.0000 0.00290  0.81170  0.76600  Biso   1.000  H
  C107     1.0000 0.79670  0.77230  0.72980  Biso   1.000  C
  H106     1.0000 0.81450  0.78760  0.79020  Biso   1.000  H
  H107     1.0000 0.74490  0.74940  0.73140  Biso   1.000  H
  C108     1.0000 0.89230  0.87560  0.64090  Biso   1.000  C
  H108     1.0000 0.92970  0.86750  0.65470  Biso   1.000  H
  C109     1.0000 0.83300  0.92140  0.58900  Biso   1.000  C
  H109     1.0000 0.82120  0.95190  0.55890  Biso   1.000  H
  C110     1.0000 0.78730  0.86510  0.63760  Biso   1.000  C
  H110     1.0000 0.73900  0.84930  0.64690  Biso   1.000  H
  N41      1.0000 0.59157  0.12523  0.19193  Biso   1.000  N
  N42      1.0000 0.64517  0.23543  0.24363  Biso   1.000  N
  N43      1.0000 0.49177  0.16853  0.00453  Biso   1.000  N
  N44      1.0000 0.56557  0.26143  0.92263  Biso   1.000  N
  C111     1.0000 0.51787  0.02503  0.08723  Biso   1.000  C
  C112     1.0000 0.53237  0.97413  0.05403  Biso   1.000  C
  H111     1.0000 0.55457  0.95663  0.09153  Biso   1.000  H
  C113     1.0000 0.48447  0.05213  0.03173  Biso   1.000  C
  C114     1.0000 0.53747  0.04913  0.18453  Biso   1.000  C
  H112     1.0000 0.49467  0.04043  0.21663  Biso   1.000  H
  H113     1.0000 0.55557  0.02083  0.21273  Biso   1.000  H
  C115     1.0000 0.58857  0.17123  0.25023  Biso   1.000  C
  H114     1.0000 0.55107  0.15913  0.29023  Biso   1.000  H
  C116     1.0000 0.68607  0.23013  0.17713  Biso   1.000  C
  H115     1.0000 0.72977  0.26743  0.15723  Biso   1.000  H
  C117     1.0000 0.65317  0.16253  0.14493  Biso   1.000  C
  H116     1.0000 0.66957  0.14503  0.09933  Biso   1.000  H
  C118     1.0000 0.46337  0.10563  0.06313  Biso   1.000  C
  H117     1.0000 0.48117  0.12093  0.12353  Biso   1.000  H
  H118     1.0000 0.41157  0.08273  0.06473  Biso   1.000  H
  C119     1.0000 0.55897  0.20893  0.97423  Biso   1.000  C
  H119     1.0000 0.59637  0.20083  0.98803  Biso   1.000  H
  C120     1.0000 0.49967  0.25473  0.92233  Biso   1.000  C
  H120     1.0000 0.48787  0.28523  0.89223  Biso   1.000  H
  C121     1.0000 0.45397  0.19843  0.97093  Biso   1.000  C
  H121     1.0000 0.40567  0.18263  0.98023  Biso   1.000  H
  N45      1.0000 0.25823  0.45857  0.52527  Biso   1.000  N
  N46      1.0000 0.31183  0.56877  0.57697  Biso   1.000  N
  N47      1.0000 0.15843  0.50187  0.33787  Biso   1.000  N
  N48      1.0000 0.23223  0.59477  0.25597  Biso   1.000  N
  C122     1.0000 0.18453  0.35837  0.42057  Biso   1.000  C
  C123     1.0000 0.19903  0.30747  0.38737  Biso   1.000  C
  H122     1.0000 0.22123  0.28997  0.42487  Biso   1.000  H
  C124     1.0000 0.15113  0.38547  0.36507  Biso   1.000  C
  C125     1.0000 0.20413  0.38247  0.51787  Biso   1.000  C
  H123     1.0000 0.16133  0.37377  0.54997  Biso   1.000  H
  H124     1.0000 0.22223  0.35417  0.54607  Biso   1.000  H
  C126     1.0000 0.25523  0.50457  0.58357  Biso   1.000  C
  H125     1.0000 0.21773  0.49247  0.62357  Biso   1.000  H
  C127     1.0000 0.35273  0.56347  0.51047  Biso   1.000  C
  H126     1.0000 0.39643  0.60077  0.49057  Biso   1.000  H
  C128     1.0000 0.31983  0.49587  0.47827  Biso   1.000  C
  H127     1.0000 0.33623  0.47837  0.43267  Biso   1.000  H
  C129     1.0000 0.13003  0.43897  0.39647  Biso   1.000  C
  H128     1.0000 0.14783  0.45427  0.45687  Biso   1.000  H
  H129     1.0000 0.07823  0.41607  0.39807  Biso   1.000  H
  C130     1.0000 0.22563  0.54227  0.30757  Biso   1.000  C
  H130     1.0000 0.26303  0.53417  0.32137  Biso   1.000  H
  C131     1.0000 0.16633  0.58807  0.25567  Biso   1.000  C
  H131     1.0000 0.15453  0.61857  0.22557  Biso   1.000  H
  C132     1.0000 0.12063  0.53177  0.30427  Biso   1.000  C
  H132     1.0000 0.07233  0.51597  0.31357  Biso   1.000  H
  N49      1.0000 0.20810  0.13300  0.85860  Biso   1.000  N
  N50      1.0000 0.09790  0.07640  0.91030  Biso   1.000  N
  N51      1.0000 0.16480  0.98990  0.67120  Biso   1.000  N
  N52      1.0000 0.07190  0.97080  0.58930  Biso   1.000  N
  C133     1.0000 0.30830  0.15950  0.75390  Biso   1.000  C
  C134     1.0000 0.35920  0.22490  0.72070  Biso   1.000  C
  H133     1.0000 0.37670  0.26460  0.75820  Biso   1.000  H
  C135     1.0000 0.28120  0.09900  0.69840  Biso   1.000  C
  C136     1.0000 0.28420  0.15500  0.85120  Biso   1.000  C
  H134     1.0000 0.29290  0.12090  0.88330  Biso   1.000  H
  H135     1.0000 0.31250  0.20140  0.87940  Biso   1.000  H
  C137     1.0000 0.16210  0.08400  0.91690  Biso   1.000  C
  H136     1.0000 0.17420  0.05860  0.95690  Biso   1.000  H
  C138     1.0000 0.10320  0.12260  0.84380  Biso   1.000  C
  H137     1.0000 0.06590  0.12900  0.82390  Biso   1.000  H
  C139     1.0000 0.17080  0.15730  0.81160  Biso   1.000  C
  H138     1.0000 0.18830  0.19120  0.76600  Biso   1.000  H
  C140     1.0000 0.22770  0.02440  0.72980  Biso   1.000  C
  H139     1.0000 0.21240  0.02690  0.79020  Biso   1.000  H
  H140     1.0000 0.25060  0.99550  0.73140  Biso   1.000  H
  C141     1.0000 0.12440  0.01670  0.64090  Biso   1.000  C
  H141     1.0000 0.13250  0.06220  0.65470  Biso   1.000  H
  C142     1.0000 0.07860  0.91160  0.58900  Biso   1.000  C
  H142     1.0000 0.04810  0.86930  0.55890  Biso   1.000  H
  C143     1.0000 0.13490  0.92220  0.63760  Biso   1.000  C
  H143     1.0000 0.15070  0.88970  0.64690  Biso   1.000  H
  N53      1.0000 0.87477  0.46633  0.19193  Biso   1.000  N
  N54      1.0000 0.76457  0.40973  0.24363  Biso   1.000  N
  N55      1.0000 0.83147  0.32323  0.00453  Biso   1.000  N
  N56      1.0000 0.73857  0.30413  0.92263  Biso   1.000  N
  C144     1.0000 0.97497  0.49283  0.08723  Biso   1.000  C
  C145     1.0000 0.02587  0.55823  0.05403  Biso   1.000  C
  H144     1.0000 0.04337  0.59793  0.09153  Biso   1.000  H
  C146     1.0000 0.94787  0.43233  0.03173  Biso   1.000  C
  C147     1.0000 0.95087  0.48833  0.18453  Biso   1.000  C
  H145     1.0000 0.95957  0.45423  0.21663  Biso   1.000  H
  H146     1.0000 0.97917  0.53473  0.21273  Biso   1.000  H
  C148     1.0000 0.82877  0.41733  0.25023  Biso   1.000  C
  H147     1.0000 0.84087  0.39193  0.29023  Biso   1.000  H
  C149     1.0000 0.76987  0.45593  0.17713  Biso   1.000  C
  H148     1.0000 0.73257  0.46233  0.15723  Biso   1.000  H
  C150     1.0000 0.83747  0.49063  0.14493  Biso   1.000  C
  H149     1.0000 0.85497  0.52453  0.09933  Biso   1.000  H
  C151     1.0000 0.89437  0.35773  0.06313  Biso   1.000  C
  H150     1.0000 0.87907  0.36023  0.12353  Biso   1.000  H
  H151     1.0000 0.91727  0.32883  0.06473  Biso   1.000  H
  C152     1.0000 0.79107  0.35003  0.97423  Biso   1.000  C
  H152     1.0000 0.79917  0.39553  0.98803  Biso   1.000  H
  C153     1.0000 0.74527  0.24493  0.92233  Biso   1.000  C
  H153     1.0000 0.71477  0.20263  0.89223  Biso   1.000  H
  C154     1.0000 0.80157  0.25553  0.97093  Biso   1.000  C
  H154     1.0000 0.81737  0.22303  0.98023  Biso   1.000  H
  N57      1.0000 0.54143  0.79967  0.52527  Biso   1.000  N
  N58      1.0000 0.43123  0.74307  0.57697  Biso   1.000  N
  N59      1.0000 0.49813  0.65657  0.33787  Biso   1.000  N
  N60      1.0000 0.40523  0.63747  0.25597  Biso   1.000  N
  C155     1.0000 0.64163  0.82617  0.42057  Biso   1.000  C
  C156     1.0000 0.69253  0.89157  0.38737  Biso   1.000  C
  H155     1.0000 0.71003  0.93127  0.42487  Biso   1.000  H
  C157     1.0000 0.61453  0.76567  0.36507  Biso   1.000  C
  C158     1.0000 0.61753  0.82167  0.51787  Biso   1.000  C
  H156     1.0000 0.62623  0.78757  0.54997  Biso   1.000  H
  H157     1.0000 0.64583  0.86807  0.54607  Biso   1.000  H
  C159     1.0000 0.49543  0.75067  0.58357  Biso   1.000  C
  H158     1.0000 0.50753  0.72527  0.62357  Biso   1.000  H
  C160     1.0000 0.43653  0.78927  0.51047  Biso   1.000  C
  H159     1.0000 0.39923  0.79567  0.49057  Biso   1.000  H
  C161     1.0000 0.50413  0.82397  0.47827  Biso   1.000  C
  H160     1.0000 0.52163  0.85787  0.43267  Biso   1.000  H
  C162     1.0000 0.56103  0.69107  0.39647  Biso   1.000  C
  H161     1.0000 0.54573  0.69357  0.45687  Biso   1.000  H
  H162     1.0000 0.58393  0.66217  0.39807  Biso   1.000  H
  C163     1.0000 0.45773  0.68337  0.30757  Biso   1.000  C
  H163     1.0000 0.46583  0.72887  0.32137  Biso   1.000  H
  C164     1.0000 0.41193  0.57827  0.25567  Biso   1.000  C
  H164     1.0000 0.38143  0.53597  0.22557  Biso   1.000  H
  C165     1.0000 0.46823  0.58887  0.30427  Biso   1.000  C
  H165     1.0000 0.48403  0.55637  0.31357  Biso   1.000  H
  N61      1.0000 0.86700  0.07510  0.85860  Biso   1.000  N
  N62      1.0000 0.92360  0.02150  0.91030  Biso   1.000  N
  N63      1.0000 0.01010  0.17490  0.67120  Biso   1.000  N
  N64      1.0000 0.02920  0.10110  0.58930  Biso   1.000  N
  C166     1.0000 0.84050  0.14880  0.75390  Biso   1.000  C
  C167     1.0000 0.77510  0.13430  0.72070  Biso   1.000  C
  H166     1.0000 0.73540  0.11210  0.75820  Biso   1.000  H
  C168     1.0000 0.90100  0.18220  0.69840  Biso   1.000  C
  C169     1.0000 0.84500  0.12920  0.85120  Biso   1.000  C
  H167     1.0000 0.87910  0.17200  0.88330  Biso   1.000  H
  H168     1.0000 0.79860  0.11110  0.87940  Biso   1.000  H
  C170     1.0000 0.91600  0.07810  0.91690  Biso   1.000  C
  H169     1.0000 0.94140  0.11560  0.95690  Biso   1.000  H
  C171     1.0000 0.87740  0.98060  0.84380  Biso   1.000  C
  H170     1.0000 0.87100  0.93690  0.82390  Biso   1.000  H
  C172     1.0000 0.84270  0.01350  0.81160  Biso   1.000  C
  H171     1.0000 0.80880  0.99710  0.76600  Biso   1.000  H
  C173     1.0000 0.97560  0.20330  0.72980  Biso   1.000  C
  H172     1.0000 0.97310  0.18550  0.79020  Biso   1.000  H
  H173     1.0000 0.00450  0.25510  0.73140  Biso   1.000  H
  C174     1.0000 0.98330  0.10770  0.64090  Biso   1.000  C
  H174     1.0000 0.93780  0.07030  0.65470  Biso   1.000  H
  C175     1.0000 0.08840  0.16700  0.58900  Biso   1.000  C
  H175     1.0000 0.13070  0.17880  0.55890  Biso   1.000  H
  C176     1.0000 0.07780  0.21270  0.63760  Biso   1.000  C
  H176     1.0000 0.11030  0.26100  0.64690  Biso   1.000  H
  N65      1.0000 0.53367  0.40843  0.19193  Biso   1.000  N
  N66      1.0000 0.59027  0.35483  0.24363  Biso   1.000  N
  N67      1.0000 0.67677  0.50823  0.00453  Biso   1.000  N
  N68      1.0000 0.69587  0.43443  0.92263  Biso   1.000  N
  C177     1.0000 0.50717  0.48213  0.08723  Biso   1.000  C
  C178     1.0000 0.44177  0.46763  0.05403  Biso   1.000  C
  H177     1.0000 0.40207  0.44543  0.09153  Biso   1.000  H
  C179     1.0000 0.56767  0.51553  0.03173  Biso   1.000  C
  C180     1.0000 0.51167  0.46253  0.18453  Biso   1.000  C
  H178     1.0000 0.54577  0.50533  0.21663  Biso   1.000  H
  H179     1.0000 0.46527  0.44443  0.21273  Biso   1.000  H
  C181     1.0000 0.58267  0.41143  0.25023  Biso   1.000  C
  H180     1.0000 0.60807  0.44893  0.29023  Biso   1.000  H
  C182     1.0000 0.54407  0.31393  0.17713  Biso   1.000  C
  H181     1.0000 0.53767  0.27023  0.15723  Biso   1.000  H
  C183     1.0000 0.50937  0.34683  0.14493  Biso   1.000  C
  H182     1.0000 0.47547  0.33043  0.09933  Biso   1.000  H
  C184     1.0000 0.64227  0.53663  0.06313  Biso   1.000  C
  H183     1.0000 0.63977  0.51883  0.12353  Biso   1.000  H
  H184     1.0000 0.67117  0.58843  0.06473  Biso   1.000  H
  C185     1.0000 0.64997  0.44103  0.97423  Biso   1.000  C
  H185     1.0000 0.60447  0.40363  0.98803  Biso   1.000  H
  C186     1.0000 0.75507  0.50033  0.92233  Biso   1.000  C
  H186     1.0000 0.79737  0.51213  0.89223  Biso   1.000  H
  C187     1.0000 0.74447  0.54603  0.97093  Biso   1.000  C
  H187     1.0000 0.77697  0.59433  0.98023  Biso   1.000  H
  N69      1.0000 0.20033  0.74177  0.52527  Biso   1.000  N
  N70      1.0000 0.25693  0.68817  0.57697  Biso   1.000  N
  N71      1.0000 0.34343  0.84157  0.33787  Biso   1.000  N
  N72      1.0000 0.36253  0.76777  0.25597  Biso   1.000  N
  C188     1.0000 0.17383  0.81547  0.42057  Biso   1.000  C
  C189     1.0000 0.10843  0.80097  0.38737  Biso   1.000  C
  H188     1.0000 0.06873  0.77877  0.42487  Biso   1.000  H
  C190     1.0000 0.23433  0.84887  0.36507  Biso   1.000  C
  C191     1.0000 0.17833  0.79587  0.51787  Biso   1.000  C
  H189     1.0000 0.21243  0.83867  0.54997  Biso   1.000  H
  H190     1.0000 0.13193  0.77777  0.54607  Biso   1.000  H
  C192     1.0000 0.24933  0.74477  0.58357  Biso   1.000  C
  H191     1.0000 0.27473  0.78227  0.62357  Biso   1.000  H
  C193     1.0000 0.21073  0.64727  0.51047  Biso   1.000  C
  H192     1.0000 0.20433  0.60357  0.49057  Biso   1.000  H
  C194     1.0000 0.17603  0.68017  0.47827  Biso   1.000  C
  H193     1.0000 0.14213  0.66377  0.43267  Biso   1.000  H
  C195     1.0000 0.30893  0.86997  0.39647  Biso   1.000  C
  H194     1.0000 0.30643  0.85217  0.45687  Biso   1.000  H
  H195     1.0000 0.33783  0.92177  0.39807  Biso   1.000  H
  C196     1.0000 0.31663  0.77437  0.30757  Biso   1.000  C
  H196     1.0000 0.27113  0.73697  0.32137  Biso   1.000  H
  C197     1.0000 0.42173  0.83367  0.25567  Biso   1.000  C
  H197     1.0000 0.46403  0.84547  0.22557  Biso   1.000  H
  C198     1.0000 0.41113  0.87937  0.30427  Biso   1.000  C
  H198     1.0000 0.44363  0.92767  0.31357  Biso   1.000  H
  Cd1      1.0000 0.00000  0.00000  0.50000  Biso   1.000  Cd
  Cd2      1.0000 0.66667  0.33333  0.83333  Biso   1.000  Cd
  Cd3      1.0000 0.33333  0.66667  0.16667  Biso   1.000  Cd
  Cd4      1.0000 0.00000  0.00000  0.00000  Biso   1.000  Cd
  Cd5      1.0000 0.66667  0.33333  0.33333  Biso   1.000  Cd
  Cd6      1.0000 0.33333  0.66667  0.66667  Biso   1.000  Cd
