data_image0
_cell_length_a       21.218
_cell_length_b       21.218
_cell_length_c       15.259
_cell_angle_alpha    90
_cell_angle_beta     90
_cell_angle_gamma    120

_symmetry_space_group_name_H-M    "P 1"
_symmetry_int_tables_number       1

loop_
  _symmetry_equiv_pos_as_xyz
  'x, y, z'

loop_
  _atom_site_label
  _atom_site_occupancy
  _atom_site_fract_x
  _atom_site_fract_y
  _atom_site_fract_z
  _atom_site_thermal_displace_type
  _atom_site_B_iso_or_equiv
  _atom_site_type_symbol
  N1       1.0000 0.07582  0.20983  0.14198  Biso   1.000  N
  N2       1.0000 0.02033  0.09891  0.08844  Biso   1.000  N
  N3       1.0000 0.17681  0.16347  0.32731  Biso   1.000  N
  N4       1.0000 0.10297  0.07179  0.41154  Biso   1.000  N
  C1       1.0000 0.14991  0.30920  0.24603  Biso   1.000  C
  C2       1.0000 0.18282  0.28130  0.29985  Biso   1.000  C
  C3       1.0000 0.13391  0.36065  0.27997  Biso   1.000  C
  H1       1.0000 0.11110  0.37950  0.24330  Biso   1.000  H
  C4       1.0000 0.13088  0.28742  0.15133  Biso   1.000  C
  H2       1.0000 0.11210  0.31740  0.12470  Biso   1.000  H
  H3       1.0000 0.17540  0.29730  0.11920  Biso   1.000  H
  C5       1.0000 0.07749  0.16410  0.08234  Biso   1.000  C
  H4       1.0000 0.11550  0.17740  0.04080  Biso   1.000  H
  C6       1.0000 0.97976  0.10329  0.15580  Biso   1.000  C
  H5       1.0000 0.93480  0.06410  0.17590  Biso   1.000  H
  C7       1.0000 0.01308  0.17151  0.18940  Biso   1.000  C
  H6       1.0000 0.99640  0.18910  0.23610  Biso   1.000  H
  C8       1.0000 0.20445  0.22710  0.26873  Biso   1.000  C
  H7       1.0000 0.18510  0.21060  0.20890  Biso   1.000  H
  H8       1.0000 0.25820  0.25130  0.26580  Biso   1.000  H
  C9       1.0000 0.10896  0.12415  0.36000  Biso   1.000  C
  H9       1.0000 0.07030  0.13310  0.34730  Biso   1.000  H
  C10      1.0000 0.16980  0.07724  0.41060  Biso   1.000  C
  H10      1.0000 0.18220  0.04620  0.44180  Biso   1.000  H
  C11      1.0000 0.21581  0.13326  0.35910  Biso   1.000  C
  H11      1.0000 0.26540  0.14850  0.34730  Biso   1.000  H
  N5       1.0000 0.74249  0.54316  0.47531  Biso   1.000  N
  N6       1.0000 0.68700  0.43224  0.42177  Biso   1.000  N
  N7       1.0000 0.84348  0.49680  0.66064  Biso   1.000  N
  N8       1.0000 0.76964  0.40512  0.74487  Biso   1.000  N
  C12      1.0000 0.81658  0.64253  0.57936  Biso   1.000  C
  C13      1.0000 0.84949  0.61463  0.63318  Biso   1.000  C
  C14      1.0000 0.80058  0.69398  0.61330  Biso   1.000  C
  H12      1.0000 0.77777  0.71283  0.57663  Biso   1.000  H
  C15      1.0000 0.79755  0.62075  0.48466  Biso   1.000  C
  H13      1.0000 0.77877  0.65073  0.45803  Biso   1.000  H
  H14      1.0000 0.84207  0.63063  0.45253  Biso   1.000  H
  C16      1.0000 0.74416  0.49743  0.41567  Biso   1.000  C
  H15      1.0000 0.78217  0.51073  0.37413  Biso   1.000  H
  C17      1.0000 0.64643  0.43662  0.48913  Biso   1.000  C
  H16      1.0000 0.60147  0.39743  0.50923  Biso   1.000  H
  C18      1.0000 0.67975  0.50484  0.52273  Biso   1.000  C
  H17      1.0000 0.66307  0.52243  0.56943  Biso   1.000  H
  C19      1.0000 0.87112  0.56043  0.60206  Biso   1.000  C
  H18      1.0000 0.85177  0.54393  0.54223  Biso   1.000  H
  H19      1.0000 0.92487  0.58463  0.59913  Biso   1.000  H
  C20      1.0000 0.77563  0.45748  0.69333  Biso   1.000  C
  H20      1.0000 0.73697  0.46643  0.68063  Biso   1.000  H
  C21      1.0000 0.83647  0.41057  0.74393  Biso   1.000  C
  H21      1.0000 0.84887  0.37953  0.77513  Biso   1.000  H
  C22      1.0000 0.88248  0.46659  0.69243  Biso   1.000  C
  H22      1.0000 0.93207  0.48183  0.68063  Biso   1.000  H
  N9       1.0000 0.40915  0.87650  0.80865  Biso   1.000  N
  N10      1.0000 0.35366  0.76558  0.75511  Biso   1.000  N
  N11      1.0000 0.51014  0.83014  0.99398  Biso   1.000  N
  N12      1.0000 0.43630  0.73846  0.07821  Biso   1.000  N
  C23      1.0000 0.48324  0.97587  0.91270  Biso   1.000  C
  C24      1.0000 0.51615  0.94797  0.96652  Biso   1.000  C
  C25      1.0000 0.46724  0.02732  0.94664  Biso   1.000  C
  H23      1.0000 0.44443  0.04617  0.90997  Biso   1.000  H
  C26      1.0000 0.46421  0.95409  0.81800  Biso   1.000  C
  H24      1.0000 0.44543  0.98407  0.79137  Biso   1.000  H
  H25      1.0000 0.50873  0.96397  0.78587  Biso   1.000  H
  C27      1.0000 0.41082  0.83077  0.74901  Biso   1.000  C
  H26      1.0000 0.44883  0.84407  0.70747  Biso   1.000  H
  C28      1.0000 0.31309  0.76996  0.82247  Biso   1.000  C
  H27      1.0000 0.26813  0.73077  0.84257  Biso   1.000  H
  C29      1.0000 0.34641  0.83818  0.85607  Biso   1.000  C
  H28      1.0000 0.32973  0.85577  0.90277  Biso   1.000  H
  C30      1.0000 0.53778  0.89377  0.93540  Biso   1.000  C
  H29      1.0000 0.51843  0.87727  0.87557  Biso   1.000  H
  H30      1.0000 0.59153  0.91797  0.93247  Biso   1.000  H
  C31      1.0000 0.44229  0.79082  0.02667  Biso   1.000  C
  H31      1.0000 0.40363  0.79977  0.01397  Biso   1.000  H
  C32      1.0000 0.50313  0.74391  0.07727  Biso   1.000  C
  H32      1.0000 0.51553  0.71287  0.10847  Biso   1.000  H
  C33      1.0000 0.54914  0.79993  0.02577  Biso   1.000  C
  H33      1.0000 0.59873  0.81517  0.01397  Biso   1.000  H
  N13      1.0000 0.79017  0.86599  0.14198  Biso   1.000  N
  N14      1.0000 0.90109  0.92142  0.08844  Biso   1.000  N
  N15      1.0000 0.83653  0.01334  0.32731  Biso   1.000  N
  N16      1.0000 0.92821  0.03118  0.41154  Biso   1.000  N
  C34      1.0000 0.69080  0.84071  0.24603  Biso   1.000  C
  C35      1.0000 0.71870  0.90152  0.29985  Biso   1.000  C
  C36      1.0000 0.63935  0.77326  0.27997  Biso   1.000  C
  H34      1.0000 0.62050  0.73160  0.24330  Biso   1.000  H
  C37      1.0000 0.71258  0.84346  0.15133  Biso   1.000  C
  H35      1.0000 0.68260  0.79470  0.12470  Biso   1.000  H
  H36      1.0000 0.70270  0.87810  0.11920  Biso   1.000  H
  C38      1.0000 0.83590  0.91339  0.08234  Biso   1.000  C
  H37      1.0000 0.82260  0.93810  0.04080  Biso   1.000  H
  C39      1.0000 0.89671  0.87647  0.15580  Biso   1.000  C
  H38      1.0000 0.93590  0.87070  0.17590  Biso   1.000  H
  C40      1.0000 0.82849  0.84157  0.18940  Biso   1.000  C
  H39      1.0000 0.81090  0.80730  0.23610  Biso   1.000  H
  C41      1.0000 0.77290  0.97735  0.26873  Biso   1.000  C
  H40      1.0000 0.78940  0.97450  0.20890  Biso   1.000  H
  H41      1.0000 0.74870  0.00690  0.26580  Biso   1.000  H
  C42      1.0000 0.87585  0.98481  0.36000  Biso   1.000  C
  H42      1.0000 0.86690  0.93720  0.34730  Biso   1.000  H
  C43      1.0000 0.92276  0.09256  0.41060  Biso   1.000  C
  H43      1.0000 0.95380  0.13600  0.44180  Biso   1.000  H
  C44      1.0000 0.86674  0.08255  0.35910  Biso   1.000  C
  H44      1.0000 0.85150  0.11690  0.34730  Biso   1.000  H
  N17      1.0000 0.45684  0.19932  0.47531  Biso   1.000  N
  N18      1.0000 0.56776  0.25475  0.42177  Biso   1.000  N
  N19      1.0000 0.50320  0.34667  0.66064  Biso   1.000  N
  N20      1.0000 0.59488  0.36451  0.74487  Biso   1.000  N
  C45      1.0000 0.35747  0.17404  0.57936  Biso   1.000  C
  C46      1.0000 0.38537  0.23485  0.63318  Biso   1.000  C
  C47      1.0000 0.30602  0.10659  0.61330  Biso   1.000  C
  H45      1.0000 0.28717  0.06493  0.57663  Biso   1.000  H
  C48      1.0000 0.37925  0.17679  0.48466  Biso   1.000  C
  H46      1.0000 0.34927  0.12803  0.45803  Biso   1.000  H
  H47      1.0000 0.36937  0.21143  0.45253  Biso   1.000  H
  C49      1.0000 0.50257  0.24672  0.41567  Biso   1.000  C
  H48      1.0000 0.48927  0.27143  0.37413  Biso   1.000  H
  C50      1.0000 0.56338  0.20980  0.48913  Biso   1.000  C
  H49      1.0000 0.60257  0.20403  0.50923  Biso   1.000  H
  C51      1.0000 0.49516  0.17490  0.52273  Biso   1.000  C
  H50      1.0000 0.47757  0.14063  0.56943  Biso   1.000  H
  C52      1.0000 0.43957  0.31068  0.60206  Biso   1.000  C
  H51      1.0000 0.45607  0.30783  0.54223  Biso   1.000  H
  H52      1.0000 0.41537  0.34023  0.59913  Biso   1.000  H
  C53      1.0000 0.54252  0.31814  0.69333  Biso   1.000  C
  H53      1.0000 0.53357  0.27053  0.68063  Biso   1.000  H
  C54      1.0000 0.58943  0.42589  0.74393  Biso   1.000  C
  H54      1.0000 0.62047  0.46933  0.77513  Biso   1.000  H
  C55      1.0000 0.53341  0.41588  0.69243  Biso   1.000  C
  H55      1.0000 0.51817  0.45023  0.68063  Biso   1.000  H
  N21      1.0000 0.12350  0.53266  0.80865  Biso   1.000  N
  N22      1.0000 0.23442  0.58809  0.75511  Biso   1.000  N
  N23      1.0000 0.16986  0.68001  0.99398  Biso   1.000  N
  N24      1.0000 0.26154  0.69785  0.07821  Biso   1.000  N
  C56      1.0000 0.02413  0.50738  0.91270  Biso   1.000  C
  C57      1.0000 0.05203  0.56819  0.96652  Biso   1.000  C
  C58      1.0000 0.97268  0.43993  0.94664  Biso   1.000  C
  H56      1.0000 0.95383  0.39827  0.90997  Biso   1.000  H
  C59      1.0000 0.04591  0.51013  0.81800  Biso   1.000  C
  H57      1.0000 0.01593  0.46137  0.79137  Biso   1.000  H
  H58      1.0000 0.03603  0.54477  0.78587  Biso   1.000  H
  C60      1.0000 0.16923  0.58006  0.74901  Biso   1.000  C
  H59      1.0000 0.15593  0.60477  0.70747  Biso   1.000  H
  C61      1.0000 0.23004  0.54314  0.82247  Biso   1.000  C
  H60      1.0000 0.26923  0.53737  0.84257  Biso   1.000  H
  C62      1.0000 0.16182  0.50824  0.85607  Biso   1.000  C
  H61      1.0000 0.14423  0.47397  0.90277  Biso   1.000  H
  C63      1.0000 0.10623  0.64402  0.93540  Biso   1.000  C
  H62      1.0000 0.12273  0.64117  0.87557  Biso   1.000  H
  H63      1.0000 0.08203  0.67357  0.93247  Biso   1.000  H
  C64      1.0000 0.20918  0.65148  0.02667  Biso   1.000  C
  H64      1.0000 0.20023  0.60387  0.01397  Biso   1.000  H
  C65      1.0000 0.25609  0.75923  0.07727  Biso   1.000  C
  H65      1.0000 0.28713  0.80267  0.10847  Biso   1.000  H
  C66      1.0000 0.20007  0.74922  0.02577  Biso   1.000  C
  H66      1.0000 0.18483  0.78357  0.01397  Biso   1.000  H
  N25      1.0000 0.13401  0.92418  0.14198  Biso   1.000  N
  N26      1.0000 0.07858  0.97967  0.08844  Biso   1.000  N
  N27      1.0000 0.98666  0.82319  0.32731  Biso   1.000  N
  N28      1.0000 0.96882  0.89703  0.41154  Biso   1.000  N
  C67      1.0000 0.15929  0.85009  0.24603  Biso   1.000  C
  C68      1.0000 0.09848  0.81718  0.29985  Biso   1.000  C
  C69      1.0000 0.22674  0.86609  0.27997  Biso   1.000  C
  H67      1.0000 0.26840  0.88890  0.24330  Biso   1.000  H
  C70      1.0000 0.15654  0.86912  0.15133  Biso   1.000  C
  H68      1.0000 0.20530  0.88790  0.12470  Biso   1.000  H
  H69      1.0000 0.12190  0.82460  0.11920  Biso   1.000  H
  C71      1.0000 0.08661  0.92251  0.08234  Biso   1.000  C
  H70      1.0000 0.06190  0.88450  0.04080  Biso   1.000  H
  C72      1.0000 0.12353  0.02024  0.15580  Biso   1.000  C
  H71      1.0000 0.12930  0.06520  0.17590  Biso   1.000  H
  C73      1.0000 0.15843  0.98692  0.18940  Biso   1.000  C
  H72      1.0000 0.19270  0.00360  0.23610  Biso   1.000  H
  C74      1.0000 0.02265  0.79555  0.26873  Biso   1.000  C
  H73      1.0000 0.02550  0.81490  0.20890  Biso   1.000  H
  H74      1.0000 0.99310  0.74180  0.26580  Biso   1.000  H
  C75      1.0000 0.01519  0.89104  0.36000  Biso   1.000  C
  H75      1.0000 0.06280  0.92970  0.34730  Biso   1.000  H
  C76      1.0000 0.90744  0.83020  0.41060  Biso   1.000  C
  H76      1.0000 0.86400  0.81780  0.44180  Biso   1.000  H
  C77      1.0000 0.91745  0.78419  0.35910  Biso   1.000  C
  H77      1.0000 0.88310  0.73460  0.34730  Biso   1.000  H
  N29      1.0000 0.80068  0.25751  0.47531  Biso   1.000  N
  N30      1.0000 0.74525  0.31300  0.42177  Biso   1.000  N
  N31      1.0000 0.65333  0.15652  0.66064  Biso   1.000  N
  N32      1.0000 0.63549  0.23036  0.74487  Biso   1.000  N
  C78      1.0000 0.82596  0.18342  0.57936  Biso   1.000  C
  C79      1.0000 0.76515  0.15051  0.63318  Biso   1.000  C
  C80      1.0000 0.89341  0.19942  0.61330  Biso   1.000  C
  H78      1.0000 0.93507  0.22223  0.57663  Biso   1.000  H
  C81      1.0000 0.82321  0.20245  0.48466  Biso   1.000  C
  H79      1.0000 0.87197  0.22123  0.45803  Biso   1.000  H
  H80      1.0000 0.78857  0.15793  0.45253  Biso   1.000  H
  C82      1.0000 0.75328  0.25584  0.41567  Biso   1.000  C
  H81      1.0000 0.72857  0.21783  0.37413  Biso   1.000  H
  C83      1.0000 0.79020  0.35357  0.48913  Biso   1.000  C
  H82      1.0000 0.79597  0.39853  0.50923  Biso   1.000  H
  C84      1.0000 0.82510  0.32025  0.52273  Biso   1.000  C
  H83      1.0000 0.85937  0.33693  0.56943  Biso   1.000  H
  C85      1.0000 0.68932  0.12888  0.60206  Biso   1.000  C
  H84      1.0000 0.69217  0.14823  0.54223  Biso   1.000  H
  H85      1.0000 0.65977  0.07513  0.59913  Biso   1.000  H
  C86      1.0000 0.68186  0.22437  0.69333  Biso   1.000  C
  H86      1.0000 0.72947  0.26303  0.68063  Biso   1.000  H
  C87      1.0000 0.57411  0.16353  0.74393  Biso   1.000  C
  H87      1.0000 0.53067  0.15113  0.77513  Biso   1.000  H
  C88      1.0000 0.58412  0.11752  0.69243  Biso   1.000  C
  H88      1.0000 0.54977  0.06793  0.68063  Biso   1.000  H
  N33      1.0000 0.46734  0.59085  0.80865  Biso   1.000  N
  N34      1.0000 0.41191  0.64634  0.75511  Biso   1.000  N
  N35      1.0000 0.31999  0.48986  0.99398  Biso   1.000  N
  N36      1.0000 0.30215  0.56370  0.07821  Biso   1.000  N
  C89      1.0000 0.49262  0.51676  0.91270  Biso   1.000  C
  C90      1.0000 0.43181  0.48385  0.96652  Biso   1.000  C
  C91      1.0000 0.56007  0.53276  0.94664  Biso   1.000  C
  H89      1.0000 0.60173  0.55557  0.90997  Biso   1.000  H
  C92      1.0000 0.48987  0.53579  0.81800  Biso   1.000  C
  H90      1.0000 0.53863  0.55457  0.79137  Biso   1.000  H
  H91      1.0000 0.45523  0.49127  0.78587  Biso   1.000  H
  C93      1.0000 0.41994  0.58918  0.74901  Biso   1.000  C
  H92      1.0000 0.39523  0.55117  0.70747  Biso   1.000  H
  C94      1.0000 0.45686  0.68691  0.82247  Biso   1.000  C
  H93      1.0000 0.46263  0.73187  0.84257  Biso   1.000  H
  C95      1.0000 0.49176  0.65359  0.85607  Biso   1.000  C
  H94      1.0000 0.52603  0.67027  0.90277  Biso   1.000  H
  C96      1.0000 0.35598  0.46222  0.93540  Biso   1.000  C
  H95      1.0000 0.35883  0.48157  0.87557  Biso   1.000  H
  H96      1.0000 0.32643  0.40847  0.93247  Biso   1.000  H
  C97      1.0000 0.34852  0.55771  0.02667  Biso   1.000  C
  H97      1.0000 0.39613  0.59637  0.01397  Biso   1.000  H
  C98      1.0000 0.24077  0.49687  0.07727  Biso   1.000  C
  H98      1.0000 0.19733  0.48447  0.10847  Biso   1.000  H
  C99      1.0000 0.25078  0.45086  0.02577  Biso   1.000  C
  H99      1.0000 0.21643  0.40127  0.01397  Biso   1.000  H
  N37      1.0000 0.92418  0.79017  0.85802  Biso   1.000  N
  N38      1.0000 0.97967  0.90109  0.91156  Biso   1.000  N
  N39      1.0000 0.82319  0.83653  0.67269  Biso   1.000  N
  N40      1.0000 0.89703  0.92821  0.58846  Biso   1.000  N
  C100     1.0000 0.85009  0.69080  0.75397  Biso   1.000  C
  C101     1.0000 0.81718  0.71870  0.70015  Biso   1.000  C
  C102     1.0000 0.86609  0.63935  0.72003  Biso   1.000  C
  H100     1.0000 0.88890  0.62050  0.75670  Biso   1.000  H
  C103     1.0000 0.86912  0.71258  0.84867  Biso   1.000  C
  H101     1.0000 0.88790  0.68260  0.87530  Biso   1.000  H
  H102     1.0000 0.82460  0.70270  0.88080  Biso   1.000  H
  C104     1.0000 0.92251  0.83590  0.91766  Biso   1.000  C
  H103     1.0000 0.88450  0.82260  0.95920  Biso   1.000  H
  C105     1.0000 0.02024  0.89671  0.84420  Biso   1.000  C
  H104     1.0000 0.06520  0.93590  0.82410  Biso   1.000  H
  C106     1.0000 0.98692  0.82849  0.81060  Biso   1.000  C
  H105     1.0000 0.00360  0.81090  0.76390  Biso   1.000  H
  C107     1.0000 0.79555  0.77290  0.73127  Biso   1.000  C
  H106     1.0000 0.81490  0.78940  0.79110  Biso   1.000  H
  H107     1.0000 0.74180  0.74870  0.73420  Biso   1.000  H
  C108     1.0000 0.89104  0.87585  0.64000  Biso   1.000  C
  H108     1.0000 0.92970  0.86690  0.65270  Biso   1.000  H
  C109     1.0000 0.83020  0.92276  0.58940  Biso   1.000  C
  H109     1.0000 0.81780  0.95380  0.55820  Biso   1.000  H
  C110     1.0000 0.78419  0.86674  0.64090  Biso   1.000  C
  H110     1.0000 0.73460  0.85150  0.65270  Biso   1.000  H
  N41      1.0000 0.59085  0.12350  0.19135  Biso   1.000  N
  N42      1.0000 0.64634  0.23442  0.24489  Biso   1.000  N
  N43      1.0000 0.48986  0.16986  0.00602  Biso   1.000  N
  N44      1.0000 0.56370  0.26154  0.92179  Biso   1.000  N
  C111     1.0000 0.51676  0.02413  0.08730  Biso   1.000  C
  C112     1.0000 0.48385  0.05203  0.03348  Biso   1.000  C
  C113     1.0000 0.53276  0.97268  0.05336  Biso   1.000  C
  H111     1.0000 0.55557  0.95383  0.09003  Biso   1.000  H
  C114     1.0000 0.53579  0.04591  0.18200  Biso   1.000  C
  H112     1.0000 0.55457  0.01593  0.20863  Biso   1.000  H
  H113     1.0000 0.49127  0.03603  0.21413  Biso   1.000  H
  C115     1.0000 0.58918  0.16923  0.25099  Biso   1.000  C
  H114     1.0000 0.55117  0.15593  0.29253  Biso   1.000  H
  C116     1.0000 0.68691  0.23004  0.17753  Biso   1.000  C
  H115     1.0000 0.73187  0.26923  0.15743  Biso   1.000  H
  C117     1.0000 0.65359  0.16182  0.14393  Biso   1.000  C
  H116     1.0000 0.67027  0.14423  0.09723  Biso   1.000  H
  C118     1.0000 0.46222  0.10623  0.06460  Biso   1.000  C
  H117     1.0000 0.48157  0.12273  0.12443  Biso   1.000  H
  H118     1.0000 0.40847  0.08203  0.06753  Biso   1.000  H
  C119     1.0000 0.55771  0.20918  0.97333  Biso   1.000  C
  H119     1.0000 0.59637  0.20023  0.98603  Biso   1.000  H
  C120     1.0000 0.49687  0.25609  0.92273  Biso   1.000  C
  H120     1.0000 0.48447  0.28713  0.89153  Biso   1.000  H
  C121     1.0000 0.45086  0.20007  0.97423  Biso   1.000  C
  H121     1.0000 0.40127  0.18483  0.98603  Biso   1.000  H
  N45      1.0000 0.25751  0.45684  0.52469  Biso   1.000  N
  N46      1.0000 0.31300  0.56776  0.57823  Biso   1.000  N
  N47      1.0000 0.15652  0.50320  0.33936  Biso   1.000  N
  N48      1.0000 0.23036  0.59488  0.25513  Biso   1.000  N
  C122     1.0000 0.18342  0.35747  0.42064  Biso   1.000  C
  C123     1.0000 0.15051  0.38537  0.36682  Biso   1.000  C
  C124     1.0000 0.19942  0.30602  0.38670  Biso   1.000  C
  H122     1.0000 0.22223  0.28717  0.42337  Biso   1.000  H
  C125     1.0000 0.20245  0.37925  0.51534  Biso   1.000  C
  H123     1.0000 0.22123  0.34927  0.54197  Biso   1.000  H
  H124     1.0000 0.15793  0.36937  0.54747  Biso   1.000  H
  C126     1.0000 0.25584  0.50257  0.58433  Biso   1.000  C
  H125     1.0000 0.21783  0.48927  0.62587  Biso   1.000  H
  C127     1.0000 0.35357  0.56338  0.51087  Biso   1.000  C
  H126     1.0000 0.39853  0.60257  0.49077  Biso   1.000  H
  C128     1.0000 0.32025  0.49516  0.47727  Biso   1.000  C
  H127     1.0000 0.33693  0.47757  0.43057  Biso   1.000  H
  C129     1.0000 0.12888  0.43957  0.39794  Biso   1.000  C
  H128     1.0000 0.14823  0.45607  0.45777  Biso   1.000  H
  H129     1.0000 0.07513  0.41537  0.40087  Biso   1.000  H
  C130     1.0000 0.22437  0.54252  0.30667  Biso   1.000  C
  H130     1.0000 0.26303  0.53357  0.31937  Biso   1.000  H
  C131     1.0000 0.16353  0.58943  0.25607  Biso   1.000  C
  H131     1.0000 0.15113  0.62047  0.22487  Biso   1.000  H
  C132     1.0000 0.11752  0.53341  0.30757  Biso   1.000  C
  H132     1.0000 0.06793  0.51817  0.31937  Biso   1.000  H
  N49      1.0000 0.20983  0.13401  0.85802  Biso   1.000  N
  N50      1.0000 0.09891  0.07858  0.91156  Biso   1.000  N
  N51      1.0000 0.16347  0.98666  0.67269  Biso   1.000  N
  N52      1.0000 0.07179  0.96882  0.58846  Biso   1.000  N
  C133     1.0000 0.30920  0.15929  0.75397  Biso   1.000  C
  C134     1.0000 0.28130  0.09848  0.70015  Biso   1.000  C
  C135     1.0000 0.36065  0.22674  0.72003  Biso   1.000  C
  H133     1.0000 0.37950  0.26840  0.75670  Biso   1.000  H
  C136     1.0000 0.28742  0.15654  0.84867  Biso   1.000  C
  H134     1.0000 0.31740  0.20530  0.87530  Biso   1.000  H
  H135     1.0000 0.29730  0.12190  0.88080  Biso   1.000  H
  C137     1.0000 0.16410  0.08661  0.91766  Biso   1.000  C
  H136     1.0000 0.17740  0.06190  0.95920  Biso   1.000  H
  C138     1.0000 0.10329  0.12353  0.84420  Biso   1.000  C
  H137     1.0000 0.06410  0.12930  0.82410  Biso   1.000  H
  C139     1.0000 0.17151  0.15843  0.81060  Biso   1.000  C
  H138     1.0000 0.18910  0.19270  0.76390  Biso   1.000  H
  C140     1.0000 0.22710  0.02265  0.73127  Biso   1.000  C
  H139     1.0000 0.21060  0.02550  0.79110  Biso   1.000  H
  H140     1.0000 0.25130  0.99310  0.73420  Biso   1.000  H
  C141     1.0000 0.12415  0.01519  0.64000  Biso   1.000  C
  H141     1.0000 0.13310  0.06280  0.65270  Biso   1.000  H
  C142     1.0000 0.07724  0.90744  0.58940  Biso   1.000  C
  H142     1.0000 0.04620  0.86400  0.55820  Biso   1.000  H
  C143     1.0000 0.13326  0.91745  0.64090  Biso   1.000  C
  H143     1.0000 0.14850  0.88310  0.65270  Biso   1.000  H
  N53      1.0000 0.87650  0.46734  0.19135  Biso   1.000  N
  N54      1.0000 0.76558  0.41191  0.24489  Biso   1.000  N
  N55      1.0000 0.83014  0.31999  0.00602  Biso   1.000  N
  N56      1.0000 0.73846  0.30215  0.92179  Biso   1.000  N
  C144     1.0000 0.97587  0.49262  0.08730  Biso   1.000  C
  C145     1.0000 0.94797  0.43181  0.03348  Biso   1.000  C
  C146     1.0000 0.02732  0.56007  0.05336  Biso   1.000  C
  H144     1.0000 0.04617  0.60173  0.09003  Biso   1.000  H
  C147     1.0000 0.95409  0.48987  0.18200  Biso   1.000  C
  H145     1.0000 0.98407  0.53863  0.20863  Biso   1.000  H
  H146     1.0000 0.96397  0.45523  0.21413  Biso   1.000  H
  C148     1.0000 0.83077  0.41994  0.25099  Biso   1.000  C
  H147     1.0000 0.84407  0.39523  0.29253  Biso   1.000  H
  C149     1.0000 0.76996  0.45686  0.17753  Biso   1.000  C
  H148     1.0000 0.73077  0.46263  0.15743  Biso   1.000  H
  C150     1.0000 0.83818  0.49176  0.14393  Biso   1.000  C
  H149     1.0000 0.85577  0.52603  0.09723  Biso   1.000  H
  C151     1.0000 0.89377  0.35598  0.06460  Biso   1.000  C
  H150     1.0000 0.87727  0.35883  0.12443  Biso   1.000  H
  H151     1.0000 0.91797  0.32643  0.06753  Biso   1.000  H
  C152     1.0000 0.79082  0.34852  0.97333  Biso   1.000  C
  H152     1.0000 0.79977  0.39613  0.98603  Biso   1.000  H
  C153     1.0000 0.74391  0.24077  0.92273  Biso   1.000  C
  H153     1.0000 0.71287  0.19733  0.89153  Biso   1.000  H
  C154     1.0000 0.79993  0.25078  0.97423  Biso   1.000  C
  H154     1.0000 0.81517  0.21643  0.98603  Biso   1.000  H
  N57      1.0000 0.54316  0.80068  0.52469  Biso   1.000  N
  N58      1.0000 0.43224  0.74525  0.57823  Biso   1.000  N
  N59      1.0000 0.49680  0.65333  0.33936  Biso   1.000  N
  N60      1.0000 0.40512  0.63549  0.25513  Biso   1.000  N
  C155     1.0000 0.64253  0.82596  0.42064  Biso   1.000  C
  C156     1.0000 0.61463  0.76515  0.36682  Biso   1.000  C
  C157     1.0000 0.69398  0.89341  0.38670  Biso   1.000  C
  H155     1.0000 0.71283  0.93507  0.42337  Biso   1.000  H
  C158     1.0000 0.62075  0.82321  0.51534  Biso   1.000  C
  H156     1.0000 0.65073  0.87197  0.54197  Biso   1.000  H
  H157     1.0000 0.63063  0.78857  0.54747  Biso   1.000  H
  C159     1.0000 0.49743  0.75328  0.58433  Biso   1.000  C
  H158     1.0000 0.51073  0.72857  0.62587  Biso   1.000  H
  C160     1.0000 0.43662  0.79020  0.51087  Biso   1.000  C
  H159     1.0000 0.39743  0.79597  0.49077  Biso   1.000  H
  C161     1.0000 0.50484  0.82510  0.47727  Biso   1.000  C
  H160     1.0000 0.52243  0.85937  0.43057  Biso   1.000  H
  C162     1.0000 0.56043  0.68932  0.39794  Biso   1.000  C
  H161     1.0000 0.54393  0.69217  0.45777  Biso   1.000  H
  H162     1.0000 0.58463  0.65977  0.40087  Biso   1.000  H
  C163     1.0000 0.45748  0.68186  0.30667  Biso   1.000  C
  H163     1.0000 0.46643  0.72947  0.31937  Biso   1.000  H
  C164     1.0000 0.41057  0.57411  0.25607  Biso   1.000  C
  H164     1.0000 0.37953  0.53067  0.22487  Biso   1.000  H
  C165     1.0000 0.46659  0.58412  0.30757  Biso   1.000  C
  H165     1.0000 0.48183  0.54977  0.31937  Biso   1.000  H
  N61      1.0000 0.86599  0.07582  0.85802  Biso   1.000  N
  N62      1.0000 0.92142  0.02033  0.91156  Biso   1.000  N
  N63      1.0000 0.01334  0.17681  0.67269  Biso   1.000  N
  N64      1.0000 0.03118  0.10297  0.58846  Biso   1.000  N
  C166     1.0000 0.84071  0.14991  0.75397  Biso   1.000  C
  C167     1.0000 0.90152  0.18282  0.70015  Biso   1.000  C
  C168     1.0000 0.77326  0.13391  0.72003  Biso   1.000  C
  H166     1.0000 0.73160  0.11110  0.75670  Biso   1.000  H
  C169     1.0000 0.84346  0.13088  0.84867  Biso   1.000  C
  H167     1.0000 0.79470  0.11210  0.87530  Biso   1.000  H
  H168     1.0000 0.87810  0.17540  0.88080  Biso   1.000  H
  C170     1.0000 0.91339  0.07749  0.91766  Biso   1.000  C
  H169     1.0000 0.93810  0.11550  0.95920  Biso   1.000  H
  C171     1.0000 0.87647  0.97976  0.84420  Biso   1.000  C
  H170     1.0000 0.87070  0.93480  0.82410  Biso   1.000  H
  C172     1.0000 0.84157  0.01308  0.81060  Biso   1.000  C
  H171     1.0000 0.80730  0.99640  0.76390  Biso   1.000  H
  C173     1.0000 0.97735  0.20445  0.73127  Biso   1.000  C
  H172     1.0000 0.97450  0.18510  0.79110  Biso   1.000  H
  H173     1.0000 0.00690  0.25820  0.73420  Biso   1.000  H
  C174     1.0000 0.98481  0.10896  0.64000  Biso   1.000  C
  H174     1.0000 0.93720  0.07030  0.65270  Biso   1.000  H
  C175     1.0000 0.09256  0.16980  0.58940  Biso   1.000  C
  H175     1.0000 0.13600  0.18220  0.55820  Biso   1.000  H
  C176     1.0000 0.08255  0.21581  0.64090  Biso   1.000  C
  H176     1.0000 0.11690  0.26540  0.65270  Biso   1.000  H
  N65      1.0000 0.53266  0.40915  0.19135  Biso   1.000  N
  N66      1.0000 0.58809  0.35366  0.24489  Biso   1.000  N
  N67      1.0000 0.68001  0.51014  0.00602  Biso   1.000  N
  N68      1.0000 0.69785  0.43630  0.92179  Biso   1.000  N
  C177     1.0000 0.50738  0.48324  0.08730  Biso   1.000  C
  C178     1.0000 0.56819  0.51615  0.03348  Biso   1.000  C
  C179     1.0000 0.43993  0.46724  0.05336  Biso   1.000  C
  H177     1.0000 0.39827  0.44443  0.09003  Biso   1.000  H
  C180     1.0000 0.51013  0.46421  0.18200  Biso   1.000  C
  H178     1.0000 0.46137  0.44543  0.20863  Biso   1.000  H
  H179     1.0000 0.54477  0.50873  0.21413  Biso   1.000  H
  C181     1.0000 0.58006  0.41082  0.25099  Biso   1.000  C
  H180     1.0000 0.60477  0.44883  0.29253  Biso   1.000  H
  C182     1.0000 0.54314  0.31309  0.17753  Biso   1.000  C
  H181     1.0000 0.53737  0.26813  0.15743  Biso   1.000  H
  C183     1.0000 0.50824  0.34641  0.14393  Biso   1.000  C
  H182     1.0000 0.47397  0.32973  0.09723  Biso   1.000  H
  C184     1.0000 0.64402  0.53778  0.06460  Biso   1.000  C
  H183     1.0000 0.64117  0.51843  0.12443  Biso   1.000  H
  H184     1.0000 0.67357  0.59153  0.06753  Biso   1.000  H
  C185     1.0000 0.65148  0.44229  0.97333  Biso   1.000  C
  H185     1.0000 0.60387  0.40363  0.98603  Biso   1.000  H
  C186     1.0000 0.75923  0.50313  0.92273  Biso   1.000  C
  H186     1.0000 0.80267  0.51553  0.89153  Biso   1.000  H
  C187     1.0000 0.74922  0.54914  0.97423  Biso   1.000  C
  H187     1.0000 0.78357  0.59873  0.98603  Biso   1.000  H
  N69      1.0000 0.19932  0.74249  0.52469  Biso   1.000  N
  N70      1.0000 0.25475  0.68700  0.57823  Biso   1.000  N
  N71      1.0000 0.34667  0.84348  0.33936  Biso   1.000  N
  N72      1.0000 0.36451  0.76964  0.25513  Biso   1.000  N
  C188     1.0000 0.17404  0.81658  0.42064  Biso   1.000  C
  C189     1.0000 0.23485  0.84949  0.36682  Biso   1.000  C
  C190     1.0000 0.10659  0.80058  0.38670  Biso   1.000  C
  H188     1.0000 0.06493  0.77777  0.42337  Biso   1.000  H
  C191     1.0000 0.17679  0.79755  0.51534  Biso   1.000  C
  H189     1.0000 0.12803  0.77877  0.54197  Biso   1.000  H
  H190     1.0000 0.21143  0.84207  0.54747  Biso   1.000  H
  C192     1.0000 0.24672  0.74416  0.58433  Biso   1.000  C
  H191     1.0000 0.27143  0.78217  0.62587  Biso   1.000  H
  C193     1.0000 0.20980  0.64643  0.51087  Biso   1.000  C
  H192     1.0000 0.20403  0.60147  0.49077  Biso   1.000  H
  C194     1.0000 0.17490  0.67975  0.47727  Biso   1.000  C
  H193     1.0000 0.14063  0.66307  0.43057  Biso   1.000  H
  C195     1.0000 0.31068  0.87112  0.39794  Biso   1.000  C
  H194     1.0000 0.30783  0.85177  0.45777  Biso   1.000  H
  H195     1.0000 0.34023  0.92487  0.40087  Biso   1.000  H
  C196     1.0000 0.31814  0.77563  0.30667  Biso   1.000  C
  H196     1.0000 0.27053  0.73697  0.31937  Biso   1.000  H
  C197     1.0000 0.42589  0.83647  0.25607  Biso   1.000  C
  H197     1.0000 0.46933  0.84887  0.22487  Biso   1.000  H
  C198     1.0000 0.41588  0.88248  0.30757  Biso   1.000  C
  H198     1.0000 0.45023  0.93207  0.31937  Biso   1.000  H
  Cd1      1.0000 0.00000  0.00000  0.00000  Biso   1.000  Cd
  Cd2      1.0000 0.66667  0.33333  0.33333  Biso   1.000  Cd
  Cd3      1.0000 0.33333  0.66667  0.66667  Biso   1.000  Cd
  Cd4      1.0000 0.00000  0.00000  0.50000  Biso   1.000  Cd
  Cd5      1.0000 0.66667  0.33333  0.83333  Biso   1.000  Cd
  Cd6      1.0000 0.33333  0.66667  0.16667  Biso   1.000  Cd
