data_image0
_cell_length_a       21.297
_cell_length_b       21.297
_cell_length_c       15.38
_cell_angle_alpha    90
_cell_angle_beta     90
_cell_angle_gamma    120

_symmetry_space_group_name_H-M    "P 1"
_symmetry_int_tables_number       1

loop_
  _symmetry_equiv_pos_as_xyz
  'x, y, z'

loop_
  _atom_site_label
  _atom_site_occupancy
  _atom_site_fract_x
  _atom_site_fract_y
  _atom_site_fract_z
  _atom_site_thermal_displace_type
  _atom_site_B_iso_or_equiv
  _atom_site_type_symbol
  N1       1.0000 0.16292  0.98695  0.17130  Biso   1.000  N
  N2       1.0000 0.07117  0.96842  0.08750  Biso   1.000  N
  N3       1.0000 0.20934  0.13412  0.35680  Biso   1.000  N
  N4       1.0000 0.09889  0.07910  0.41180  Biso   1.000  N
  C1       1.0000 0.28033  0.09850  0.19910  Biso   1.000  C
  C2       1.0000 0.30902  0.15940  0.25300  Biso   1.000  C
  C3       1.0000 0.30560  0.10710  0.11400  Biso   1.000  C
  H1       1.0000 0.28650  0.06570  0.07730  Biso   1.000  H
  C4       1.0000 0.22570  0.02300  0.23030  Biso   1.000  C
  H2       1.0000 0.24960  0.99340  0.23450  Biso   1.000  H
  H3       1.0000 0.20860  0.02620  0.28910  Biso   1.000  H
  C5       1.0000 0.12290  0.01460  0.13880  Biso   1.000  C
  H4       1.0000 0.13120  0.06180  0.15160  Biso   1.000  H
  C6       1.0000 0.07780  0.90740  0.08750  Biso   1.000  C
  H5       1.0000 0.04760  0.86430  0.05600  Biso   1.000  H
  C7       1.0000 0.13380  0.91800  0.13930  Biso   1.000  C
  H6       1.0000 0.14970  0.88440  0.15090  Biso   1.000  H
  C8       1.0000 0.28670  0.15670  0.34710  Biso   1.000  C
  H7       1.0000 0.29670  0.12230  0.37930  Biso   1.000  H
  H8       1.0000 0.31640  0.20520  0.37350  Biso   1.000  H
  C9       1.0000 0.16410  0.08720  0.41750  Biso   1.000  C
  H9       1.0000 0.17780  0.06320  0.45890  Biso   1.000  H
  C10      1.0000 0.10250  0.12340  0.34380  Biso   1.000  C
  H10      1.0000 0.06330  0.12920  0.32400  Biso   1.000  H
  C11      1.0000 0.17010  0.15740  0.30980  Biso   1.000  C
  H11      1.0000 0.18710  0.19070  0.26260  Biso   1.000  H
  N5       1.0000 0.82959  0.32028  0.50463  Biso   1.000  N
  N6       1.0000 0.73784  0.30175  0.42083  Biso   1.000  N
  N7       1.0000 0.87601  0.46745  0.69013  Biso   1.000  N
  N8       1.0000 0.76556  0.41243  0.74513  Biso   1.000  N
  C12      1.0000 0.94700  0.43183  0.53243  Biso   1.000  C
  C13      1.0000 0.97569  0.49273  0.58633  Biso   1.000  C
  C14      1.0000 0.97227  0.44043  0.44733  Biso   1.000  C
  H12      1.0000 0.95317  0.39903  0.41063  Biso   1.000  H
  C15      1.0000 0.89237  0.35633  0.56363  Biso   1.000  C
  H13      1.0000 0.91627  0.32673  0.56783  Biso   1.000  H
  H14      1.0000 0.87527  0.35953  0.62243  Biso   1.000  H
  C16      1.0000 0.78957  0.34793  0.47213  Biso   1.000  C
  H15      1.0000 0.79787  0.39513  0.48493  Biso   1.000  H
  C17      1.0000 0.74447  0.24073  0.42083  Biso   1.000  C
  H16      1.0000 0.71427  0.19763  0.38933  Biso   1.000  H
  C18      1.0000 0.80047  0.25133  0.47263  Biso   1.000  C
  H17      1.0000 0.81637  0.21773  0.48423  Biso   1.000  H
  C19      1.0000 0.95337  0.49003  0.68043  Biso   1.000  C
  H18      1.0000 0.96337  0.45563  0.71263  Biso   1.000  H
  H19      1.0000 0.98307  0.53853  0.70683  Biso   1.000  H
  C20      1.0000 0.83077  0.42053  0.75083  Biso   1.000  C
  H20      1.0000 0.84447  0.39653  0.79223  Biso   1.000  H
  C21      1.0000 0.76917  0.45673  0.67713  Biso   1.000  C
  H21      1.0000 0.72997  0.46253  0.65733  Biso   1.000  H
  C22      1.0000 0.83677  0.49073  0.64313  Biso   1.000  C
  H22      1.0000 0.85377  0.52403  0.59593  Biso   1.000  H
  N9       1.0000 0.49625  0.65362  0.83797  Biso   1.000  N
  N10      1.0000 0.40450  0.63509  0.75417  Biso   1.000  N
  N11      1.0000 0.54267  0.80079  0.02347  Biso   1.000  N
  N12      1.0000 0.43222  0.74577  0.07847  Biso   1.000  N
  C23      1.0000 0.61366  0.76517  0.86577  Biso   1.000  C
  C24      1.0000 0.64235  0.82607  0.91967  Biso   1.000  C
  C25      1.0000 0.63893  0.77377  0.78067  Biso   1.000  C
  H23      1.0000 0.61983  0.73237  0.74397  Biso   1.000  H
  C26      1.0000 0.55903  0.68967  0.89697  Biso   1.000  C
  H24      1.0000 0.58293  0.66007  0.90117  Biso   1.000  H
  H25      1.0000 0.54193  0.69287  0.95577  Biso   1.000  H
  C27      1.0000 0.45623  0.68127  0.80547  Biso   1.000  C
  H26      1.0000 0.46453  0.72847  0.81827  Biso   1.000  H
  C28      1.0000 0.41113  0.57407  0.75417  Biso   1.000  C
  H27      1.0000 0.38093  0.53097  0.72267  Biso   1.000  H
  C29      1.0000 0.46713  0.58467  0.80597  Biso   1.000  C
  H28      1.0000 0.48303  0.55107  0.81757  Biso   1.000  H
  C30      1.0000 0.62003  0.82337  0.01377  Biso   1.000  C
  H29      1.0000 0.63003  0.78897  0.04597  Biso   1.000  H
  H30      1.0000 0.64973  0.87187  0.04017  Biso   1.000  H
  C31      1.0000 0.49743  0.75387  0.08417  Biso   1.000  C
  H31      1.0000 0.51113  0.72987  0.12557  Biso   1.000  H
  C32      1.0000 0.43583  0.79007  0.01047  Biso   1.000  C
  H32      1.0000 0.39663  0.79587  0.99067  Biso   1.000  H
  C33      1.0000 0.50343  0.82407  0.97647  Biso   1.000  C
  H33      1.0000 0.52043  0.85737  0.92927  Biso   1.000  H
  N13      1.0000 0.01305  0.17597  0.17130  Biso   1.000  N
  N14      1.0000 0.03158  0.10275  0.08750  Biso   1.000  N
  N15      1.0000 0.86588  0.07522  0.35680  Biso   1.000  N
  N16      1.0000 0.92090  0.01979  0.41180  Biso   1.000  N
  C34      1.0000 0.90150  0.18183  0.19910  Biso   1.000  C
  C35      1.0000 0.84060  0.14962  0.25300  Biso   1.000  C
  C36      1.0000 0.89290  0.19850  0.11400  Biso   1.000  C
  H34      1.0000 0.93430  0.22080  0.07730  Biso   1.000  H
  C37      1.0000 0.97700  0.20270  0.23030  Biso   1.000  C
  H35      1.0000 0.00660  0.25620  0.23450  Biso   1.000  H
  H36      1.0000 0.97380  0.18240  0.28910  Biso   1.000  H
  C38      1.0000 0.98540  0.10830  0.13880  Biso   1.000  C
  H37      1.0000 0.93820  0.06940  0.15160  Biso   1.000  H
  C39      1.0000 0.09260  0.17040  0.08750  Biso   1.000  C
  H38      1.0000 0.13570  0.18330  0.05600  Biso   1.000  H
  C40      1.0000 0.08200  0.21580  0.13930  Biso   1.000  C
  H39      1.0000 0.11560  0.26530  0.15090  Biso   1.000  H
  C41      1.0000 0.84330  0.13000  0.34710  Biso   1.000  C
  H40      1.0000 0.87770  0.17440  0.37930  Biso   1.000  H
  H41      1.0000 0.79480  0.11120  0.37350  Biso   1.000  H
  C42      1.0000 0.91280  0.07690  0.41750  Biso   1.000  C
  H42      1.0000 0.93680  0.11460  0.45890  Biso   1.000  H
  C43      1.0000 0.87660  0.97910  0.34380  Biso   1.000  C
  H43      1.0000 0.87080  0.93410  0.32400  Biso   1.000  H
  C44      1.0000 0.84260  0.01270  0.30980  Biso   1.000  C
  H44      1.0000 0.80930  0.99640  0.26260  Biso   1.000  H
  N17      1.0000 0.67972  0.50930  0.50463  Biso   1.000  N
  N18      1.0000 0.69825  0.43608  0.42083  Biso   1.000  N
  N19      1.0000 0.53255  0.40855  0.69013  Biso   1.000  N
  N20      1.0000 0.58757  0.35312  0.74513  Biso   1.000  N
  C45      1.0000 0.56817  0.51516  0.53243  Biso   1.000  C
  C46      1.0000 0.50727  0.48295  0.58633  Biso   1.000  C
  C47      1.0000 0.55957  0.53183  0.44733  Biso   1.000  C
  H45      1.0000 0.60097  0.55413  0.41063  Biso   1.000  H
  C48      1.0000 0.64367  0.53603  0.56363  Biso   1.000  C
  H46      1.0000 0.67327  0.58953  0.56783  Biso   1.000  H
  H47      1.0000 0.64047  0.51573  0.62243  Biso   1.000  H
  C49      1.0000 0.65207  0.44163  0.47213  Biso   1.000  C
  H48      1.0000 0.60487  0.40273  0.48493  Biso   1.000  H
  C50      1.0000 0.75927  0.50373  0.42083  Biso   1.000  C
  H49      1.0000 0.80237  0.51663  0.38933  Biso   1.000  H
  C51      1.0000 0.74867  0.54913  0.47263  Biso   1.000  C
  H50      1.0000 0.78227  0.59863  0.48423  Biso   1.000  H
  C52      1.0000 0.50997  0.46333  0.68043  Biso   1.000  C
  H51      1.0000 0.54437  0.50773  0.71263  Biso   1.000  H
  H52      1.0000 0.46147  0.44453  0.70683  Biso   1.000  H
  C53      1.0000 0.57947  0.41023  0.75083  Biso   1.000  C
  H53      1.0000 0.60347  0.44793  0.79223  Biso   1.000  H
  C54      1.0000 0.54327  0.31243  0.67713  Biso   1.000  C
  H54      1.0000 0.53747  0.26743  0.65733  Biso   1.000  H
  C55      1.0000 0.50927  0.34603  0.64313  Biso   1.000  C
  H55      1.0000 0.47597  0.32973  0.59593  Biso   1.000  H
  N21      1.0000 0.34638  0.84264  0.83797  Biso   1.000  N
  N22      1.0000 0.36491  0.76942  0.75417  Biso   1.000  N
  N23      1.0000 0.19921  0.74189  0.02347  Biso   1.000  N
  N24      1.0000 0.25423  0.68646  0.07847  Biso   1.000  N
  C56      1.0000 0.23483  0.84850  0.86577  Biso   1.000  C
  C57      1.0000 0.17393  0.81629  0.91967  Biso   1.000  C
  C58      1.0000 0.22623  0.86517  0.78067  Biso   1.000  C
  H56      1.0000 0.26763  0.88747  0.74397  Biso   1.000  H
  C59      1.0000 0.31033  0.86937  0.89697  Biso   1.000  C
  H57      1.0000 0.33993  0.92287  0.90117  Biso   1.000  H
  H58      1.0000 0.30713  0.84907  0.95577  Biso   1.000  H
  C60      1.0000 0.31873  0.77497  0.80547  Biso   1.000  C
  H59      1.0000 0.27153  0.73607  0.81827  Biso   1.000  H
  C61      1.0000 0.42593  0.83707  0.75417  Biso   1.000  C
  H60      1.0000 0.46903  0.84997  0.72267  Biso   1.000  H
  C62      1.0000 0.41533  0.88247  0.80597  Biso   1.000  C
  H61      1.0000 0.44893  0.93197  0.81757  Biso   1.000  H
  C63      1.0000 0.17663  0.79667  0.01377  Biso   1.000  C
  H62      1.0000 0.21103  0.84107  0.04597  Biso   1.000  H
  H63      1.0000 0.12813  0.77787  0.04017  Biso   1.000  H
  C64      1.0000 0.24613  0.74357  0.08417  Biso   1.000  C
  H64      1.0000 0.27013  0.78127  0.12557  Biso   1.000  H
  C65      1.0000 0.20993  0.64577  0.01047  Biso   1.000  C
  H65      1.0000 0.20413  0.60077  0.99067  Biso   1.000  H
  C66      1.0000 0.17593  0.67937  0.97647  Biso   1.000  C
  H66      1.0000 0.14263  0.66307  0.92927  Biso   1.000  H
  N25      1.0000 0.82403  0.83708  0.17130  Biso   1.000  N
  N26      1.0000 0.89725  0.92883  0.08750  Biso   1.000  N
  N27      1.0000 0.92478  0.79066  0.35680  Biso   1.000  N
  N28      1.0000 0.98021  0.90111  0.41180  Biso   1.000  N
  C67      1.0000 0.81817  0.71967  0.19910  Biso   1.000  C
  C68      1.0000 0.85038  0.69098  0.25300  Biso   1.000  C
  C69      1.0000 0.80150  0.69440  0.11400  Biso   1.000  C
  H67      1.0000 0.77920  0.71350  0.07730  Biso   1.000  H
  C70      1.0000 0.79730  0.77430  0.23030  Biso   1.000  C
  H68      1.0000 0.74380  0.75040  0.23450  Biso   1.000  H
  H69      1.0000 0.81760  0.79140  0.28910  Biso   1.000  H
  C71      1.0000 0.89170  0.87710  0.13880  Biso   1.000  C
  H70      1.0000 0.93060  0.86880  0.15160  Biso   1.000  H
  C72      1.0000 0.82960  0.92220  0.08750  Biso   1.000  C
  H71      1.0000 0.81670  0.95240  0.05600  Biso   1.000  H
  C73      1.0000 0.78420  0.86620  0.13930  Biso   1.000  C
  H72      1.0000 0.73470  0.85030  0.15090  Biso   1.000  H
  C74      1.0000 0.87000  0.71330  0.34710  Biso   1.000  C
  H73      1.0000 0.82560  0.70330  0.37930  Biso   1.000  H
  H74      1.0000 0.88880  0.68360  0.37350  Biso   1.000  H
  C75      1.0000 0.92310  0.83590  0.41750  Biso   1.000  C
  H75      1.0000 0.88540  0.82220  0.45890  Biso   1.000  H
  C76      1.0000 0.02090  0.89750  0.34380  Biso   1.000  C
  H76      1.0000 0.06590  0.93670  0.32400  Biso   1.000  H
  C77      1.0000 0.98730  0.82990  0.30980  Biso   1.000  C
  H77      1.0000 0.00360  0.81290  0.26260  Biso   1.000  H
  N29      1.0000 0.49070  0.17041  0.50463  Biso   1.000  N
  N30      1.0000 0.56392  0.26216  0.42083  Biso   1.000  N
  N31      1.0000 0.59145  0.12399  0.69013  Biso   1.000  N
  N32      1.0000 0.64688  0.23444  0.74513  Biso   1.000  N
  C78      1.0000 0.48484  0.05300  0.53243  Biso   1.000  C
  C79      1.0000 0.51705  0.02431  0.58633  Biso   1.000  C
  C80      1.0000 0.46817  0.02773  0.44733  Biso   1.000  C
  H78      1.0000 0.44587  0.04683  0.41063  Biso   1.000  H
  C81      1.0000 0.46397  0.10763  0.56363  Biso   1.000  C
  H79      1.0000 0.41047  0.08373  0.56783  Biso   1.000  H
  H80      1.0000 0.48427  0.12473  0.62243  Biso   1.000  H
  C82      1.0000 0.55837  0.21043  0.47213  Biso   1.000  C
  H81      1.0000 0.59727  0.20213  0.48493  Biso   1.000  H
  C83      1.0000 0.49627  0.25553  0.42083  Biso   1.000  C
  H82      1.0000 0.48337  0.28573  0.38933  Biso   1.000  H
  C84      1.0000 0.45087  0.19953  0.47263  Biso   1.000  C
  H83      1.0000 0.40137  0.18363  0.48423  Biso   1.000  H
  C85      1.0000 0.53667  0.04663  0.68043  Biso   1.000  C
  H84      1.0000 0.49227  0.03663  0.71263  Biso   1.000  H
  H85      1.0000 0.55547  0.01693  0.70683  Biso   1.000  H
  C86      1.0000 0.58977  0.16923  0.75083  Biso   1.000  C
  H86      1.0000 0.55207  0.15553  0.79223  Biso   1.000  H
  C87      1.0000 0.68757  0.23083  0.67713  Biso   1.000  C
  H87      1.0000 0.73257  0.27003  0.65733  Biso   1.000  H
  C88      1.0000 0.65397  0.16323  0.64313  Biso   1.000  C
  H88      1.0000 0.67027  0.14623  0.59593  Biso   1.000  H
  N33      1.0000 0.15736  0.50375  0.83797  Biso   1.000  N
  N34      1.0000 0.23058  0.59550  0.75417  Biso   1.000  N
  N35      1.0000 0.25811  0.45733  0.02347  Biso   1.000  N
  N36      1.0000 0.31354  0.56778  0.07847  Biso   1.000  N
  C89      1.0000 0.15150  0.38634  0.86577  Biso   1.000  C
  C90      1.0000 0.18371  0.35765  0.91967  Biso   1.000  C
  C91      1.0000 0.13483  0.36107  0.78067  Biso   1.000  C
  H89      1.0000 0.11253  0.38017  0.74397  Biso   1.000  H
  C92      1.0000 0.13063  0.44097  0.89697  Biso   1.000  C
  H90      1.0000 0.07713  0.41707  0.90117  Biso   1.000  H
  H91      1.0000 0.15093  0.45807  0.95577  Biso   1.000  H
  C93      1.0000 0.22503  0.54377  0.80547  Biso   1.000  C
  H92      1.0000 0.26393  0.53547  0.81827  Biso   1.000  H
  C94      1.0000 0.16293  0.58887  0.75417  Biso   1.000  C
  H93      1.0000 0.15003  0.61907  0.72267  Biso   1.000  H
  C95      1.0000 0.11753  0.53287  0.80597  Biso   1.000  C
  H94      1.0000 0.06803  0.51697  0.81757  Biso   1.000  H
  C96      1.0000 0.20333  0.37997  0.01377  Biso   1.000  C
  H95      1.0000 0.15893  0.36997  0.04597  Biso   1.000  H
  H96      1.0000 0.22213  0.35027  0.04017  Biso   1.000  H
  C97      1.0000 0.25643  0.50257  0.08417  Biso   1.000  C
  H97      1.0000 0.21873  0.48887  0.12557  Biso   1.000  H
  C98      1.0000 0.35423  0.56417  0.01047  Biso   1.000  C
  H98      1.0000 0.39923  0.60337  0.99067  Biso   1.000  H
  C99      1.0000 0.32063  0.49657  0.97647  Biso   1.000  C
  H99      1.0000 0.33693  0.47957  0.92927  Biso   1.000  H
  N37      1.0000 0.83708  0.01305  0.82870  Biso   1.000  N
  N38      1.0000 0.92883  0.03158  0.91250  Biso   1.000  N
  N39      1.0000 0.79066  0.86588  0.64320  Biso   1.000  N
  N40      1.0000 0.90111  0.92090  0.58820  Biso   1.000  N
  C100     1.0000 0.71967  0.90150  0.80090  Biso   1.000  C
  C101     1.0000 0.69098  0.84060  0.74700  Biso   1.000  C
  C102     1.0000 0.69440  0.89290  0.88600  Biso   1.000  C
  H100     1.0000 0.71350  0.93430  0.92270  Biso   1.000  H
  C103     1.0000 0.77430  0.97700  0.76970  Biso   1.000  C
  H101     1.0000 0.75040  0.00660  0.76550  Biso   1.000  H
  H102     1.0000 0.79140  0.97380  0.71090  Biso   1.000  H
  C104     1.0000 0.87710  0.98540  0.86120  Biso   1.000  C
  H103     1.0000 0.86880  0.93820  0.84840  Biso   1.000  H
  C105     1.0000 0.92220  0.09260  0.91250  Biso   1.000  C
  H104     1.0000 0.95240  0.13570  0.94400  Biso   1.000  H
  C106     1.0000 0.86620  0.08200  0.86070  Biso   1.000  C
  H105     1.0000 0.85030  0.11560  0.84910  Biso   1.000  H
  C107     1.0000 0.71330  0.84330  0.65290  Biso   1.000  C
  H106     1.0000 0.70330  0.87770  0.62070  Biso   1.000  H
  H107     1.0000 0.68360  0.79480  0.62650  Biso   1.000  H
  C108     1.0000 0.83590  0.91280  0.58250  Biso   1.000  C
  H108     1.0000 0.82220  0.93680  0.54110  Biso   1.000  H
  C109     1.0000 0.89750  0.87660  0.65620  Biso   1.000  C
  H109     1.0000 0.93670  0.87080  0.67600  Biso   1.000  H
  C110     1.0000 0.82990  0.84260  0.69020  Biso   1.000  C
  H110     1.0000 0.81290  0.80930  0.73740  Biso   1.000  H
  N41      1.0000 0.50375  0.34638  0.16203  Biso   1.000  N
  N42      1.0000 0.59550  0.36491  0.24583  Biso   1.000  N
  N43      1.0000 0.45733  0.19921  0.97653  Biso   1.000  N
  N44      1.0000 0.56778  0.25423  0.92153  Biso   1.000  N
  C111     1.0000 0.38634  0.23483  0.13423  Biso   1.000  C
  C112     1.0000 0.35765  0.17393  0.08033  Biso   1.000  C
  C113     1.0000 0.36107  0.22623  0.21933  Biso   1.000  C
  H111     1.0000 0.38017  0.26763  0.25603  Biso   1.000  H
  C114     1.0000 0.44097  0.31033  0.10303  Biso   1.000  C
  H112     1.0000 0.41707  0.33993  0.09883  Biso   1.000  H
  H113     1.0000 0.45807  0.30713  0.04423  Biso   1.000  H
  C115     1.0000 0.54377  0.31873  0.19453  Biso   1.000  C
  H114     1.0000 0.53547  0.27153  0.18173  Biso   1.000  H
  C116     1.0000 0.58887  0.42593  0.24583  Biso   1.000  C
  H115     1.0000 0.61907  0.46903  0.27733  Biso   1.000  H
  C117     1.0000 0.53287  0.41533  0.19403  Biso   1.000  C
  H116     1.0000 0.51697  0.44893  0.18243  Biso   1.000  H
  C118     1.0000 0.37997  0.17663  0.98623  Biso   1.000  C
  H117     1.0000 0.36997  0.21103  0.95403  Biso   1.000  H
  H118     1.0000 0.35027  0.12813  0.95983  Biso   1.000  H
  C119     1.0000 0.50257  0.24613  0.91583  Biso   1.000  C
  H119     1.0000 0.48887  0.27013  0.87443  Biso   1.000  H
  C120     1.0000 0.56417  0.20993  0.98953  Biso   1.000  C
  H120     1.0000 0.60337  0.20413  0.00933  Biso   1.000  H
  C121     1.0000 0.49657  0.17593  0.02353  Biso   1.000  C
  H121     1.0000 0.47957  0.14263  0.07073  Biso   1.000  H
  N45      1.0000 0.17041  0.67972  0.49537  Biso   1.000  N
  N46      1.0000 0.26216  0.69825  0.57917  Biso   1.000  N
  N47      1.0000 0.12399  0.53255  0.30987  Biso   1.000  N
  N48      1.0000 0.23444  0.58757  0.25487  Biso   1.000  N
  C122     1.0000 0.05300  0.56817  0.46757  Biso   1.000  C
  C123     1.0000 0.02431  0.50727  0.41367  Biso   1.000  C
  C124     1.0000 0.02773  0.55957  0.55267  Biso   1.000  C
  H122     1.0000 0.04683  0.60097  0.58937  Biso   1.000  H
  C125     1.0000 0.10763  0.64367  0.43637  Biso   1.000  C
  H123     1.0000 0.08373  0.67327  0.43217  Biso   1.000  H
  H124     1.0000 0.12473  0.64047  0.37757  Biso   1.000  H
  C126     1.0000 0.21043  0.65207  0.52787  Biso   1.000  C
  H125     1.0000 0.20213  0.60487  0.51507  Biso   1.000  H
  C127     1.0000 0.25553  0.75927  0.57917  Biso   1.000  C
  H126     1.0000 0.28573  0.80237  0.61067  Biso   1.000  H
  C128     1.0000 0.19953  0.74867  0.52737  Biso   1.000  C
  H127     1.0000 0.18363  0.78227  0.51577  Biso   1.000  H
  C129     1.0000 0.04663  0.50997  0.31957  Biso   1.000  C
  H128     1.0000 0.03663  0.54437  0.28737  Biso   1.000  H
  H129     1.0000 0.01693  0.46147  0.29317  Biso   1.000  H
  C130     1.0000 0.16923  0.57947  0.24917  Biso   1.000  C
  H130     1.0000 0.15553  0.60347  0.20777  Biso   1.000  H
  C131     1.0000 0.23083  0.54327  0.32287  Biso   1.000  C
  H131     1.0000 0.27003  0.53747  0.34267  Biso   1.000  H
  C132     1.0000 0.16323  0.50927  0.35687  Biso   1.000  C
  H132     1.0000 0.14623  0.47597  0.40407  Biso   1.000  H
  N49      1.0000 0.98695  0.82403  0.82870  Biso   1.000  N
  N50      1.0000 0.96842  0.89725  0.91250  Biso   1.000  N
  N51      1.0000 0.13412  0.92478  0.64320  Biso   1.000  N
  N52      1.0000 0.07910  0.98021  0.58820  Biso   1.000  N
  C133     1.0000 0.09850  0.81817  0.80090  Biso   1.000  C
  C134     1.0000 0.15940  0.85038  0.74700  Biso   1.000  C
  C135     1.0000 0.10710  0.80150  0.88600  Biso   1.000  C
  H133     1.0000 0.06570  0.77920  0.92270  Biso   1.000  H
  C136     1.0000 0.02300  0.79730  0.76970  Biso   1.000  C
  H134     1.0000 0.99340  0.74380  0.76550  Biso   1.000  H
  H135     1.0000 0.02620  0.81760  0.71090  Biso   1.000  H
  C137     1.0000 0.01460  0.89170  0.86120  Biso   1.000  C
  H136     1.0000 0.06180  0.93060  0.84840  Biso   1.000  H
  C138     1.0000 0.90740  0.82960  0.91250  Biso   1.000  C
  H137     1.0000 0.86430  0.81670  0.94400  Biso   1.000  H
  C139     1.0000 0.91800  0.78420  0.86070  Biso   1.000  C
  H138     1.0000 0.88440  0.73470  0.84910  Biso   1.000  H
  C140     1.0000 0.15670  0.87000  0.65290  Biso   1.000  C
  H139     1.0000 0.12230  0.82560  0.62070  Biso   1.000  H
  H140     1.0000 0.20520  0.88880  0.62650  Biso   1.000  H
  C141     1.0000 0.08720  0.92310  0.58250  Biso   1.000  C
  H141     1.0000 0.06320  0.88540  0.54110  Biso   1.000  H
  C142     1.0000 0.12340  0.02090  0.65620  Biso   1.000  C
  H142     1.0000 0.12920  0.06590  0.67600  Biso   1.000  H
  C143     1.0000 0.15740  0.98730  0.69020  Biso   1.000  C
  H143     1.0000 0.19070  0.00360  0.73740  Biso   1.000  H
  N53      1.0000 0.65362  0.15736  0.16203  Biso   1.000  N
  N54      1.0000 0.63509  0.23058  0.24583  Biso   1.000  N
  N55      1.0000 0.80079  0.25811  0.97653  Biso   1.000  N
  N56      1.0000 0.74577  0.31354  0.92153  Biso   1.000  N
  C144     1.0000 0.76517  0.15150  0.13423  Biso   1.000  C
  C145     1.0000 0.82607  0.18371  0.08033  Biso   1.000  C
  C146     1.0000 0.77377  0.13483  0.21933  Biso   1.000  C
  H144     1.0000 0.73237  0.11253  0.25603  Biso   1.000  H
  C147     1.0000 0.68967  0.13063  0.10303  Biso   1.000  C
  H145     1.0000 0.66007  0.07713  0.09883  Biso   1.000  H
  H146     1.0000 0.69287  0.15093  0.04423  Biso   1.000  H
  C148     1.0000 0.68127  0.22503  0.19453  Biso   1.000  C
  H147     1.0000 0.72847  0.26393  0.18173  Biso   1.000  H
  C149     1.0000 0.57407  0.16293  0.24583  Biso   1.000  C
  H148     1.0000 0.53097  0.15003  0.27733  Biso   1.000  H
  C150     1.0000 0.58467  0.11753  0.19403  Biso   1.000  C
  H149     1.0000 0.55107  0.06803  0.18243  Biso   1.000  H
  C151     1.0000 0.82337  0.20333  0.98623  Biso   1.000  C
  H150     1.0000 0.78897  0.15893  0.95403  Biso   1.000  H
  H151     1.0000 0.87187  0.22213  0.95983  Biso   1.000  H
  C152     1.0000 0.75387  0.25643  0.91583  Biso   1.000  C
  H152     1.0000 0.72987  0.21873  0.87443  Biso   1.000  H
  C153     1.0000 0.79007  0.35423  0.98953  Biso   1.000  C
  H153     1.0000 0.79587  0.39923  0.00933  Biso   1.000  H
  C154     1.0000 0.82407  0.32063  0.02353  Biso   1.000  C
  H154     1.0000 0.85737  0.33693  0.07073  Biso   1.000  H
  N57      1.0000 0.32028  0.49070  0.49537  Biso   1.000  N
  N58      1.0000 0.30175  0.56392  0.57917  Biso   1.000  N
  N59      1.0000 0.46745  0.59145  0.30987  Biso   1.000  N
  N60      1.0000 0.41243  0.64688  0.25487  Biso   1.000  N
  C155     1.0000 0.43183  0.48484  0.46757  Biso   1.000  C
  C156     1.0000 0.49273  0.51705  0.41367  Biso   1.000  C
  C157     1.0000 0.44043  0.46817  0.55267  Biso   1.000  C
  H155     1.0000 0.39903  0.44587  0.58937  Biso   1.000  H
  C158     1.0000 0.35633  0.46397  0.43637  Biso   1.000  C
  H156     1.0000 0.32673  0.41047  0.43217  Biso   1.000  H
  H157     1.0000 0.35953  0.48427  0.37757  Biso   1.000  H
  C159     1.0000 0.34793  0.55837  0.52787  Biso   1.000  C
  H158     1.0000 0.39513  0.59727  0.51507  Biso   1.000  H
  C160     1.0000 0.24073  0.49627  0.57917  Biso   1.000  C
  H159     1.0000 0.19763  0.48337  0.61067  Biso   1.000  H
  C161     1.0000 0.25133  0.45087  0.52737  Biso   1.000  C
  H160     1.0000 0.21773  0.40137  0.51577  Biso   1.000  H
  C162     1.0000 0.49003  0.53667  0.31957  Biso   1.000  C
  H161     1.0000 0.45563  0.49227  0.28737  Biso   1.000  H
  H162     1.0000 0.53853  0.55547  0.29317  Biso   1.000  H
  C163     1.0000 0.42053  0.58977  0.24917  Biso   1.000  C
  H163     1.0000 0.39653  0.55207  0.20777  Biso   1.000  H
  C164     1.0000 0.45673  0.68757  0.32287  Biso   1.000  C
  H164     1.0000 0.46253  0.73257  0.34267  Biso   1.000  H
  C165     1.0000 0.49073  0.65397  0.35687  Biso   1.000  C
  H165     1.0000 0.52403  0.67027  0.40407  Biso   1.000  H
  N61      1.0000 0.17597  0.16292  0.82870  Biso   1.000  N
  N62      1.0000 0.10275  0.07117  0.91250  Biso   1.000  N
  N63      1.0000 0.07522  0.20934  0.64320  Biso   1.000  N
  N64      1.0000 0.01979  0.09889  0.58820  Biso   1.000  N
  C166     1.0000 0.18183  0.28033  0.80090  Biso   1.000  C
  C167     1.0000 0.14962  0.30902  0.74700  Biso   1.000  C
  C168     1.0000 0.19850  0.30560  0.88600  Biso   1.000  C
  H166     1.0000 0.22080  0.28650  0.92270  Biso   1.000  H
  C169     1.0000 0.20270  0.22570  0.76970  Biso   1.000  C
  H167     1.0000 0.25620  0.24960  0.76550  Biso   1.000  H
  H168     1.0000 0.18240  0.20860  0.71090  Biso   1.000  H
  C170     1.0000 0.10830  0.12290  0.86120  Biso   1.000  C
  H169     1.0000 0.06940  0.13120  0.84840  Biso   1.000  H
  C171     1.0000 0.17040  0.07780  0.91250  Biso   1.000  C
  H170     1.0000 0.18330  0.04760  0.94400  Biso   1.000  H
  C172     1.0000 0.21580  0.13380  0.86070  Biso   1.000  C
  H171     1.0000 0.26530  0.14970  0.84910  Biso   1.000  H
  C173     1.0000 0.13000  0.28670  0.65290  Biso   1.000  C
  H172     1.0000 0.17440  0.29670  0.62070  Biso   1.000  H
  H173     1.0000 0.11120  0.31640  0.62650  Biso   1.000  H
  C174     1.0000 0.07690  0.16410  0.58250  Biso   1.000  C
  H174     1.0000 0.11460  0.17780  0.54110  Biso   1.000  H
  C175     1.0000 0.97910  0.10250  0.65620  Biso   1.000  C
  H175     1.0000 0.93410  0.06330  0.67600  Biso   1.000  H
  C176     1.0000 0.01270  0.17010  0.69020  Biso   1.000  C
  H176     1.0000 0.99640  0.18710  0.73740  Biso   1.000  H
  N65      1.0000 0.84264  0.49625  0.16203  Biso   1.000  N
  N66      1.0000 0.76942  0.40450  0.24583  Biso   1.000  N
  N67      1.0000 0.74189  0.54267  0.97653  Biso   1.000  N
  N68      1.0000 0.68646  0.43222  0.92153  Biso   1.000  N
  C177     1.0000 0.84850  0.61366  0.13423  Biso   1.000  C
  C178     1.0000 0.81629  0.64235  0.08033  Biso   1.000  C
  C179     1.0000 0.86517  0.63893  0.21933  Biso   1.000  C
  H177     1.0000 0.88747  0.61983  0.25603  Biso   1.000  H
  C180     1.0000 0.86937  0.55903  0.10303  Biso   1.000  C
  H178     1.0000 0.92287  0.58293  0.09883  Biso   1.000  H
  H179     1.0000 0.84907  0.54193  0.04423  Biso   1.000  H
  C181     1.0000 0.77497  0.45623  0.19453  Biso   1.000  C
  H180     1.0000 0.73607  0.46453  0.18173  Biso   1.000  H
  C182     1.0000 0.83707  0.41113  0.24583  Biso   1.000  C
  H181     1.0000 0.84997  0.38093  0.27733  Biso   1.000  H
  C183     1.0000 0.88247  0.46713  0.19403  Biso   1.000  C
  H182     1.0000 0.93197  0.48303  0.18243  Biso   1.000  H
  C184     1.0000 0.79667  0.62003  0.98623  Biso   1.000  C
  H183     1.0000 0.84107  0.63003  0.95403  Biso   1.000  H
  H184     1.0000 0.77787  0.64973  0.95983  Biso   1.000  H
  C185     1.0000 0.74357  0.49743  0.91583  Biso   1.000  C
  H185     1.0000 0.78127  0.51113  0.87443  Biso   1.000  H
  C186     1.0000 0.64577  0.43583  0.98953  Biso   1.000  C
  H186     1.0000 0.60077  0.39663  0.00933  Biso   1.000  H
  C187     1.0000 0.67937  0.50343  0.02353  Biso   1.000  C
  H187     1.0000 0.66307  0.52043  0.07073  Biso   1.000  H
  N69      1.0000 0.50930  0.82959  0.49537  Biso   1.000  N
  N70      1.0000 0.43608  0.73784  0.57917  Biso   1.000  N
  N71      1.0000 0.40855  0.87601  0.30987  Biso   1.000  N
  N72      1.0000 0.35312  0.76556  0.25487  Biso   1.000  N
  C188     1.0000 0.51516  0.94700  0.46757  Biso   1.000  C
  C189     1.0000 0.48295  0.97569  0.41367  Biso   1.000  C
  C190     1.0000 0.53183  0.97227  0.55267  Biso   1.000  C
  H188     1.0000 0.55413  0.95317  0.58937  Biso   1.000  H
  C191     1.0000 0.53603  0.89237  0.43637  Biso   1.000  C
  H189     1.0000 0.58953  0.91627  0.43217  Biso   1.000  H
  H190     1.0000 0.51573  0.87527  0.37757  Biso   1.000  H
  C192     1.0000 0.44163  0.78957  0.52787  Biso   1.000  C
  H191     1.0000 0.40273  0.79787  0.51507  Biso   1.000  H
  C193     1.0000 0.50373  0.74447  0.57917  Biso   1.000  C
  H192     1.0000 0.51663  0.71427  0.61067  Biso   1.000  H
  C194     1.0000 0.54913  0.80047  0.52737  Biso   1.000  C
  H193     1.0000 0.59863  0.81637  0.51577  Biso   1.000  H
  C195     1.0000 0.46333  0.95337  0.31957  Biso   1.000  C
  H194     1.0000 0.50773  0.96337  0.28737  Biso   1.000  H
  H195     1.0000 0.44453  0.98307  0.29317  Biso   1.000  H
  C196     1.0000 0.41023  0.83077  0.24917  Biso   1.000  C
  H196     1.0000 0.44793  0.84447  0.20777  Biso   1.000  H
  C197     1.0000 0.31243  0.76917  0.32287  Biso   1.000  C
  H197     1.0000 0.26743  0.72997  0.34267  Biso   1.000  H
  C198     1.0000 0.34603  0.83677  0.35687  Biso   1.000  C
  H198     1.0000 0.32973  0.85377  0.40407  Biso   1.000  H
  Cd1      1.0000 0.00000  0.00000  0.00000  Biso   1.000  Cd
  Cd2      1.0000 0.66667  0.33333  0.33333  Biso   1.000  Cd
  Cd3      1.0000 0.33333  0.66667  0.66667  Biso   1.000  Cd
  Cd4      1.0000 0.00000  0.00000  0.50000  Biso   1.000  Cd
  Cd5      1.0000 0.66667  0.33333  0.83333  Biso   1.000  Cd
  Cd6      1.0000 0.33333  0.66667  0.16667  Biso   1.000  Cd
