data_image0
_cell_length_a       11.1597
_cell_length_b       22.075
_cell_length_c       17.434
_cell_angle_alpha    90
_cell_angle_beta     99.424
_cell_angle_gamma    90

_symmetry_space_group_name_H-M    "P 1"
_symmetry_int_tables_number       1

loop_
  _symmetry_equiv_pos_as_xyz
  'x, y, z'

loop_
  _atom_site_label
  _atom_site_occupancy
  _atom_site_fract_x
  _atom_site_fract_y
  _atom_site_fract_z
  _atom_site_thermal_displace_type
  _atom_site_B_iso_or_equiv
  _atom_site_type_symbol
  Cd1      1.0000 0.36763  0.44261  0.47128  Biso   1.000  Cd
  O1       1.0000 0.34600  0.54350  0.46020  Biso   1.000  O
  O2       1.0000 0.82300  0.92834  0.12010  Biso   1.000  O
  O3       1.0000 0.49700  0.60390  0.44460  Biso   1.000  O
  O4       1.0000 0.72140  0.84997  0.06370  Biso   1.000  O
  N1       1.0000 0.93220  0.50250  0.74110  Biso   1.000  N
  N2       1.0000 0.05610  0.44180  0.81540  Biso   1.000  N
  H1       1.0000 0.11590  0.41850  0.83350  Biso   1.000  H
  N3       1.0000 0.46360  0.44690  0.36330  Biso   1.000  N
  N4       1.0000 0.72510  0.43560  0.14660  Biso   1.000  N
  H2       1.0000 0.76310  0.40680  0.17360  Biso   1.000  H
  N5       1.0000 0.58980  0.51000  0.10850  Biso   1.000  N
  N6       1.0000 0.25620  0.45350  0.57210  Biso   1.000  N
  N7       1.0000 0.88230  0.49540  0.80670  Biso   1.000  N
  N8       1.0000 0.66660  0.50330  0.05600  Biso   1.000  N
  C1       1.0000 0.57110  0.46000  0.23130  Biso   1.000  C
  C2       1.0000 0.41250  0.48130  0.30310  Biso   1.000  C
  H3       1.0000 0.33980  0.50090  0.30650  Biso   1.000  H
  N9       1.0000 0.03270  0.38580  0.04500  Biso   1.000  N
  C3       1.0000 0.62810  0.46820  0.16170  Biso   1.000  C
  C4       1.0000 0.11140  0.46490  0.68680  Biso   1.000  C
  C5       1.0000 0.20900  0.42500  0.69610  Biso   1.000  C
  H4       1.0000 0.22720  0.40170  0.74090  Biso   1.000  H
  C6       1.0000 0.03560  0.46980  0.74780  Biso   1.000  C
  C7       1.0000 0.46270  0.48890  0.23710  Biso   1.000  C
  H5       1.0000 0.42450  0.51310  0.19670  Biso   1.000  H
  C8       1.0000 0.94710  0.43920  0.92830  Biso   1.000  C
  C9       1.0000 0.08820  0.49840  0.61850  Biso   1.000  C
  H6       1.0000 0.02290  0.52510  0.60990  Biso   1.000  H
  C10      1.0000 0.96050  0.45830  0.84950  Biso   1.000  C
  C11      1.0000 0.56760  0.41900  0.35780  Biso   1.000  C
  H7       1.0000 0.60420  0.39520  0.39910  Biso   1.000  H
  C12      1.0000 0.62340  0.42410  0.29260  Biso   1.000  C
  H8       1.0000 0.69540  0.40360  0.29020  Biso   1.000  H
  C13      1.0000 0.16320  0.49170  0.56380  Biso   1.000  C
  H9       1.0000 0.14790  0.51500  0.51880  Biso   1.000  H
  C14      1.0000 0.84400  0.43940  0.03850  Biso   1.000  C
  C15      1.0000 0.03570  0.40370  0.97180  Biso   1.000  C
  H10      1.0000 0.10130  0.39160  0.94880  Biso   1.000  H
  C16      1.0000 0.84880  0.45730  0.96300  Biso   1.000  C
  H11      1.0000 0.78730  0.48110  0.93580  Biso   1.000  H
  C17      1.0000 0.90030  0.82950  0.15250  Biso   1.000  C
  C18      1.0000 0.74640  0.45890  0.08060  Biso   1.000  C
  C19      1.0000 0.27850  0.42060  0.63740  Biso   1.000  C
  H12      1.0000 0.34350  0.39370  0.64370  Biso   1.000  H
  C20      1.0000 0.38790  0.58620  0.43270  Biso   1.000  C
  C21      1.0000 0.93750  0.40400  0.07670  Biso   1.000  C
  H13      1.0000 0.93400  0.39220  0.12750  Biso   1.000  H
  C22      1.0000 0.14880  0.70400  0.27920  Biso   1.000  C
  C23      1.0000 0.81090  0.87150  0.10980  Biso   1.000  C
  C24      1.0000 0.08880  0.80850  0.23700  Biso   1.000  C
  H14      1.0000 0.15970  0.82280  0.26710  Biso   1.000  H
  C25      1.0000 0.06430  0.74650  0.23320  Biso   1.000  C
  C26      1.0000 0.35030  0.67430  0.33670  Biso   1.000  C
  H15      1.0000 0.43380  0.68060  0.34280  Biso   1.000  H
  C27      1.0000 0.00620  0.84890  0.19560  Biso   1.000  C
  H16      1.0000 0.02400  0.89010  0.19740  Biso   1.000  H
  C28      1.0000 0.95710  0.72580  0.18780  Biso   1.000  C
  H17      1.0000 0.94010  0.68450  0.18440  Biso   1.000  H
  C29      1.0000 0.27320  0.71220  0.28840  Biso   1.000  C
  H18      1.0000 0.30520  0.74340  0.26200  Biso   1.000  H
  C30      1.0000 0.30510  0.62700  0.37640  Biso   1.000  C
  C31      1.0000 0.10360  0.65560  0.31630  Biso   1.000  C
  H19      1.0000 0.02040  0.64840  0.30850  Biso   1.000  H
  C32      1.0000 0.18180  0.61740  0.36520  Biso   1.000  C
  H20      1.0000 0.15030  0.58530  0.39030  Biso   1.000  H
  C33      1.0000 0.87650  0.76680  0.14800  Biso   1.000  C
  H21      1.0000 0.80540  0.75290  0.11780  Biso   1.000  H
  Cd2      1.0000 0.63237  0.94261  0.02872  Biso   1.000  Cd
  O5       1.0000 0.65400  0.04350  0.03980  Biso   1.000  O
  O6       1.0000 0.17700  0.42834  0.37990  Biso   1.000  O
  O7       1.0000 0.50300  0.10390  0.05540  Biso   1.000  O
  O8       1.0000 0.27860  0.34997  0.43630  Biso   1.000  O
  N10      1.0000 0.06780  0.00250  0.75890  Biso   1.000  N
  N11      1.0000 0.94390  0.94180  0.68460  Biso   1.000  N
  H22      1.0000 0.88410  0.91850  0.66650  Biso   1.000  H
  N12      1.0000 0.53640  0.94690  0.13670  Biso   1.000  N
  N13      1.0000 0.27490  0.93560  0.35340  Biso   1.000  N
  H23      1.0000 0.23690  0.90680  0.32640  Biso   1.000  H
  N14      1.0000 0.41020  0.01000  0.39150  Biso   1.000  N
  N15      1.0000 0.74380  0.95350  0.92790  Biso   1.000  N
  N16      1.0000 0.11770  0.99540  0.69330  Biso   1.000  N
  N17      1.0000 0.33340  0.00330  0.44400  Biso   1.000  N
  C34      1.0000 0.42890  0.96000  0.26870  Biso   1.000  C
  C35      1.0000 0.58750  0.98130  0.19690  Biso   1.000  C
  H24      1.0000 0.66020  0.00090  0.19350  Biso   1.000  H
  N18      1.0000 0.96730  0.88580  0.45500  Biso   1.000  N
  C36      1.0000 0.37190  0.96820  0.33830  Biso   1.000  C
  C37      1.0000 0.88860  0.96490  0.81320  Biso   1.000  C
  C38      1.0000 0.79100  0.92500  0.80390  Biso   1.000  C
  H25      1.0000 0.77280  0.90170  0.75910  Biso   1.000  H
  C39      1.0000 0.96440  0.96980  0.75220  Biso   1.000  C
  C40      1.0000 0.53730  0.98890  0.26290  Biso   1.000  C
  H26      1.0000 0.57550  0.01310  0.30330  Biso   1.000  H
  C41      1.0000 0.05290  0.93920  0.57170  Biso   1.000  C
  C42      1.0000 0.91180  0.99840  0.88150  Biso   1.000  C
  H27      1.0000 0.97710  0.02510  0.89010  Biso   1.000  H
  C43      1.0000 0.03950  0.95830  0.65050  Biso   1.000  C
  C44      1.0000 0.43240  0.91900  0.14220  Biso   1.000  C
  H28      1.0000 0.39580  0.89520  0.10090  Biso   1.000  H
  C45      1.0000 0.37660  0.92410  0.20740  Biso   1.000  C
  H29      1.0000 0.30460  0.90360  0.20980  Biso   1.000  H
  C46      1.0000 0.83680  0.99170  0.93620  Biso   1.000  C
  H30      1.0000 0.85210  0.01500  0.98120  Biso   1.000  H
  C47      1.0000 0.15600  0.93940  0.46150  Biso   1.000  C
  C48      1.0000 0.96430  0.90370  0.52820  Biso   1.000  C
  H31      1.0000 0.89870  0.89160  0.55120  Biso   1.000  H
  C49      1.0000 0.15120  0.95730  0.53700  Biso   1.000  C
  H32      1.0000 0.21270  0.98110  0.56420  Biso   1.000  H
  C50      1.0000 0.09970  0.32950  0.34750  Biso   1.000  C
  C51      1.0000 0.25360  0.95890  0.41940  Biso   1.000  C
  C52      1.0000 0.72150  0.92060  0.86260  Biso   1.000  C
  H33      1.0000 0.65650  0.89370  0.85630  Biso   1.000  H
  C53      1.0000 0.61210  0.08620  0.06730  Biso   1.000  C
  C54      1.0000 0.06250  0.90400  0.42330  Biso   1.000  C
  H34      1.0000 0.06600  0.89220  0.37250  Biso   1.000  H
  C55      1.0000 0.85120  0.20400  0.22080  Biso   1.000  C
  C56      1.0000 0.18910  0.37150  0.39020  Biso   1.000  C
  C57      1.0000 0.91120  0.30850  0.26300  Biso   1.000  C
  H35      1.0000 0.84030  0.32280  0.23290  Biso   1.000  H
  C58      1.0000 0.93570  0.24650  0.26680  Biso   1.000  C
  C59      1.0000 0.64970  0.17430  0.16330  Biso   1.000  C
  H36      1.0000 0.56620  0.18060  0.15720  Biso   1.000  H
  C60      1.0000 0.99380  0.34890  0.30440  Biso   1.000  C
  H37      1.0000 0.97600  0.39010  0.30260  Biso   1.000  H
  C61      1.0000 0.04290  0.22580  0.31220  Biso   1.000  C
  H38      1.0000 0.05990  0.18450  0.31560  Biso   1.000  H
  C62      1.0000 0.72680  0.21220  0.21160  Biso   1.000  C
  H39      1.0000 0.69480  0.24340  0.23800  Biso   1.000  H
  C63      1.0000 0.69490  0.12700  0.12360  Biso   1.000  C
  C64      1.0000 0.89640  0.15560  0.18370  Biso   1.000  C
  H40      1.0000 0.97960  0.14840  0.19150  Biso   1.000  H
  C65      1.0000 0.81820  0.11740  0.13480  Biso   1.000  C
  H41      1.0000 0.84970  0.08530  0.10970  Biso   1.000  H
  C66      1.0000 0.12350  0.26680  0.35200  Biso   1.000  C
  H42      1.0000 0.19460  0.25290  0.38220  Biso   1.000  H
  Cd3      1.0000 0.63237  0.55739  0.52872  Biso   1.000  Cd
  O9       1.0000 0.65400  0.45650  0.53980  Biso   1.000  O
  O10      1.0000 0.17700  0.07166  0.87990  Biso   1.000  O
  O11      1.0000 0.50300  0.39610  0.55540  Biso   1.000  O
  O12      1.0000 0.27860  0.15003  0.93630  Biso   1.000  O
  N19      1.0000 0.06780  0.49750  0.25890  Biso   1.000  N
  N20      1.0000 0.94390  0.55820  0.18460  Biso   1.000  N
  H43      1.0000 0.88410  0.58150  0.16650  Biso   1.000  H
  N21      1.0000 0.53640  0.55310  0.63670  Biso   1.000  N
  N22      1.0000 0.27490  0.56440  0.85340  Biso   1.000  N
  H44      1.0000 0.23690  0.59320  0.82640  Biso   1.000  H
  N23      1.0000 0.41020  0.49000  0.89150  Biso   1.000  N
  N24      1.0000 0.74380  0.54650  0.42790  Biso   1.000  N
  N25      1.0000 0.11770  0.50460  0.19330  Biso   1.000  N
  N26      1.0000 0.33340  0.49670  0.94400  Biso   1.000  N
  C67      1.0000 0.42890  0.54000  0.76870  Biso   1.000  C
  C68      1.0000 0.58750  0.51870  0.69690  Biso   1.000  C
  H45      1.0000 0.66020  0.49910  0.69350  Biso   1.000  H
  N27      1.0000 0.96730  0.61420  0.95500  Biso   1.000  N
  C69      1.0000 0.37190  0.53180  0.83830  Biso   1.000  C
  C70      1.0000 0.88860  0.53510  0.31320  Biso   1.000  C
  C71      1.0000 0.79100  0.57500  0.30390  Biso   1.000  C
  H46      1.0000 0.77280  0.59830  0.25910  Biso   1.000  H
  C72      1.0000 0.96440  0.53020  0.25220  Biso   1.000  C
  C73      1.0000 0.53730  0.51110  0.76290  Biso   1.000  C
  H47      1.0000 0.57550  0.48690  0.80330  Biso   1.000  H
  C74      1.0000 0.05290  0.56080  0.07170  Biso   1.000  C
  C75      1.0000 0.91180  0.50160  0.38150  Biso   1.000  C
  H48      1.0000 0.97710  0.47490  0.39010  Biso   1.000  H
  C76      1.0000 0.03950  0.54170  0.15050  Biso   1.000  C
  C77      1.0000 0.43240  0.58100  0.64220  Biso   1.000  C
  H49      1.0000 0.39580  0.60480  0.60090  Biso   1.000  H
  C78      1.0000 0.37660  0.57590  0.70740  Biso   1.000  C
  H50      1.0000 0.30460  0.59640  0.70980  Biso   1.000  H
  C79      1.0000 0.83680  0.50830  0.43620  Biso   1.000  C
  H51      1.0000 0.85210  0.48500  0.48120  Biso   1.000  H
  C80      1.0000 0.15600  0.56060  0.96150  Biso   1.000  C
  C81      1.0000 0.96430  0.59630  0.02820  Biso   1.000  C
  H52      1.0000 0.89870  0.60840  0.05120  Biso   1.000  H
  C82      1.0000 0.15120  0.54270  0.03700  Biso   1.000  C
  H53      1.0000 0.21270  0.51890  0.06420  Biso   1.000  H
  C83      1.0000 0.09970  0.17050  0.84750  Biso   1.000  C
  C84      1.0000 0.25360  0.54110  0.91940  Biso   1.000  C
  C85      1.0000 0.72150  0.57940  0.36260  Biso   1.000  C
  H54      1.0000 0.65650  0.60630  0.35630  Biso   1.000  H
  C86      1.0000 0.61210  0.41380  0.56730  Biso   1.000  C
  C87      1.0000 0.06250  0.59600  0.92330  Biso   1.000  C
  H55      1.0000 0.06600  0.60780  0.87250  Biso   1.000  H
  C88      1.0000 0.85120  0.29600  0.72080  Biso   1.000  C
  C89      1.0000 0.18910  0.12850  0.89020  Biso   1.000  C
  C90      1.0000 0.91120  0.19150  0.76300  Biso   1.000  C
  H56      1.0000 0.84030  0.17720  0.73290  Biso   1.000  H
  C91      1.0000 0.93570  0.25350  0.76680  Biso   1.000  C
  C92      1.0000 0.64970  0.32570  0.66330  Biso   1.000  C
  H57      1.0000 0.56620  0.31940  0.65720  Biso   1.000  H
  C93      1.0000 0.99380  0.15110  0.80440  Biso   1.000  C
  H58      1.0000 0.97600  0.10990  0.80260  Biso   1.000  H
  C94      1.0000 0.04290  0.27420  0.81220  Biso   1.000  C
  H59      1.0000 0.05990  0.31550  0.81560  Biso   1.000  H
  C95      1.0000 0.72680  0.28780  0.71160  Biso   1.000  C
  H60      1.0000 0.69480  0.25660  0.73800  Biso   1.000  H
  C96      1.0000 0.69490  0.37300  0.62360  Biso   1.000  C
  C97      1.0000 0.89640  0.34440  0.68370  Biso   1.000  C
  H61      1.0000 0.97960  0.35160  0.69150  Biso   1.000  H
  C98      1.0000 0.81820  0.38260  0.63480  Biso   1.000  C
  H62      1.0000 0.84970  0.41470  0.60970  Biso   1.000  H
  C99      1.0000 0.12350  0.23320  0.85200  Biso   1.000  C
  H63      1.0000 0.19460  0.24710  0.88220  Biso   1.000  H
  Cd4      1.0000 0.36763  0.05739  0.97128  Biso   1.000  Cd
  O13      1.0000 0.34600  0.95650  0.96020  Biso   1.000  O
  O14      1.0000 0.82300  0.57166  0.62010  Biso   1.000  O
  O15      1.0000 0.49700  0.89610  0.94460  Biso   1.000  O
  O16      1.0000 0.72140  0.65003  0.56370  Biso   1.000  O
  N28      1.0000 0.93220  0.99750  0.24110  Biso   1.000  N
  N29      1.0000 0.05610  0.05820  0.31540  Biso   1.000  N
  H64      1.0000 0.11590  0.08150  0.33350  Biso   1.000  H
  N30      1.0000 0.46360  0.05310  0.86330  Biso   1.000  N
  N31      1.0000 0.72510  0.06440  0.64660  Biso   1.000  N
  H65      1.0000 0.76310  0.09320  0.67360  Biso   1.000  H
  N32      1.0000 0.58980  0.99000  0.60850  Biso   1.000  N
  N33      1.0000 0.25620  0.04650  0.07210  Biso   1.000  N
  N34      1.0000 0.88230  0.00460  0.30670  Biso   1.000  N
  N35      1.0000 0.66660  0.99670  0.55600  Biso   1.000  N
  C100     1.0000 0.57110  0.04000  0.73130  Biso   1.000  C
  C101     1.0000 0.41250  0.01870  0.80310  Biso   1.000  C
  H66      1.0000 0.33980  0.99910  0.80650  Biso   1.000  H
  N36      1.0000 0.03270  0.11420  0.54500  Biso   1.000  N
  C102     1.0000 0.62810  0.03180  0.66170  Biso   1.000  C
  C103     1.0000 0.11140  0.03510  0.18680  Biso   1.000  C
  C104     1.0000 0.20900  0.07500  0.19610  Biso   1.000  C
  H67      1.0000 0.22720  0.09830  0.24090  Biso   1.000  H
  C105     1.0000 0.03560  0.03020  0.24780  Biso   1.000  C
  C106     1.0000 0.46270  0.01110  0.73710  Biso   1.000  C
  H68      1.0000 0.42450  0.98690  0.69670  Biso   1.000  H
  C107     1.0000 0.94710  0.06080  0.42830  Biso   1.000  C
  C108     1.0000 0.08820  0.00160  0.11850  Biso   1.000  C
  H69      1.0000 0.02290  0.97490  0.10990  Biso   1.000  H
  C109     1.0000 0.96050  0.04170  0.34950  Biso   1.000  C
  C110     1.0000 0.56760  0.08100  0.85780  Biso   1.000  C
  H70      1.0000 0.60420  0.10480  0.89910  Biso   1.000  H
  C111     1.0000 0.62340  0.07590  0.79260  Biso   1.000  C
  H71      1.0000 0.69540  0.09640  0.79020  Biso   1.000  H
  C112     1.0000 0.16320  0.00830  0.06380  Biso   1.000  C
  H72      1.0000 0.14790  0.98500  0.01880  Biso   1.000  H
  C113     1.0000 0.84400  0.06060  0.53850  Biso   1.000  C
  C114     1.0000 0.03570  0.09630  0.47180  Biso   1.000  C
  H73      1.0000 0.10130  0.10840  0.44880  Biso   1.000  H
  C115     1.0000 0.84880  0.04270  0.46300  Biso   1.000  C
  H74      1.0000 0.78730  0.01890  0.43580  Biso   1.000  H
  C116     1.0000 0.90030  0.67050  0.65250  Biso   1.000  C
  C117     1.0000 0.74640  0.04110  0.58060  Biso   1.000  C
  C118     1.0000 0.27850  0.07940  0.13740  Biso   1.000  C
  H75      1.0000 0.34350  0.10630  0.14370  Biso   1.000  H
  C119     1.0000 0.38790  0.91380  0.93270  Biso   1.000  C
  C120     1.0000 0.93750  0.09600  0.57670  Biso   1.000  C
  H76      1.0000 0.93400  0.10780  0.62750  Biso   1.000  H
  C121     1.0000 0.14880  0.79600  0.77920  Biso   1.000  C
  C122     1.0000 0.81090  0.62850  0.60980  Biso   1.000  C
  C123     1.0000 0.08880  0.69150  0.73700  Biso   1.000  C
  H77      1.0000 0.15970  0.67720  0.76710  Biso   1.000  H
  C124     1.0000 0.06430  0.75350  0.73320  Biso   1.000  C
  C125     1.0000 0.35030  0.82570  0.83670  Biso   1.000  C
  H78      1.0000 0.43380  0.81940  0.84280  Biso   1.000  H
  C126     1.0000 0.00620  0.65110  0.69560  Biso   1.000  C
  H79      1.0000 0.02400  0.60990  0.69740  Biso   1.000  H
  C127     1.0000 0.95710  0.77420  0.68780  Biso   1.000  C
  H80      1.0000 0.94010  0.81550  0.68440  Biso   1.000  H
  C128     1.0000 0.27320  0.78780  0.78840  Biso   1.000  C
  H81      1.0000 0.30520  0.75660  0.76200  Biso   1.000  H
  C129     1.0000 0.30510  0.87300  0.87640  Biso   1.000  C
  C130     1.0000 0.10360  0.84440  0.81630  Biso   1.000  C
  H82      1.0000 0.02040  0.85160  0.80850  Biso   1.000  H
  C131     1.0000 0.18180  0.88260  0.86520  Biso   1.000  C
  H83      1.0000 0.15030  0.91470  0.89030  Biso   1.000  H
  C132     1.0000 0.87650  0.73320  0.64800  Biso   1.000  C
  H84      1.0000 0.80540  0.74710  0.61780  Biso   1.000  H
