data_image0
_cell_length_a       9.499
_cell_length_b       9.5854
_cell_length_c       11.4945
_cell_angle_alpha    101.906
_cell_angle_beta     95.748
_cell_angle_gamma    119.387

_symmetry_space_group_name_H-M    "P 1"
_symmetry_int_tables_number       1

loop_
  _symmetry_equiv_pos_as_xyz
  'x, y, z'

loop_
  _atom_site_label
  _atom_site_occupancy
  _atom_site_fract_x
  _atom_site_fract_y
  _atom_site_fract_z
  _atom_site_thermal_displace_type
  _atom_site_B_iso_or_equiv
  _atom_site_type_symbol
  Er1      1.0000 0.73141  0.36122  0.49497  Biso   1.000  Er
  Ag1      1.0000 0.51032  0.80804  0.17762  Biso   1.000  Ag
  O1       1.0000 0.41470  0.81060  0.38528  Biso   1.000  O
  O2       1.0000 0.20570  0.66930  0.69310  Biso   1.000  O
  O3       1.0000 0.93050  0.51750  0.67350  Biso   1.000  O
  O4       1.0000 0.13170  0.78100  0.48230  Biso   1.000  O
  O5       1.0000 0.85760  0.62440  0.46620  Biso   1.000  O
  O6       1.0000 0.49520  0.64480  0.61760  Biso   1.000  O
  O7       1.0000 0.62880  0.50710  0.62245  Biso   1.000  O
  N1       1.0000 0.28260  0.75650  0.06820  Biso   1.000  N
  N2       1.0000 0.76080  0.87030  0.24610  Biso   1.000  N
  C1       1.0000 0.15840  0.74690  0.11860  Biso   1.000  C
  H1       1.0000 0.17540  0.77180  0.20330  Biso   1.000  H
  C2       1.0000 0.00670  0.70190  0.05120  Biso   1.000  C
  H2       1.0000 0.92550  0.70220  0.09000  Biso   1.000  H
  C3       1.0000 0.97680  0.65650  0.92620  Biso   1.000  C
  H3       1.0000 0.87350  0.62120  0.87880  Biso   1.000  H
  C4       1.0000 0.10280  0.66420  0.87130  Biso   1.000  C
  C5       1.0000 0.25400  0.71680  0.94440  Biso   1.000  C
  H4       1.0000 0.33970  0.72550  0.90760  Biso   1.000  H
  C6       1.0000 0.07770  0.61360  0.73430  Biso   1.000  C
  C7       1.0000 0.79380  0.78830  0.31690  Biso   1.000  C
  H5       1.0000 0.70580  0.69400  0.32860  Biso   1.000  H
  C8       1.0000 0.95520  0.84080  0.37250  Biso   1.000  C
  C9       1.0000 0.08450  0.98150  0.35600  Biso   1.000  C
  H6       1.0000 0.19370  0.02010  0.39300  Biso   1.000  H
  C10      1.0000 0.05040  0.06470  0.28400  Biso   1.000  C
  H7       1.0000 0.13620  0.15980  0.27140  Biso   1.000  H
  C11      1.0000 0.88850  0.00510  0.23120  Biso   1.000  C
  H8       1.0000 0.86660  0.06170  0.18250  Biso   1.000  H
  C12      1.0000 0.98350  0.74190  0.44740  Biso   1.000  C
  C13      1.0000 0.48680  0.96670  0.43030  Biso   1.000  C
  C14      1.0000 0.53570  0.54300  0.56910  Biso   1.000  C
  O8       1.0000 0.54020  0.07260  0.37366  Biso   1.000  O
  Er2      1.0000 0.26859  0.63878  0.50503  Biso   1.000  Er
  Ag2      1.0000 0.48968  0.19196  0.82238  Biso   1.000  Ag
  O9       1.0000 0.58530  0.18940  0.61472  Biso   1.000  O
  O10      1.0000 0.79430  0.33070  0.30690  Biso   1.000  O
  O11      1.0000 0.06950  0.48250  0.32650  Biso   1.000  O
  O12      1.0000 0.86830  0.21900  0.51770  Biso   1.000  O
  O13      1.0000 0.14240  0.37560  0.53380  Biso   1.000  O
  O14      1.0000 0.50480  0.35520  0.38240  Biso   1.000  O
  O15      1.0000 0.37120  0.49290  0.37755  Biso   1.000  O
  N3       1.0000 0.71740  0.24350  0.93180  Biso   1.000  N
  N4       1.0000 0.23920  0.12970  0.75390  Biso   1.000  N
  C15      1.0000 0.84160  0.25310  0.88140  Biso   1.000  C
  H9       1.0000 0.82460  0.22820  0.79670  Biso   1.000  H
  C16      1.0000 0.99330  0.29810  0.94880  Biso   1.000  C
  H10      1.0000 0.07450  0.29780  0.91000  Biso   1.000  H
  C17      1.0000 0.02320  0.34350  0.07380  Biso   1.000  C
  H11      1.0000 0.12650  0.37880  0.12120  Biso   1.000  H
  C18      1.0000 0.89720  0.33580  0.12870  Biso   1.000  C
  C19      1.0000 0.74600  0.28320  0.05560  Biso   1.000  C
  H12      1.0000 0.66030  0.27450  0.09240  Biso   1.000  H
  C20      1.0000 0.92230  0.38640  0.26570  Biso   1.000  C
  C21      1.0000 0.20620  0.21170  0.68310  Biso   1.000  C
  H13      1.0000 0.29420  0.30600  0.67140  Biso   1.000  H
  C22      1.0000 0.04480  0.15920  0.62750  Biso   1.000  C
  C23      1.0000 0.91550  0.01850  0.64400  Biso   1.000  C
  H14      1.0000 0.80630  0.97990  0.60700  Biso   1.000  H
  C24      1.0000 0.94960  0.93530  0.71600  Biso   1.000  C
  H15      1.0000 0.86380  0.84020  0.72860  Biso   1.000  H
  C25      1.0000 0.11150  0.99490  0.76880  Biso   1.000  C
  H16      1.0000 0.13340  0.93830  0.81750  Biso   1.000  H
  C26      1.0000 0.01650  0.25810  0.55260  Biso   1.000  C
  C27      1.0000 0.51320  0.03330  0.56970  Biso   1.000  C
  C28      1.0000 0.46430  0.45700  0.43090  Biso   1.000  C
  O16      1.0000 0.45980  0.92740  0.62634  Biso   1.000  O
