data_image0
_cell_length_a       14.958
_cell_length_b       14.958
_cell_length_c       9.05
_cell_angle_alpha    90
_cell_angle_beta     90
_cell_angle_gamma    90

_symmetry_space_group_name_H-M    "P 1"
_symmetry_int_tables_number       1

loop_
  _symmetry_equiv_pos_as_xyz
  'x, y, z'

loop_
  _atom_site_label
  _atom_site_occupancy
  _atom_site_fract_x
  _atom_site_fract_y
  _atom_site_fract_z
  _atom_site_thermal_displace_type
  _atom_site_B_iso_or_equiv
  _atom_site_type_symbol
  Mn1      1.0000 0.50589  0.36823  0.57369  Biso   1.000  Mn
  Mn2      1.0000 0.62836  0.00618  0.37762  Biso   1.000  Mn
  Mn3      1.0000 0.98546  0.12389  0.55507  Biso   1.000  Mn
  Mn4      1.0000 0.12751  0.51370  0.38196  Biso   1.000  Mn
  P1       1.0000 0.34618  0.48575  0.43652  Biso   1.000  P
  P2       1.0000 0.49504  0.15023  0.51818  Biso   1.000  P
  P3       1.0000 0.84789  0.99793  0.41957  Biso   1.000  P
  P4       1.0000 0.65514  0.01171  0.01161  Biso   1.000  P
  O1       1.0000 0.38050  0.41410  0.54480  Biso   1.000  O
  O2       1.0000 0.40070  0.57060  0.45120  Biso   1.000  O
  O3       1.0000 0.35260  0.44710  0.28210  Biso   1.000  O
  O4       1.0000 0.24940  0.50620  0.47750  Biso   1.000  O
  O5       1.0000 0.50960  0.24690  0.46670  Biso   1.000  O
  O6       1.0000 0.58580  0.10370  0.51880  Biso   1.000  O
  O7       1.0000 0.45100  0.14740  0.66980  Biso   1.000  O
  O8       1.0000 0.43380  0.11060  0.40070  Biso   1.000  O
  O9       1.0000 0.75070  0.99040  0.47140  Biso   1.000  O
  O10      1.0000 0.87440  0.09680  0.41910  Biso   1.000  O
  O11      1.0000 0.85880  0.95270  0.27000  Biso   1.000  O
  O12      1.0000 0.90430  0.95170  0.53740  Biso   1.000  O
  O13      1.0000 0.64240  0.04800  0.16730  Biso   1.000  O
  O14      1.0000 0.60580  0.06980  0.90160  Biso   1.000  O
  O15      1.0000 0.75370  0.01880  0.96440  Biso   1.000  O
  O16      1.0000 0.62460  0.91480  0.99740  Biso   1.000  O
  Mn5      1.0000 0.49411  0.63177  0.57369  Biso   1.000  Mn
  Mn6      1.0000 0.37164  0.99382  0.37762  Biso   1.000  Mn
  Mn7      1.0000 0.01454  0.87611  0.55507  Biso   1.000  Mn
  Mn8      1.0000 0.87249  0.48630  0.38196  Biso   1.000  Mn
  P5       1.0000 0.65382  0.51425  0.43652  Biso   1.000  P
  P6       1.0000 0.50496  0.84977  0.51818  Biso   1.000  P
  P7       1.0000 0.15211  0.00207  0.41957  Biso   1.000  P
  P8       1.0000 0.34486  0.98829  0.01161  Biso   1.000  P
  O17      1.0000 0.61950  0.58590  0.54480  Biso   1.000  O
  O18      1.0000 0.59930  0.42940  0.45120  Biso   1.000  O
  O19      1.0000 0.64740  0.55290  0.28210  Biso   1.000  O
  O20      1.0000 0.75060  0.49380  0.47750  Biso   1.000  O
  O21      1.0000 0.49040  0.75310  0.46670  Biso   1.000  O
  O22      1.0000 0.41420  0.89630  0.51880  Biso   1.000  O
  O23      1.0000 0.54900  0.85260  0.66980  Biso   1.000  O
  O24      1.0000 0.56620  0.88940  0.40070  Biso   1.000  O
  O25      1.0000 0.24930  0.00960  0.47140  Biso   1.000  O
  O26      1.0000 0.12560  0.90320  0.41910  Biso   1.000  O
  O27      1.0000 0.14120  0.04730  0.27000  Biso   1.000  O
  O28      1.0000 0.09570  0.04830  0.53740  Biso   1.000  O
  O29      1.0000 0.35760  0.95200  0.16730  Biso   1.000  O
  O30      1.0000 0.39420  0.93020  0.90160  Biso   1.000  O
  O31      1.0000 0.24630  0.98120  0.96440  Biso   1.000  O
  O32      1.0000 0.37540  0.08520  0.99740  Biso   1.000  O
  Mn9      1.0000 0.63177  0.50589  0.07369  Biso   1.000  Mn
  Mn10     1.0000 0.99382  0.62836  0.87762  Biso   1.000  Mn
  Mn11     1.0000 0.87611  0.98546  0.05507  Biso   1.000  Mn
  Mn12     1.0000 0.48630  0.12751  0.88196  Biso   1.000  Mn
  P9       1.0000 0.51425  0.34618  0.93652  Biso   1.000  P
  P10      1.0000 0.84977  0.49504  0.01818  Biso   1.000  P
  P11      1.0000 0.00207  0.84789  0.91957  Biso   1.000  P
  P12      1.0000 0.98829  0.65514  0.51161  Biso   1.000  P
  O33      1.0000 0.58590  0.38050  0.04480  Biso   1.000  O
  O34      1.0000 0.42940  0.40070  0.95120  Biso   1.000  O
  O35      1.0000 0.55290  0.35260  0.78210  Biso   1.000  O
  O36      1.0000 0.49380  0.24940  0.97750  Biso   1.000  O
  O37      1.0000 0.75310  0.50960  0.96670  Biso   1.000  O
  O38      1.0000 0.89630  0.58580  0.01880  Biso   1.000  O
  O39      1.0000 0.85260  0.45100  0.16980  Biso   1.000  O
  O40      1.0000 0.88940  0.43380  0.90070  Biso   1.000  O
  O41      1.0000 0.00960  0.75070  0.97140  Biso   1.000  O
  O42      1.0000 0.90320  0.87440  0.91910  Biso   1.000  O
  O43      1.0000 0.04730  0.85880  0.77000  Biso   1.000  O
  O44      1.0000 0.04830  0.90430  0.03740  Biso   1.000  O
  O45      1.0000 0.95200  0.64240  0.66730  Biso   1.000  O
  O46      1.0000 0.93020  0.60580  0.40160  Biso   1.000  O
  O47      1.0000 0.98120  0.75370  0.46440  Biso   1.000  O
  O48      1.0000 0.08520  0.62460  0.49740  Biso   1.000  O
  Mn13     1.0000 0.36823  0.49411  0.07369  Biso   1.000  Mn
  Mn14     1.0000 0.00618  0.37164  0.87762  Biso   1.000  Mn
  Mn15     1.0000 0.12389  0.01454  0.05507  Biso   1.000  Mn
  Mn16     1.0000 0.51370  0.87249  0.88196  Biso   1.000  Mn
  P13      1.0000 0.48575  0.65382  0.93652  Biso   1.000  P
  P14      1.0000 0.15023  0.50496  0.01818  Biso   1.000  P
  P15      1.0000 0.99793  0.15211  0.91957  Biso   1.000  P
  P16      1.0000 0.01171  0.34486  0.51161  Biso   1.000  P
  O49      1.0000 0.41410  0.61950  0.04480  Biso   1.000  O
  O50      1.0000 0.57060  0.59930  0.95120  Biso   1.000  O
  O51      1.0000 0.44710  0.64740  0.78210  Biso   1.000  O
  O52      1.0000 0.50620  0.75060  0.97750  Biso   1.000  O
  O53      1.0000 0.24690  0.49040  0.96670  Biso   1.000  O
  O54      1.0000 0.10370  0.41420  0.01880  Biso   1.000  O
  O55      1.0000 0.14740  0.54900  0.16980  Biso   1.000  O
  O56      1.0000 0.11060  0.56620  0.90070  Biso   1.000  O
  O57      1.0000 0.99040  0.24930  0.97140  Biso   1.000  O
  O58      1.0000 0.09680  0.12560  0.91910  Biso   1.000  O
  O59      1.0000 0.95270  0.14120  0.77000  Biso   1.000  O
  O60      1.0000 0.95170  0.09570  0.03740  Biso   1.000  O
  O61      1.0000 0.04800  0.35760  0.66730  Biso   1.000  O
  O62      1.0000 0.06980  0.39420  0.40160  Biso   1.000  O
  O63      1.0000 0.01880  0.24630  0.46440  Biso   1.000  O
  O64      1.0000 0.91480  0.37540  0.49740  Biso   1.000  O
