data_image0
_cell_length_a       12.866
_cell_length_b       12.776
_cell_length_c       16.802
_cell_angle_alpha    90
_cell_angle_beta     105.303
_cell_angle_gamma    90

_symmetry_space_group_name_H-M    "P 1"
_symmetry_int_tables_number       1

loop_
  _symmetry_equiv_pos_as_xyz
  'x, y, z'

loop_
  _atom_site_label
  _atom_site_occupancy
  _atom_site_fract_x
  _atom_site_fract_y
  _atom_site_fract_z
  _atom_site_thermal_displace_type
  _atom_site_B_iso_or_equiv
  _atom_site_type_symbol
  Ag1      1.0000 0.08520  0.65692  0.90537  Biso   1.000  Ag
  Ag2      1.0000 0.14402  0.38866  0.02428  Biso   1.000  Ag
  N1       1.0000 0.28190  0.24670  0.63670  Biso   1.000  N
  N2       1.0000 0.17360  0.24330  0.59530  Biso   1.000  N
  N3       1.0000 0.19180  0.32750  0.70980  Biso   1.000  N
  N4       1.0000 0.16760  0.37690  0.77600  Biso   1.000  N
  N5       1.0000 0.13050  0.39940  0.89240  Biso   1.000  N
  N6       1.0000 0.13100  0.49690  0.85530  Biso   1.000  N
  N7       1.0000 0.42340  0.78020  0.33010  Biso   1.000  N
  N8       1.0000 0.33400  0.79820  0.35960  Biso   1.000  N
  N9       1.0000 0.28080  0.71970  0.24310  Biso   1.000  N
  N10      1.0000 0.21500  0.67490  0.17250  Biso   1.000  N
  N11      1.0000 0.12480  0.65280  0.04570  Biso   1.000  N
  N12      1.0000 0.13290  0.55640  0.08740  Biso   1.000  N
  C1       1.0000 0.15430  0.48080  0.78540  Biso   1.000  C
  H1       1.0000 0.16080  0.53240  0.74800  Biso   1.000  H
  C2       1.0000 0.15310  0.32870  0.84350  Biso   1.000  C
  H2       1.0000 0.15820  0.25710  0.85350  Biso   1.000  H
  C3       1.0000 0.28970  0.29800  0.70580  Biso   1.000  C
  H3       1.0000 0.35360  0.31150  0.74570  Biso   1.000  H
  C4       1.0000 0.12060  0.29230  0.63950  Biso   1.000  C
  H4       1.0000 0.04630  0.30190  0.62570  Biso   1.000  H
  C5       1.0000 0.38750  0.73410  0.25870  Biso   1.000  C
  H5       1.0000 0.42950  0.71430  0.22390  Biso   1.000  H
  C6       1.0000 0.24990  0.76210  0.30690  Biso   1.000  C
  H6       1.0000 0.17970  0.76480  0.31190  Biso   1.000  H
  C7       1.0000 0.17460  0.72110  0.09830  Biso   1.000  C
  H7       1.0000 0.18180  0.79160  0.08700  Biso   1.000  H
  C8       1.0000 0.18660  0.57280  0.16190  Biso   1.000  C
  H8       1.0000 0.20360  0.52200  0.20290  Biso   1.000  H
  Ag3      1.0000 0.41480  0.15692  0.59463  Biso   1.000  Ag
  Ag4      1.0000 0.35598  0.88866  0.47572  Biso   1.000  Ag
  N13      1.0000 0.21810  0.74670  0.86330  Biso   1.000  N
  N14      1.0000 0.32640  0.74330  0.90470  Biso   1.000  N
  N15      1.0000 0.30820  0.82750  0.79020  Biso   1.000  N
  N16      1.0000 0.33240  0.87690  0.72400  Biso   1.000  N
  N17      1.0000 0.36950  0.89940  0.60760  Biso   1.000  N
  N18      1.0000 0.36900  0.99690  0.64470  Biso   1.000  N
  N19      1.0000 0.07660  0.28020  0.16990  Biso   1.000  N
  N20      1.0000 0.16600  0.29820  0.14040  Biso   1.000  N
  N21      1.0000 0.21920  0.21970  0.25690  Biso   1.000  N
  N22      1.0000 0.28500  0.17490  0.32750  Biso   1.000  N
  N23      1.0000 0.37520  0.15280  0.45430  Biso   1.000  N
  N24      1.0000 0.36710  0.05640  0.41260  Biso   1.000  N
  C9       1.0000 0.34570  0.98080  0.71460  Biso   1.000  C
  H9       1.0000 0.33920  0.03240  0.75200  Biso   1.000  H
  C10      1.0000 0.34690  0.82870  0.65650  Biso   1.000  C
  H10      1.0000 0.34180  0.75710  0.64650  Biso   1.000  H
  C11      1.0000 0.21030  0.79800  0.79420  Biso   1.000  C
  H11      1.0000 0.14640  0.81150  0.75430  Biso   1.000  H
  C12      1.0000 0.37940  0.79230  0.86050  Biso   1.000  C
  H12      1.0000 0.45370  0.80190  0.87430  Biso   1.000  H
  C13      1.0000 0.11250  0.23410  0.24130  Biso   1.000  C
  H13      1.0000 0.07050  0.21430  0.27610  Biso   1.000  H
  C14      1.0000 0.25010  0.26210  0.19310  Biso   1.000  C
  H14      1.0000 0.32030  0.26480  0.18810  Biso   1.000  H
  C15      1.0000 0.32540  0.22110  0.40170  Biso   1.000  C
  H15      1.0000 0.31820  0.29160  0.41300  Biso   1.000  H
  C16      1.0000 0.31340  0.07280  0.33810  Biso   1.000  C
  H16      1.0000 0.29640  0.02200  0.29710  Biso   1.000  H
  Ag5      1.0000 0.91480  0.34308  0.09463  Biso   1.000  Ag
  Ag6      1.0000 0.85598  0.61134  0.97572  Biso   1.000  Ag
  N25      1.0000 0.71810  0.75330  0.36330  Biso   1.000  N
  N26      1.0000 0.82640  0.75670  0.40470  Biso   1.000  N
  N27      1.0000 0.80820  0.67250  0.29020  Biso   1.000  N
  N28      1.0000 0.83240  0.62310  0.22400  Biso   1.000  N
  N29      1.0000 0.86950  0.60060  0.10760  Biso   1.000  N
  N30      1.0000 0.86900  0.50310  0.14470  Biso   1.000  N
  N31      1.0000 0.57660  0.21980  0.66990  Biso   1.000  N
  N32      1.0000 0.66600  0.20180  0.64040  Biso   1.000  N
  N33      1.0000 0.71920  0.28030  0.75690  Biso   1.000  N
  N34      1.0000 0.78500  0.32510  0.82750  Biso   1.000  N
  N35      1.0000 0.87520  0.34720  0.95430  Biso   1.000  N
  N36      1.0000 0.86710  0.44360  0.91260  Biso   1.000  N
  C17      1.0000 0.84570  0.51920  0.21460  Biso   1.000  C
  H17      1.0000 0.83920  0.46760  0.25200  Biso   1.000  H
  C18      1.0000 0.84690  0.67130  0.15650  Biso   1.000  C
  H18      1.0000 0.84180  0.74290  0.14650  Biso   1.000  H
  C19      1.0000 0.71030  0.70200  0.29420  Biso   1.000  C
  H19      1.0000 0.64640  0.68850  0.25430  Biso   1.000  H
  C20      1.0000 0.87940  0.70770  0.36050  Biso   1.000  C
  H20      1.0000 0.95370  0.69810  0.37430  Biso   1.000  H
  C21      1.0000 0.61250  0.26590  0.74130  Biso   1.000  C
  H21      1.0000 0.57050  0.28570  0.77610  Biso   1.000  H
  C22      1.0000 0.75010  0.23790  0.69310  Biso   1.000  C
  H22      1.0000 0.82030  0.23520  0.68810  Biso   1.000  H
  C23      1.0000 0.82540  0.27890  0.90170  Biso   1.000  C
  H23      1.0000 0.81820  0.20840  0.91300  Biso   1.000  H
  C24      1.0000 0.81340  0.42720  0.83810  Biso   1.000  C
  H24      1.0000 0.79640  0.47800  0.79710  Biso   1.000  H
  Ag7      1.0000 0.58520  0.84308  0.40537  Biso   1.000  Ag
  Ag8      1.0000 0.64402  0.11134  0.52428  Biso   1.000  Ag
  N37      1.0000 0.78190  0.25330  0.13670  Biso   1.000  N
  N38      1.0000 0.67360  0.25670  0.09530  Biso   1.000  N
  N39      1.0000 0.69180  0.17250  0.20980  Biso   1.000  N
  N40      1.0000 0.66760  0.12310  0.27600  Biso   1.000  N
  N41      1.0000 0.63050  0.10060  0.39240  Biso   1.000  N
  N42      1.0000 0.63100  0.00310  0.35530  Biso   1.000  N
  N43      1.0000 0.92340  0.71980  0.83010  Biso   1.000  N
  N44      1.0000 0.83400  0.70180  0.85960  Biso   1.000  N
  N45      1.0000 0.78080  0.78030  0.74310  Biso   1.000  N
  N46      1.0000 0.71500  0.82510  0.67250  Biso   1.000  N
  N47      1.0000 0.62480  0.84720  0.54570  Biso   1.000  N
  N48      1.0000 0.63290  0.94360  0.58740  Biso   1.000  N
  C25      1.0000 0.65430  0.01920  0.28540  Biso   1.000  C
  H25      1.0000 0.66080  0.96760  0.24800  Biso   1.000  H
  C26      1.0000 0.65310  0.17130  0.34350  Biso   1.000  C
  H26      1.0000 0.65820  0.24290  0.35350  Biso   1.000  H
  C27      1.0000 0.78970  0.20200  0.20580  Biso   1.000  C
  H27      1.0000 0.85360  0.18850  0.24570  Biso   1.000  H
  C28      1.0000 0.62060  0.20770  0.13950  Biso   1.000  C
  H28      1.0000 0.54630  0.19810  0.12570  Biso   1.000  H
  C29      1.0000 0.88750  0.76590  0.75870  Biso   1.000  C
  H29      1.0000 0.92950  0.78570  0.72390  Biso   1.000  H
  C30      1.0000 0.74990  0.73790  0.80690  Biso   1.000  C
  H30      1.0000 0.67970  0.73520  0.81190  Biso   1.000  H
  C31      1.0000 0.67460  0.77890  0.59830  Biso   1.000  C
  H31      1.0000 0.68180  0.70840  0.58700  Biso   1.000  H
  C32      1.0000 0.68660  0.92720  0.66190  Biso   1.000  C
  H32      1.0000 0.70360  0.97800  0.70290  Biso   1.000  H
