data_image0
_cell_length_a       19.4778
_cell_length_b       13.9542
_cell_length_c       23.761
_cell_angle_alpha    90
_cell_angle_beta     104.444
_cell_angle_gamma    90

_symmetry_space_group_name_H-M    "P 1"
_symmetry_int_tables_number       1

loop_
  _symmetry_equiv_pos_as_xyz
  'x, y, z'

loop_
  _atom_site_label
  _atom_site_occupancy
  _atom_site_fract_x
  _atom_site_fract_y
  _atom_site_fract_z
  _atom_site_thermal_displace_type
  _atom_site_B_iso_or_equiv
  _atom_site_type_symbol
  Ba1      1.0000 0.68237  0.75179  0.27033  Biso   1.000  Ba
  Ba2      1.0000 0.83590  0.92812  0.19408  Biso   1.000  Ba
  Ba3      1.0000 0.68011  0.43885  0.31513  Biso   1.000  Ba
  Ba4      1.0000 0.46847  0.44796  0.36189  Biso   1.000  Ba
  Ba5      1.0000 0.15623  0.67145  0.18658  Biso   1.000  Ba
  Ba6      1.0000 0.97790  0.44319  0.37340  Biso   1.000  Ba
  C1       1.0000 0.74710  0.42590  0.51450  Biso   1.000  C
  C2       1.0000 0.68720  0.36820  0.49550  Biso   1.000  C
  C3       1.0000 0.68940  0.27300  0.51040  Biso   1.000  C
  H1       1.0000 0.64830  0.23620  0.50000  Biso   1.000  H
  C4       1.0000 0.75220  0.23130  0.54100  Biso   1.000  C
  H2       1.0000 0.75370  0.16670  0.55070  Biso   1.000  H
  C5       1.0000 0.81230  0.28650  0.55680  Biso   1.000  C
  H3       1.0000 0.85520  0.25770  0.57490  Biso   1.000  H
  C6       1.0000 0.81020  0.38280  0.54630  Biso   1.000  C
  C7       1.0000 0.74800  0.53170  0.50420  Biso   1.000  C
  C8       1.0000 0.78910  0.57170  0.46960  Biso   1.000  C
  C9       1.0000 0.79720  0.66960  0.46760  Biso   1.000  C
  H4       1.0000 0.82610  0.69530  0.44550  Biso   1.000  H
  C10      1.0000 0.76310  0.73030  0.49780  Biso   1.000  C
  H5       1.0000 0.76840  0.79630  0.49550  Biso   1.000  H
  C11      1.0000 0.72180  0.69310  0.53090  Biso   1.000  C
  H6       1.0000 0.69850  0.73380  0.55100  Biso   1.000  H
  C12      1.0000 0.71430  0.59490  0.53470  Biso   1.000  C
  C13      1.0000 0.61950  0.40000  0.45280  Biso   1.000  C
  C14      1.0000 0.87750  0.44000  0.57040  Biso   1.000  C
  C15      1.0000 0.82500  0.50890  0.43520  Biso   1.000  C
  C16      1.0000 0.67070  0.55870  0.57450  Biso   1.000  C
  C17      1.0000 0.41540  0.62620  0.19860  Biso   1.000  C
  C18      1.0000 0.48190  0.58750  0.19860  Biso   1.000  C
  C19      1.0000 0.49590  0.55490  0.14710  Biso   1.000  C
  H7       1.0000 0.54060  0.53060  0.14770  Biso   1.000  H
  C20      1.0000 0.44460  0.55810  0.09550  Biso   1.000  C
  H8       1.0000 0.45390  0.53500  0.06140  Biso   1.000  H
  C21      1.0000 0.37880  0.59630  0.09510  Biso   1.000  C
  H9       1.0000 0.34390  0.59800  0.06040  Biso   1.000  H
  C22      1.0000 0.36360  0.63190  0.14490  Biso   1.000  C
  C23      1.0000 0.40160  0.66390  0.25350  Biso   1.000  C
  C24      1.0000 0.43600  0.74740  0.27740  Biso   1.000  C
  C25      1.0000 0.42720  0.78110  0.33060  Biso   1.000  C
  H10      1.0000 0.45230  0.83460  0.34790  Biso   1.000  H
  C26      1.0000 0.38190  0.73570  0.35720  Biso   1.000  C
  H11      1.0000 0.37630  0.75870  0.39250  Biso   1.000  H
  C27      1.0000 0.34460  0.65680  0.33280  Biso   1.000  C
  H12      1.0000 0.31200  0.62880  0.35040  Biso   1.000  H
  C28      1.0000 0.35530  0.61760  0.28100  Biso   1.000  C
  C29      1.0000 0.54160  0.57960  0.25300  Biso   1.000  C
  C30      1.0000 0.29180  0.67470  0.14130  Biso   1.000  C
  C31      1.0000 0.48190  0.80220  0.24630  Biso   1.000  C
  C32      1.0000 0.31670  0.52680  0.25790  Biso   1.000  C
  C33      1.0000 0.89200  0.60570  0.19810  Biso   1.000  C
  C34      1.0000 0.82350  0.61200  0.15980  Biso   1.000  C
  C35      1.0000 0.80910  0.56090  0.10780  Biso   1.000  C
  H13      1.0000 0.76370  0.56270  0.08330  Biso   1.000  H
  C36      1.0000 0.86110  0.50720  0.09190  Biso   1.000  C
  H14      1.0000 0.85150  0.47640  0.05610  Biso   1.000  H
  C37      1.0000 0.92820  0.49980  0.13010  Biso   1.000  C
  H15      1.0000 0.96300  0.46330  0.11970  Biso   1.000  H
  C38      1.0000 0.94330  0.54570  0.18280  Biso   1.000  C
  C39      1.0000 0.91350  0.66200  0.25260  Biso   1.000  C
  C40      1.0000 0.96470  0.73460  0.25600  Biso   1.000  C
  C41      1.0000 0.99430  0.77930  0.30880  Biso   1.000  C
  H16      1.0000 0.03050  0.82380  0.31140  Biso   1.000  H
  C42      1.0000 0.97030  0.75820  0.35720  Biso   1.000  C
  H17      1.0000 0.99050  0.78800  0.39240  Biso   1.000  H
  C43      1.0000 0.91630  0.69280  0.35320  Biso   1.000  C
  H18      1.0000 0.89840  0.68120  0.38540  Biso   1.000  H
  C44      1.0000 0.88790  0.64350  0.30090  Biso   1.000  C
  C45      1.0000 0.76570  0.67360  0.17270  Biso   1.000  C
  C46      1.0000 0.01480  0.52470  0.22470  Biso   1.000  C
  C47      1.0000 0.98420  0.77190  0.20240  Biso   1.000  C
  C48      1.0000 0.83130  0.56730  0.29880  Biso   1.000  C
  O1       1.0000 0.62410  0.45630  0.41238  Biso   1.000  O
  O2       1.0000 0.56210  0.36570  0.45854  Biso   1.000  O
  O3       1.0000 0.93470  0.40850  0.56281  Biso   1.000  O
  O4       1.0000 0.87440  0.51380  0.59927  Biso   1.000  O
  O5       1.0000 0.88810  0.52660  0.43412  Biso   1.000  O
  O6       1.0000 0.78990  0.43860  0.40797  Biso   1.000  O
  O7       1.0000 0.60690  0.54360  0.55418  Biso   1.000  O
  O8       1.0000 0.70150  0.54960  0.62820  Biso   1.000  O
  O9       1.0000 0.52820  0.56670  0.30113  Biso   1.000  O
  O10      1.0000 0.60370  0.58510  0.24569  Biso   1.000  O
  O11      1.0000 0.23980  0.63040  0.11110  Biso   1.000  O
  O12      1.0000 0.28640  0.74900  0.16930  Biso   1.000  O
  O13      1.0000 0.45150  0.85380  0.20480  Biso   1.000  O
  O14      1.0000 0.54700  0.79450  0.26360  Biso   1.000  O
  O15      1.0000 0.35070  0.45190  0.25847  Biso   1.000  O
  O16      1.0000 0.24890  0.53300  0.24016  Biso   1.000  O
  O17      1.0000 0.78090  0.75230  0.19703  Biso   1.000  O
  O18      1.0000 0.70390  0.64030  0.15730  Biso   1.000  O
  O19      1.0000 0.06870  0.52300  0.20409  Biso   1.000  O
  O20      1.0000 0.01760  0.50540  0.27630  Biso   1.000  O
  O21      1.0000 0.04830  0.77610  0.20242  Biso   1.000  O
  O22      1.0000 0.93500  0.80340  0.16211  Biso   1.000  O
  O23      1.0000 0.84860  0.48200  0.29660  Biso   1.000  O
  O24      1.0000 0.77030  0.59630  0.30030  Biso   1.000  O
  O25      1.0000 0.41150  0.25940  0.35360  Biso   1.000  O
  H19      1.0000 0.38730  0.25060  0.37840  Biso   1.000  H
  H20      1.0000 0.44420  0.21760  0.35870  Biso   1.000  H
  O26      1.0000 0.14660  0.63960  0.30570  Biso   1.000  O
  H21      1.0000 0.17470  0.66290  0.32670  Biso   1.000  H
  H22      1.0000 0.10660  0.65630  0.31080  Biso   1.000  H
  O27      1.0000 0.11760  0.80330  0.09732  Biso   1.000  O
  H23      1.0000 0.14620  0.85040  0.10380  Biso   1.000  H
  H24      1.0000 0.11930  0.77650  0.06550  Biso   1.000  H
  Ba7      1.0000 0.31763  0.25179  0.22967  Biso   1.000  Ba
  Ba8      1.0000 0.16410  0.42812  0.30592  Biso   1.000  Ba
  Ba9      1.0000 0.31989  0.93885  0.18487  Biso   1.000  Ba
  Ba10     1.0000 0.53153  0.94796  0.13811  Biso   1.000  Ba
  Ba11     1.0000 0.84377  0.17145  0.31342  Biso   1.000  Ba
  Ba12     1.0000 0.02210  0.94319  0.12660  Biso   1.000  Ba
  C49      1.0000 0.25290  0.92590  0.98550  Biso   1.000  C
  C50      1.0000 0.31280  0.86820  0.00450  Biso   1.000  C
  C51      1.0000 0.31060  0.77300  0.98960  Biso   1.000  C
  H25      1.0000 0.35170  0.73620  0.00000  Biso   1.000  H
  C52      1.0000 0.24780  0.73130  0.95900  Biso   1.000  C
  H26      1.0000 0.24630  0.66670  0.94930  Biso   1.000  H
  C53      1.0000 0.18770  0.78650  0.94320  Biso   1.000  C
  H27      1.0000 0.14480  0.75770  0.92510  Biso   1.000  H
  C54      1.0000 0.18980  0.88280  0.95370  Biso   1.000  C
  C55      1.0000 0.25200  0.03170  0.99580  Biso   1.000  C
  C56      1.0000 0.21090  0.07170  0.03040  Biso   1.000  C
  C57      1.0000 0.20280  0.16960  0.03240  Biso   1.000  C
  H28      1.0000 0.17390  0.19530  0.05450  Biso   1.000  H
  C58      1.0000 0.23690  0.23030  0.00220  Biso   1.000  C
  H29      1.0000 0.23160  0.29630  0.00450  Biso   1.000  H
  C59      1.0000 0.27820  0.19310  0.96910  Biso   1.000  C
  H30      1.0000 0.30150  0.23380  0.94900  Biso   1.000  H
  C60      1.0000 0.28570  0.09490  0.96530  Biso   1.000  C
  C61      1.0000 0.38050  0.90000  0.04720  Biso   1.000  C
  C62      1.0000 0.12250  0.94000  0.92960  Biso   1.000  C
  C63      1.0000 0.17500  0.00890  0.06480  Biso   1.000  C
  C64      1.0000 0.32930  0.05870  0.92550  Biso   1.000  C
  C65      1.0000 0.58460  0.12620  0.30140  Biso   1.000  C
  C66      1.0000 0.51810  0.08750  0.30140  Biso   1.000  C
  C67      1.0000 0.50410  0.05490  0.35290  Biso   1.000  C
  H31      1.0000 0.45940  0.03060  0.35230  Biso   1.000  H
  C68      1.0000 0.55540  0.05810  0.40450  Biso   1.000  C
  H32      1.0000 0.54610  0.03500  0.43860  Biso   1.000  H
  C69      1.0000 0.62120  0.09630  0.40490  Biso   1.000  C
  H33      1.0000 0.65610  0.09800  0.43960  Biso   1.000  H
  C70      1.0000 0.63640  0.13190  0.35510  Biso   1.000  C
  C71      1.0000 0.59840  0.16390  0.24650  Biso   1.000  C
  C72      1.0000 0.56400  0.24740  0.22260  Biso   1.000  C
  C73      1.0000 0.57280  0.28110  0.16940  Biso   1.000  C
  H34      1.0000 0.54770  0.33460  0.15210  Biso   1.000  H
  C74      1.0000 0.61810  0.23570  0.14280  Biso   1.000  C
  H35      1.0000 0.62370  0.25870  0.10750  Biso   1.000  H
  C75      1.0000 0.65540  0.15680  0.16720  Biso   1.000  C
  H36      1.0000 0.68800  0.12880  0.14960  Biso   1.000  H
  C76      1.0000 0.64470  0.11760  0.21900  Biso   1.000  C
  C77      1.0000 0.45840  0.07960  0.24700  Biso   1.000  C
  C78      1.0000 0.70820  0.17470  0.35870  Biso   1.000  C
  C79      1.0000 0.51810  0.30220  0.25370  Biso   1.000  C
  C80      1.0000 0.68330  0.02680  0.24210  Biso   1.000  C
  C81      1.0000 0.10800  0.10570  0.30190  Biso   1.000  C
  C82      1.0000 0.17650  0.11200  0.34020  Biso   1.000  C
  C83      1.0000 0.19090  0.06090  0.39220  Biso   1.000  C
  H37      1.0000 0.23630  0.06270  0.41670  Biso   1.000  H
  C84      1.0000 0.13890  0.00720  0.40810  Biso   1.000  C
  H38      1.0000 0.14850  0.97640  0.44390  Biso   1.000  H
  C85      1.0000 0.07180  0.99980  0.36990  Biso   1.000  C
  H39      1.0000 0.03700  0.96330  0.38030  Biso   1.000  H
  C86      1.0000 0.05670  0.04570  0.31720  Biso   1.000  C
  C87      1.0000 0.08650  0.16200  0.24740  Biso   1.000  C
  C88      1.0000 0.03530  0.23460  0.24400  Biso   1.000  C
  C89      1.0000 0.00570  0.27930  0.19120  Biso   1.000  C
  H40      1.0000 0.96950  0.32380  0.18860  Biso   1.000  H
  C90      1.0000 0.02970  0.25820  0.14280  Biso   1.000  C
  H41      1.0000 0.00950  0.28800  0.10760  Biso   1.000  H
  C91      1.0000 0.08370  0.19280  0.14680  Biso   1.000  C
  H42      1.0000 0.10160  0.18120  0.11460  Biso   1.000  H
  C92      1.0000 0.11210  0.14350  0.19910  Biso   1.000  C
  C93      1.0000 0.23430  0.17360  0.32730  Biso   1.000  C
  C94      1.0000 0.98520  0.02470  0.27530  Biso   1.000  C
  C95      1.0000 0.01580  0.27190  0.29760  Biso   1.000  C
  C96      1.0000 0.16870  0.06730  0.20120  Biso   1.000  C
  O28      1.0000 0.37590  0.95630  0.08762  Biso   1.000  O
  O29      1.0000 0.43790  0.86570  0.04146  Biso   1.000  O
  O30      1.0000 0.06530  0.90850  0.93719  Biso   1.000  O
  O31      1.0000 0.12560  0.01380  0.90073  Biso   1.000  O
  O32      1.0000 0.11190  0.02660  0.06588  Biso   1.000  O
  O33      1.0000 0.21010  0.93860  0.09203  Biso   1.000  O
  O34      1.0000 0.39310  0.04360  0.94582  Biso   1.000  O
  O35      1.0000 0.29850  0.04960  0.87180  Biso   1.000  O
  O36      1.0000 0.47180  0.06670  0.19887  Biso   1.000  O
  O37      1.0000 0.39630  0.08510  0.25431  Biso   1.000  O
  O38      1.0000 0.76020  0.13040  0.38890  Biso   1.000  O
  O39      1.0000 0.71360  0.24900  0.33070  Biso   1.000  O
  O40      1.0000 0.54850  0.35380  0.29520  Biso   1.000  O
  O41      1.0000 0.45300  0.29450  0.23640  Biso   1.000  O
  O42      1.0000 0.64930  0.95190  0.24153  Biso   1.000  O
  O43      1.0000 0.75110  0.03300  0.25984  Biso   1.000  O
  O44      1.0000 0.21910  0.25230  0.30297  Biso   1.000  O
  O45      1.0000 0.29610  0.14030  0.34270  Biso   1.000  O
  O46      1.0000 0.93130  0.02300  0.29591  Biso   1.000  O
  O47      1.0000 0.98240  0.00540  0.22370  Biso   1.000  O
  O48      1.0000 0.95170  0.27610  0.29758  Biso   1.000  O
  O49      1.0000 0.06500  0.30340  0.33789  Biso   1.000  O
  O50      1.0000 0.15140  0.98200  0.20340  Biso   1.000  O
  O51      1.0000 0.22970  0.09630  0.19970  Biso   1.000  O
  O52      1.0000 0.58850  0.75940  0.14640  Biso   1.000  O
  H43      1.0000 0.61270  0.75060  0.12160  Biso   1.000  H
  H44      1.0000 0.55580  0.71760  0.14130  Biso   1.000  H
  O53      1.0000 0.85340  0.13960  0.19430  Biso   1.000  O
  H45      1.0000 0.82530  0.16290  0.17330  Biso   1.000  H
  H46      1.0000 0.89340  0.15630  0.18920  Biso   1.000  H
  O54      1.0000 0.88240  0.30330  0.40268  Biso   1.000  O
  H47      1.0000 0.85380  0.35040  0.39620  Biso   1.000  H
  H48      1.0000 0.88070  0.27650  0.43450  Biso   1.000  H
  Ba13     1.0000 0.31763  0.24821  0.72967  Biso   1.000  Ba
  Ba14     1.0000 0.16410  0.07188  0.80592  Biso   1.000  Ba
  Ba15     1.0000 0.31989  0.56115  0.68487  Biso   1.000  Ba
  Ba16     1.0000 0.53153  0.55204  0.63811  Biso   1.000  Ba
  Ba17     1.0000 0.84377  0.32855  0.81342  Biso   1.000  Ba
  Ba18     1.0000 0.02210  0.55681  0.62660  Biso   1.000  Ba
  C97      1.0000 0.25290  0.57410  0.48550  Biso   1.000  C
  C98      1.0000 0.31280  0.63180  0.50450  Biso   1.000  C
  C99      1.0000 0.31060  0.72700  0.48960  Biso   1.000  C
  H49      1.0000 0.35170  0.76380  0.50000  Biso   1.000  H
  C100     1.0000 0.24780  0.76870  0.45900  Biso   1.000  C
  H50      1.0000 0.24630  0.83330  0.44930  Biso   1.000  H
  C101     1.0000 0.18770  0.71350  0.44320  Biso   1.000  C
  H51      1.0000 0.14480  0.74230  0.42510  Biso   1.000  H
  C102     1.0000 0.18980  0.61720  0.45370  Biso   1.000  C
  C103     1.0000 0.25200  0.46830  0.49580  Biso   1.000  C
  C104     1.0000 0.21090  0.42830  0.53040  Biso   1.000  C
  C105     1.0000 0.20280  0.33040  0.53240  Biso   1.000  C
  H52      1.0000 0.17390  0.30470  0.55450  Biso   1.000  H
  C106     1.0000 0.23690  0.26970  0.50220  Biso   1.000  C
  H53      1.0000 0.23160  0.20370  0.50450  Biso   1.000  H
  C107     1.0000 0.27820  0.30690  0.46910  Biso   1.000  C
  H54      1.0000 0.30150  0.26620  0.44900  Biso   1.000  H
  C108     1.0000 0.28570  0.40510  0.46530  Biso   1.000  C
  C109     1.0000 0.38050  0.60000  0.54720  Biso   1.000  C
  C110     1.0000 0.12250  0.56000  0.42960  Biso   1.000  C
  C111     1.0000 0.17500  0.49110  0.56480  Biso   1.000  C
  C112     1.0000 0.32930  0.44130  0.42550  Biso   1.000  C
  C113     1.0000 0.58460  0.37380  0.80140  Biso   1.000  C
  C114     1.0000 0.51810  0.41250  0.80140  Biso   1.000  C
  C115     1.0000 0.50410  0.44510  0.85290  Biso   1.000  C
  H55      1.0000 0.45940  0.46940  0.85230  Biso   1.000  H
  C116     1.0000 0.55540  0.44190  0.90450  Biso   1.000  C
  H56      1.0000 0.54610  0.46500  0.93860  Biso   1.000  H
  C117     1.0000 0.62120  0.40370  0.90490  Biso   1.000  C
  H57      1.0000 0.65610  0.40200  0.93960  Biso   1.000  H
  C118     1.0000 0.63640  0.36810  0.85510  Biso   1.000  C
  C119     1.0000 0.59840  0.33610  0.74650  Biso   1.000  C
  C120     1.0000 0.56400  0.25260  0.72260  Biso   1.000  C
  C121     1.0000 0.57280  0.21890  0.66940  Biso   1.000  C
  H58      1.0000 0.54770  0.16540  0.65210  Biso   1.000  H
  C122     1.0000 0.61810  0.26430  0.64280  Biso   1.000  C
  H59      1.0000 0.62370  0.24130  0.60750  Biso   1.000  H
  C123     1.0000 0.65540  0.34320  0.66720  Biso   1.000  C
  H60      1.0000 0.68800  0.37120  0.64960  Biso   1.000  H
  C124     1.0000 0.64470  0.38240  0.71900  Biso   1.000  C
  C125     1.0000 0.45840  0.42040  0.74700  Biso   1.000  C
  C126     1.0000 0.70820  0.32530  0.85870  Biso   1.000  C
  C127     1.0000 0.51810  0.19780  0.75370  Biso   1.000  C
  C128     1.0000 0.68330  0.47320  0.74210  Biso   1.000  C
  C129     1.0000 0.10800  0.39430  0.80190  Biso   1.000  C
  C130     1.0000 0.17650  0.38800  0.84020  Biso   1.000  C
  C131     1.0000 0.19090  0.43910  0.89220  Biso   1.000  C
  H61      1.0000 0.23630  0.43730  0.91670  Biso   1.000  H
  C132     1.0000 0.13890  0.49280  0.90810  Biso   1.000  C
  H62      1.0000 0.14850  0.52360  0.94390  Biso   1.000  H
  C133     1.0000 0.07180  0.50020  0.86990  Biso   1.000  C
  H63      1.0000 0.03700  0.53670  0.88030  Biso   1.000  H
  C134     1.0000 0.05670  0.45430  0.81720  Biso   1.000  C
  C135     1.0000 0.08650  0.33800  0.74740  Biso   1.000  C
  C136     1.0000 0.03530  0.26540  0.74400  Biso   1.000  C
  C137     1.0000 0.00570  0.22070  0.69120  Biso   1.000  C
  H64      1.0000 0.96950  0.17620  0.68860  Biso   1.000  H
  C138     1.0000 0.02970  0.24180  0.64280  Biso   1.000  C
  H65      1.0000 0.00950  0.21200  0.60760  Biso   1.000  H
  C139     1.0000 0.08370  0.30720  0.64680  Biso   1.000  C
  H66      1.0000 0.10160  0.31880  0.61460  Biso   1.000  H
  C140     1.0000 0.11210  0.35650  0.69910  Biso   1.000  C
  C141     1.0000 0.23430  0.32640  0.82730  Biso   1.000  C
  C142     1.0000 0.98520  0.47530  0.77530  Biso   1.000  C
  C143     1.0000 0.01580  0.22810  0.79760  Biso   1.000  C
  C144     1.0000 0.16870  0.43270  0.70120  Biso   1.000  C
  O55      1.0000 0.37590  0.54370  0.58762  Biso   1.000  O
  O56      1.0000 0.43790  0.63430  0.54146  Biso   1.000  O
  O57      1.0000 0.06530  0.59150  0.43719  Biso   1.000  O
  O58      1.0000 0.12560  0.48620  0.40073  Biso   1.000  O
  O59      1.0000 0.11190  0.47340  0.56588  Biso   1.000  O
  O60      1.0000 0.21010  0.56140  0.59203  Biso   1.000  O
  O61      1.0000 0.39310  0.45640  0.44582  Biso   1.000  O
  O62      1.0000 0.29850  0.45040  0.37180  Biso   1.000  O
  O63      1.0000 0.47180  0.43330  0.69887  Biso   1.000  O
  O64      1.0000 0.39630  0.41490  0.75431  Biso   1.000  O
  O65      1.0000 0.76020  0.36960  0.88890  Biso   1.000  O
  O66      1.0000 0.71360  0.25100  0.83070  Biso   1.000  O
  O67      1.0000 0.54850  0.14620  0.79520  Biso   1.000  O
  O68      1.0000 0.45300  0.20550  0.73640  Biso   1.000  O
  O69      1.0000 0.64930  0.54810  0.74153  Biso   1.000  O
  O70      1.0000 0.75110  0.46700  0.75984  Biso   1.000  O
  O71      1.0000 0.21910  0.24770  0.80297  Biso   1.000  O
  O72      1.0000 0.29610  0.35970  0.84270  Biso   1.000  O
  O73      1.0000 0.93130  0.47700  0.79591  Biso   1.000  O
  O74      1.0000 0.98240  0.49460  0.72370  Biso   1.000  O
  O75      1.0000 0.95170  0.22390  0.79758  Biso   1.000  O
  O76      1.0000 0.06500  0.19660  0.83789  Biso   1.000  O
  O77      1.0000 0.15140  0.51800  0.70340  Biso   1.000  O
  O78      1.0000 0.22970  0.40370  0.69970  Biso   1.000  O
  O79      1.0000 0.58850  0.74060  0.64640  Biso   1.000  O
  H67      1.0000 0.61270  0.74940  0.62160  Biso   1.000  H
  H68      1.0000 0.55580  0.78240  0.64130  Biso   1.000  H
  O80      1.0000 0.85340  0.36040  0.69430  Biso   1.000  O
  H69      1.0000 0.82530  0.33710  0.67330  Biso   1.000  H
  H70      1.0000 0.89340  0.34370  0.68920  Biso   1.000  H
  O81      1.0000 0.88240  0.19670  0.90268  Biso   1.000  O
  H71      1.0000 0.85380  0.14960  0.89620  Biso   1.000  H
  H72      1.0000 0.88070  0.22350  0.93450  Biso   1.000  H
  Ba19     1.0000 0.68237  0.74821  0.77033  Biso   1.000  Ba
  Ba20     1.0000 0.83590  0.57188  0.69408  Biso   1.000  Ba
  Ba21     1.0000 0.68011  0.06115  0.81513  Biso   1.000  Ba
  Ba22     1.0000 0.46847  0.05204  0.86189  Biso   1.000  Ba
  Ba23     1.0000 0.15623  0.82855  0.68658  Biso   1.000  Ba
  Ba24     1.0000 0.97790  0.05681  0.87340  Biso   1.000  Ba
  C145     1.0000 0.74710  0.07410  0.01450  Biso   1.000  C
  C146     1.0000 0.68720  0.13180  0.99550  Biso   1.000  C
  C147     1.0000 0.68940  0.22700  0.01040  Biso   1.000  C
  H73      1.0000 0.64830  0.26380  0.00000  Biso   1.000  H
  C148     1.0000 0.75220  0.26870  0.04100  Biso   1.000  C
  H74      1.0000 0.75370  0.33330  0.05070  Biso   1.000  H
  C149     1.0000 0.81230  0.21350  0.05680  Biso   1.000  C
  H75      1.0000 0.85520  0.24230  0.07490  Biso   1.000  H
  C150     1.0000 0.81020  0.11720  0.04630  Biso   1.000  C
  C151     1.0000 0.74800  0.96830  0.00420  Biso   1.000  C
  C152     1.0000 0.78910  0.92830  0.96960  Biso   1.000  C
  C153     1.0000 0.79720  0.83040  0.96760  Biso   1.000  C
  H76      1.0000 0.82610  0.80470  0.94550  Biso   1.000  H
  C154     1.0000 0.76310  0.76970  0.99780  Biso   1.000  C
  H77      1.0000 0.76840  0.70370  0.99550  Biso   1.000  H
  C155     1.0000 0.72180  0.80690  0.03090  Biso   1.000  C
  H78      1.0000 0.69850  0.76620  0.05100  Biso   1.000  H
  C156     1.0000 0.71430  0.90510  0.03470  Biso   1.000  C
  C157     1.0000 0.61950  0.10000  0.95280  Biso   1.000  C
  C158     1.0000 0.87750  0.06000  0.07040  Biso   1.000  C
  C159     1.0000 0.82500  0.99110  0.93520  Biso   1.000  C
  C160     1.0000 0.67070  0.94130  0.07450  Biso   1.000  C
  C161     1.0000 0.41540  0.87380  0.69860  Biso   1.000  C
  C162     1.0000 0.48190  0.91250  0.69860  Biso   1.000  C
  C163     1.0000 0.49590  0.94510  0.64710  Biso   1.000  C
  H79      1.0000 0.54060  0.96940  0.64770  Biso   1.000  H
  C164     1.0000 0.44460  0.94190  0.59550  Biso   1.000  C
  H80      1.0000 0.45390  0.96500  0.56140  Biso   1.000  H
  C165     1.0000 0.37880  0.90370  0.59510  Biso   1.000  C
  H81      1.0000 0.34390  0.90200  0.56040  Biso   1.000  H
  C166     1.0000 0.36360  0.86810  0.64490  Biso   1.000  C
  C167     1.0000 0.40160  0.83610  0.75350  Biso   1.000  C
  C168     1.0000 0.43600  0.75260  0.77740  Biso   1.000  C
  C169     1.0000 0.42720  0.71890  0.83060  Biso   1.000  C
  H82      1.0000 0.45230  0.66540  0.84790  Biso   1.000  H
  C170     1.0000 0.38190  0.76430  0.85720  Biso   1.000  C
  H83      1.0000 0.37630  0.74130  0.89250  Biso   1.000  H
  C171     1.0000 0.34460  0.84320  0.83280  Biso   1.000  C
  H84      1.0000 0.31200  0.87120  0.85040  Biso   1.000  H
  C172     1.0000 0.35530  0.88240  0.78100  Biso   1.000  C
  C173     1.0000 0.54160  0.92040  0.75300  Biso   1.000  C
  C174     1.0000 0.29180  0.82530  0.64130  Biso   1.000  C
  C175     1.0000 0.48190  0.69780  0.74630  Biso   1.000  C
  C176     1.0000 0.31670  0.97320  0.75790  Biso   1.000  C
  C177     1.0000 0.89200  0.89430  0.69810  Biso   1.000  C
  C178     1.0000 0.82350  0.88800  0.65980  Biso   1.000  C
  C179     1.0000 0.80910  0.93910  0.60780  Biso   1.000  C
  H85      1.0000 0.76370  0.93730  0.58330  Biso   1.000  H
  C180     1.0000 0.86110  0.99280  0.59190  Biso   1.000  C
  H86      1.0000 0.85150  0.02360  0.55610  Biso   1.000  H
  C181     1.0000 0.92820  0.00020  0.63010  Biso   1.000  C
  H87      1.0000 0.96300  0.03670  0.61970  Biso   1.000  H
  C182     1.0000 0.94330  0.95430  0.68280  Biso   1.000  C
  C183     1.0000 0.91350  0.83800  0.75260  Biso   1.000  C
  C184     1.0000 0.96470  0.76540  0.75600  Biso   1.000  C
  C185     1.0000 0.99430  0.72070  0.80880  Biso   1.000  C
  H88      1.0000 0.03050  0.67620  0.81140  Biso   1.000  H
  C186     1.0000 0.97030  0.74180  0.85720  Biso   1.000  C
  H89      1.0000 0.99050  0.71200  0.89240  Biso   1.000  H
  C187     1.0000 0.91630  0.80720  0.85320  Biso   1.000  C
  H90      1.0000 0.89840  0.81880  0.88540  Biso   1.000  H
  C188     1.0000 0.88790  0.85650  0.80090  Biso   1.000  C
  C189     1.0000 0.76570  0.82640  0.67270  Biso   1.000  C
  C190     1.0000 0.01480  0.97530  0.72470  Biso   1.000  C
  C191     1.0000 0.98420  0.72810  0.70240  Biso   1.000  C
  C192     1.0000 0.83130  0.93270  0.79880  Biso   1.000  C
  O82      1.0000 0.62410  0.04370  0.91238  Biso   1.000  O
  O83      1.0000 0.56210  0.13430  0.95854  Biso   1.000  O
  O84      1.0000 0.93470  0.09150  0.06281  Biso   1.000  O
  O85      1.0000 0.87440  0.98620  0.09927  Biso   1.000  O
  O86      1.0000 0.88810  0.97340  0.93412  Biso   1.000  O
  O87      1.0000 0.78990  0.06140  0.90797  Biso   1.000  O
  O88      1.0000 0.60690  0.95640  0.05418  Biso   1.000  O
  O89      1.0000 0.70150  0.95040  0.12820  Biso   1.000  O
  O90      1.0000 0.52820  0.93330  0.80113  Biso   1.000  O
  O91      1.0000 0.60370  0.91490  0.74569  Biso   1.000  O
  O92      1.0000 0.23980  0.86960  0.61110  Biso   1.000  O
  O93      1.0000 0.28640  0.75100  0.66930  Biso   1.000  O
  O94      1.0000 0.45150  0.64620  0.70480  Biso   1.000  O
  O95      1.0000 0.54700  0.70550  0.76360  Biso   1.000  O
  O96      1.0000 0.35070  0.04810  0.75847  Biso   1.000  O
  O97      1.0000 0.24890  0.96700  0.74016  Biso   1.000  O
  O98      1.0000 0.78090  0.74770  0.69703  Biso   1.000  O
  O99      1.0000 0.70390  0.85970  0.65730  Biso   1.000  O
  O100     1.0000 0.06870  0.97700  0.70409  Biso   1.000  O
  O101     1.0000 0.01760  0.99460  0.77630  Biso   1.000  O
  O102     1.0000 0.04830  0.72390  0.70242  Biso   1.000  O
  O103     1.0000 0.93500  0.69660  0.66211  Biso   1.000  O
  O104     1.0000 0.84860  0.01800  0.79660  Biso   1.000  O
  O105     1.0000 0.77030  0.90370  0.80030  Biso   1.000  O
  O106     1.0000 0.41150  0.24060  0.85360  Biso   1.000  O
  H91      1.0000 0.38730  0.24940  0.87840  Biso   1.000  H
  H92      1.0000 0.44420  0.28240  0.85870  Biso   1.000  H
  O107     1.0000 0.14660  0.86040  0.80570  Biso   1.000  O
  H93      1.0000 0.17470  0.83710  0.82670  Biso   1.000  H
  H94      1.0000 0.10660  0.84370  0.81080  Biso   1.000  H
  O108     1.0000 0.11760  0.69670  0.59732  Biso   1.000  O
  H95      1.0000 0.14620  0.64960  0.60380  Biso   1.000  H
  H96      1.0000 0.11930  0.72350  0.56550  Biso   1.000  H
