data_image0
_cell_length_a       12.4736
_cell_length_b       12.4736
_cell_length_c       70.2884
_cell_angle_alpha    90
_cell_angle_beta     90
_cell_angle_gamma    90

_symmetry_space_group_name_H-M    "P 1"
_symmetry_int_tables_number       1

loop_
  _symmetry_equiv_pos_as_xyz
  'x, y, z'

loop_
  _atom_site_label
  _atom_site_occupancy
  _atom_site_fract_x
  _atom_site_fract_y
  _atom_site_fract_z
  _atom_site_thermal_displace_type
  _atom_site_B_iso_or_equiv
  _atom_site_type_symbol
  Cu1      1.0000 0.31190  0.42238  0.11676  Biso   1.000  Cu
  Cu2      1.0000 0.38252  0.36155  0.08271  Biso   1.000  Cu
  Cu3      1.0000 0.96480  0.33602  0.99928  Biso   1.000  Cu
  Cu4      1.0000 0.76736  0.38250  0.00471  Biso   1.000  Cu
  O1       1.0000 0.22790  0.33710  0.07828  Biso   1.000  O
  O2       1.0000 0.39800  0.22180  0.09453  Biso   1.000  O
  O3       1.0000 0.30140  0.56070  0.10222  Biso   1.000  O
  O4       1.0000 0.45390  0.46490  0.12404  Biso   1.000  O
  O5       1.0000 0.17090  0.37980  0.10762  Biso   1.000  O
  O6       1.0000 0.34950  0.27400  0.12381  Biso   1.000  O
  O7       1.0000 0.36360  0.50690  0.07366  Biso   1.000  O
  O8       1.0000 0.25530  0.99300  0.10818  Biso   1.000  O
  O9       1.0000 0.51770  0.41160  0.09542  Biso   1.000  O
  C1       1.0000 0.33410  0.57860  0.08577  Biso   1.000  C
  C2       1.0000 0.15530  0.35480  0.09082  Biso   1.000  C
  C3       1.0000 0.33800  0.77360  0.09248  Biso   1.000  C
  H1       1.0000 0.32780  0.75780  0.10530  Biso   1.000  H
  N1       1.0000 0.43470  0.01680  0.10603  Biso   1.000  N
  C4       1.0000 0.95900  0.36870  0.09702  Biso   1.000  C
  H2       1.0000 0.97410  0.37400  0.10990  Biso   1.000  H
  C5       1.0000 0.89290  0.34910  0.03759  Biso   1.000  C
  C6       1.0000 0.35070  0.88050  0.08661  Biso   1.000  C
  C7       1.0000 0.36180  0.84490  0.03296  Biso   1.000  C
  C8       1.0000 0.34420  0.96780  0.10121  Biso   1.000  C
  C9       1.0000 0.35780  0.90490  0.06719  Biso   1.000  C
  H3       1.0000 0.36370  0.97550  0.06310  Biso   1.000  H
  C10      1.0000 0.34060  0.69210  0.07925  Biso   1.000  C
  C11      1.0000 0.52570  0.45840  0.11158  Biso   1.000  C
  C12      1.0000 0.85300  0.37820  0.09055  Biso   1.000  C
  O10      1.0000 0.79930  0.36600  0.03210  Biso   1.000  O
  O11      1.0000 0.96830  0.33000  0.02682  Biso   1.000  O
  C13      1.0000 0.04080  0.35150  0.08415  Biso   1.000  C
  C14      1.0000 0.02050  0.34100  0.06456  Biso   1.000  C
  H4       1.0000 0.07600  0.32880  0.05600  Biso   1.000  H
  N2       1.0000 0.71490  0.49360  0.10259  Biso   1.000  N
  C15      1.0000 0.38830  0.20860  0.11191  Biso   1.000  C
  C16      1.0000 0.76490  0.40440  0.10501  Biso   1.000  C
  C17      1.0000 0.34980  0.71540  0.06006  Biso   1.000  C
  H5       1.0000 0.35180  0.66040  0.05120  Biso   1.000  H
  O12      1.0000 0.75000  0.34260  0.11838  Biso   1.000  O
  O13      1.0000 0.75520  0.21730  0.00502  Biso   1.000  O
  O14      1.0000 0.37790  0.76640  0.02259  Biso   1.000  O
  C18      1.0000 0.91580  0.34940  0.05848  Biso   1.000  C
  O15      1.0000 0.35390  0.93920  0.02813  Biso   1.000  O
  C19      1.0000 0.83170  0.36900  0.07138  Biso   1.000  C
  H6       1.0000 0.76170  0.37580  0.06700  Biso   1.000  H
  C20      1.0000 0.62590  0.52100  0.11589  Biso   1.000  C
  H7       1.0000 0.64810  0.51020  0.12910  Biso   1.000  H
  C21      1.0000 0.35580  0.82090  0.05423  Biso   1.000  C
  O16      1.0000 0.93990  0.18540  0.99802  Biso   1.000  O
  C22      1.0000 0.55290  0.12280  0.12463  Biso   1.000  C
  H8       1.0000 0.56660  0.19720  0.12780  Biso   1.000  H
  H9       1.0000 0.57700  0.07750  0.13500  Biso   1.000  H
  C23      1.0000 0.43270  0.10390  0.12017  Biso   1.000  C
  H10      1.0000 0.39320  0.08250  0.13160  Biso   1.000  H
  C24      1.0000 0.54200  0.99810  0.09851  Biso   1.000  C
  H11      1.0000 0.54100  0.99620  0.08470  Biso   1.000  H
  H12      1.0000 0.57080  0.93090  0.10320  Biso   1.000  H
  O17      1.0000 0.49930  0.96420  0.99877  Biso   1.000  O
  C25      1.0000 0.73230  0.57870  0.08831  Biso   1.000  C
  H13      1.0000 0.72560  0.55190  0.07540  Biso   1.000  H
  H14      1.0000 0.80130  0.61350  0.08990  Biso   1.000  H
  C26      1.0000 0.60800  0.09130  0.10554  Biso   1.000  C
  H15      1.0000 0.68190  0.07020  0.10760  Biso   1.000  H
  H16      1.0000 0.60620  0.15030  0.09660  Biso   1.000  H
  C27      1.0000 0.70480  0.00670  0.99900  Biso   1.000  C
  C28      1.0000 0.60840  0.64050  0.11170  Biso   1.000  C
  H17      1.0000 0.53400  0.65970  0.11380  Biso   1.000  H
  H18      1.0000 0.65280  0.68400  0.12000  Biso   1.000  H
  C29      1.0000 0.68290  0.91560  0.99850  Biso   1.000  C
  C30      1.0000 0.63490  0.65580  0.09401  Biso   1.000  C
  H19      1.0000 0.65580  0.73000  0.09220  Biso   1.000  H
  H20      1.0000 0.57380  0.64120  0.08590  Biso   1.000  H
  C31      1.0000 0.54430  0.89150  0.99630  Biso   1.000  C
  C32      1.0000 0.81790  0.04310  0.99960  Biso   1.000  C
  C33      1.0000 0.84200  0.16410  0.00149  Biso   1.000  C
  O18      1.0000 0.53160  0.78720  0.99487  Biso   1.000  O
  C34      1.0000 0.88710  0.95760  0.99882  Biso   1.000  C
  C35      1.0000 0.76180  0.83440  0.99626  Biso   1.000  C
  Cu5      1.0000 0.68810  0.57762  0.61676  Biso   1.000  Cu
  Cu6      1.0000 0.61748  0.63845  0.58271  Biso   1.000  Cu
  Cu7      1.0000 0.03520  0.66398  0.49928  Biso   1.000  Cu
  Cu8      1.0000 0.23264  0.61750  0.50471  Biso   1.000  Cu
  O19      1.0000 0.77210  0.66290  0.57828  Biso   1.000  O
  O20      1.0000 0.60200  0.77820  0.59453  Biso   1.000  O
  O21      1.0000 0.69860  0.43930  0.60222  Biso   1.000  O
  O22      1.0000 0.54610  0.53510  0.62404  Biso   1.000  O
  O23      1.0000 0.82910  0.62020  0.60762  Biso   1.000  O
  O24      1.0000 0.65050  0.72600  0.62381  Biso   1.000  O
  O25      1.0000 0.63640  0.49310  0.57366  Biso   1.000  O
  O26      1.0000 0.74470  0.00700  0.60818  Biso   1.000  O
  O27      1.0000 0.48230  0.58840  0.59542  Biso   1.000  O
  C36      1.0000 0.66590  0.42140  0.58577  Biso   1.000  C
  C37      1.0000 0.84470  0.64520  0.59082  Biso   1.000  C
  C38      1.0000 0.66200  0.22640  0.59248  Biso   1.000  C
  H21      1.0000 0.67220  0.24220  0.60530  Biso   1.000  H
  N3       1.0000 0.56530  0.98320  0.60603  Biso   1.000  N
  C39      1.0000 0.04100  0.63130  0.59702  Biso   1.000  C
  H22      1.0000 0.02590  0.62600  0.60990  Biso   1.000  H
  C40      1.0000 0.10710  0.65090  0.53759  Biso   1.000  C
  C41      1.0000 0.64930  0.11950  0.58661  Biso   1.000  C
  C42      1.0000 0.63820  0.15510  0.53296  Biso   1.000  C
  C43      1.0000 0.65580  0.03220  0.60121  Biso   1.000  C
  C44      1.0000 0.64220  0.09510  0.56719  Biso   1.000  C
  H23      1.0000 0.63630  0.02450  0.56310  Biso   1.000  H
  C45      1.0000 0.65940  0.30790  0.57925  Biso   1.000  C
  C46      1.0000 0.47430  0.54160  0.61158  Biso   1.000  C
  C47      1.0000 0.14700  0.62180  0.59055  Biso   1.000  C
  O28      1.0000 0.20070  0.63400  0.53210  Biso   1.000  O
  O29      1.0000 0.03170  0.67000  0.52682  Biso   1.000  O
  C48      1.0000 0.95920  0.64850  0.58415  Biso   1.000  C
  C49      1.0000 0.97950  0.65900  0.56456  Biso   1.000  C
  H24      1.0000 0.92400  0.67120  0.55600  Biso   1.000  H
  N4       1.0000 0.28510  0.50640  0.60259  Biso   1.000  N
  C50      1.0000 0.61170  0.79140  0.61191  Biso   1.000  C
  C51      1.0000 0.23510  0.59560  0.60501  Biso   1.000  C
  C52      1.0000 0.65020  0.28460  0.56006  Biso   1.000  C
  H25      1.0000 0.64820  0.33960  0.55120  Biso   1.000  H
  O30      1.0000 0.25000  0.65740  0.61838  Biso   1.000  O
  O31      1.0000 0.24480  0.78270  0.50502  Biso   1.000  O
  O32      1.0000 0.62210  0.23360  0.52259  Biso   1.000  O
  C53      1.0000 0.08420  0.65060  0.55848  Biso   1.000  C
  O33      1.0000 0.64610  0.06080  0.52813  Biso   1.000  O
  C54      1.0000 0.16830  0.63100  0.57138  Biso   1.000  C
  H26      1.0000 0.23830  0.62420  0.56700  Biso   1.000  H
  C55      1.0000 0.37410  0.47900  0.61589  Biso   1.000  C
  H27      1.0000 0.35190  0.48980  0.62910  Biso   1.000  H
  C56      1.0000 0.64420  0.17910  0.55423  Biso   1.000  C
  O34      1.0000 0.06010  0.81460  0.49802  Biso   1.000  O
  C57      1.0000 0.44710  0.87720  0.62463  Biso   1.000  C
  H28      1.0000 0.43340  0.80280  0.62780  Biso   1.000  H
  H29      1.0000 0.42300  0.92250  0.63500  Biso   1.000  H
  C58      1.0000 0.56730  0.89610  0.62017  Biso   1.000  C
  H30      1.0000 0.60680  0.91750  0.63160  Biso   1.000  H
  C59      1.0000 0.45800  0.00190  0.59851  Biso   1.000  C
  H31      1.0000 0.45900  0.00380  0.58470  Biso   1.000  H
  H32      1.0000 0.42920  0.06910  0.60320  Biso   1.000  H
  O35      1.0000 0.50070  0.03580  0.49877  Biso   1.000  O
  C60      1.0000 0.26770  0.42130  0.58831  Biso   1.000  C
  H33      1.0000 0.27440  0.44810  0.57540  Biso   1.000  H
  H34      1.0000 0.19870  0.38650  0.58990  Biso   1.000  H
  C61      1.0000 0.39200  0.90870  0.60554  Biso   1.000  C
  H35      1.0000 0.31810  0.92980  0.60760  Biso   1.000  H
  H36      1.0000 0.39380  0.84970  0.59660  Biso   1.000  H
  C62      1.0000 0.29520  0.99330  0.49900  Biso   1.000  C
  C63      1.0000 0.39160  0.35950  0.61170  Biso   1.000  C
  H37      1.0000 0.46600  0.34030  0.61380  Biso   1.000  H
  H38      1.0000 0.34720  0.31600  0.62000  Biso   1.000  H
  C64      1.0000 0.31710  0.08440  0.49850  Biso   1.000  C
  C65      1.0000 0.36510  0.34420  0.59401  Biso   1.000  C
  H39      1.0000 0.34420  0.27000  0.59220  Biso   1.000  H
  H40      1.0000 0.42620  0.35880  0.58590  Biso   1.000  H
  C66      1.0000 0.45570  0.10850  0.49630  Biso   1.000  C
  C67      1.0000 0.18210  0.95690  0.49960  Biso   1.000  C
  C68      1.0000 0.15800  0.83590  0.50149  Biso   1.000  C
  O36      1.0000 0.46840  0.21280  0.49487  Biso   1.000  O
  C69      1.0000 0.11290  0.04240  0.49882  Biso   1.000  C
  C70      1.0000 0.23820  0.16560  0.49626  Biso   1.000  C
  Cu9      1.0000 0.07762  0.81190  0.36676  Biso   1.000  Cu
  Cu10     1.0000 0.13845  0.88252  0.33271  Biso   1.000  Cu
  Cu11     1.0000 0.16398  0.46480  0.24928  Biso   1.000  Cu
  Cu12     1.0000 0.11750  0.26736  0.25471  Biso   1.000  Cu
  O37      1.0000 0.16290  0.72790  0.32828  Biso   1.000  O
  O38      1.0000 0.27820  0.89800  0.34453  Biso   1.000  O
  O39      1.0000 0.93930  0.80140  0.35222  Biso   1.000  O
  O40      1.0000 0.03510  0.95390  0.37404  Biso   1.000  O
  O41      1.0000 0.12020  0.67090  0.35762  Biso   1.000  O
  O42      1.0000 0.22600  0.84950  0.37381  Biso   1.000  O
  O43      1.0000 0.99310  0.86360  0.32366  Biso   1.000  O
  O44      1.0000 0.50700  0.75530  0.35818  Biso   1.000  O
  O45      1.0000 0.08840  0.01770  0.34542  Biso   1.000  O
  C71      1.0000 0.92140  0.83410  0.33577  Biso   1.000  C
  C72      1.0000 0.14520  0.65530  0.34082  Biso   1.000  C
  C73      1.0000 0.72640  0.83800  0.34248  Biso   1.000  C
  H41      1.0000 0.74220  0.82780  0.35530  Biso   1.000  H
  N5       1.0000 0.48320  0.93470  0.35603  Biso   1.000  N
  C74      1.0000 0.13130  0.45900  0.34702  Biso   1.000  C
  H42      1.0000 0.12600  0.47410  0.35990  Biso   1.000  H
  C75      1.0000 0.15090  0.39290  0.28759  Biso   1.000  C
  C76      1.0000 0.61950  0.85070  0.33661  Biso   1.000  C
  C77      1.0000 0.65510  0.86180  0.28296  Biso   1.000  C
  C78      1.0000 0.53220  0.84420  0.35121  Biso   1.000  C
  C79      1.0000 0.59510  0.85780  0.31719  Biso   1.000  C
  H43      1.0000 0.52450  0.86370  0.31310  Biso   1.000  H
  C80      1.0000 0.80790  0.84060  0.32925  Biso   1.000  C
  C81      1.0000 0.04160  0.02570  0.36158  Biso   1.000  C
  C82      1.0000 0.12180  0.35300  0.34055  Biso   1.000  C
  O46      1.0000 0.13400  0.29930  0.28210  Biso   1.000  O
  O47      1.0000 0.17000  0.46830  0.27682  Biso   1.000  O
  C83      1.0000 0.14850  0.54080  0.33415  Biso   1.000  C
  C84      1.0000 0.15900  0.52050  0.31456  Biso   1.000  C
  H44      1.0000 0.17120  0.57600  0.30600  Biso   1.000  H
  N6       1.0000 0.00640  0.21490  0.35259  Biso   1.000  N
  C85      1.0000 0.29140  0.88830  0.36191  Biso   1.000  C
  C86      1.0000 0.09560  0.26490  0.35501  Biso   1.000  C
  C87      1.0000 0.78460  0.84980  0.31006  Biso   1.000  C
  H45      1.0000 0.83960  0.85180  0.30120  Biso   1.000  H
  O48      1.0000 0.15740  0.25000  0.36838  Biso   1.000  O
  O49      1.0000 0.28270  0.25520  0.25502  Biso   1.000  O
  O50      1.0000 0.73360  0.87790  0.27259  Biso   1.000  O
  C88      1.0000 0.15060  0.41580  0.30848  Biso   1.000  C
  O51      1.0000 0.56080  0.85390  0.27813  Biso   1.000  O
  C89      1.0000 0.13100  0.33170  0.32138  Biso   1.000  C
  H46      1.0000 0.12420  0.26170  0.31700  Biso   1.000  H
  C90      1.0000 0.97900  0.12590  0.36589  Biso   1.000  C
  H47      1.0000 0.98980  0.14810  0.37910  Biso   1.000  H
  C91      1.0000 0.67910  0.85580  0.30423  Biso   1.000  C
  O52      1.0000 0.31460  0.43990  0.24802  Biso   1.000  O
  C92      1.0000 0.37720  0.05290  0.37463  Biso   1.000  C
  H48      1.0000 0.30280  0.06660  0.37780  Biso   1.000  H
  H49      1.0000 0.42250  0.07700  0.38500  Biso   1.000  H
  C93      1.0000 0.39610  0.93270  0.37017  Biso   1.000  C
  H50      1.0000 0.41750  0.89320  0.38160  Biso   1.000  H
  C94      1.0000 0.50190  0.04200  0.34851  Biso   1.000  C
  H51      1.0000 0.50380  0.04100  0.33470  Biso   1.000  H
  H52      1.0000 0.56910  0.07080  0.35320  Biso   1.000  H
  O53      1.0000 0.53580  0.99930  0.24877  Biso   1.000  O
  C95      1.0000 0.92130  0.23230  0.33831  Biso   1.000  C
  H53      1.0000 0.94810  0.22560  0.32540  Biso   1.000  H
  H54      1.0000 0.88650  0.30130  0.33990  Biso   1.000  H
  C96      1.0000 0.40870  0.10800  0.35554  Biso   1.000  C
  H55      1.0000 0.42980  0.18190  0.35760  Biso   1.000  H
  H56      1.0000 0.34970  0.10620  0.34660  Biso   1.000  H
  C97      1.0000 0.49330  0.20480  0.24900  Biso   1.000  C
  C98      1.0000 0.85950  0.10840  0.36170  Biso   1.000  C
  H57      1.0000 0.84030  0.03400  0.36380  Biso   1.000  H
  H58      1.0000 0.81600  0.15280  0.37000  Biso   1.000  H
  C99      1.0000 0.58440  0.18290  0.24850  Biso   1.000  C
  C100     1.0000 0.84420  0.13490  0.34401  Biso   1.000  C
  H59      1.0000 0.77000  0.15580  0.34220  Biso   1.000  H
  H60      1.0000 0.85880  0.07380  0.33590  Biso   1.000  H
  C101     1.0000 0.60850  0.04430  0.24630  Biso   1.000  C
  C102     1.0000 0.45690  0.31790  0.24960  Biso   1.000  C
  C103     1.0000 0.33590  0.34200  0.25149  Biso   1.000  C
  O54      1.0000 0.71280  0.03160  0.24487  Biso   1.000  O
  C104     1.0000 0.54240  0.38710  0.24882  Biso   1.000  C
  C105     1.0000 0.66560  0.26180  0.24626  Biso   1.000  C
  Cu13     1.0000 0.92238  0.18810  0.86676  Biso   1.000  Cu
  Cu14     1.0000 0.86155  0.11748  0.83271  Biso   1.000  Cu
  Cu15     1.0000 0.83602  0.53520  0.74928  Biso   1.000  Cu
  Cu16     1.0000 0.88250  0.73264  0.75471  Biso   1.000  Cu
  O55      1.0000 0.83710  0.27210  0.82828  Biso   1.000  O
  O56      1.0000 0.72180  0.10200  0.84453  Biso   1.000  O
  O57      1.0000 0.06070  0.19860  0.85222  Biso   1.000  O
  O58      1.0000 0.96490  0.04610  0.87404  Biso   1.000  O
  O59      1.0000 0.87980  0.32910  0.85762  Biso   1.000  O
  O60      1.0000 0.77400  0.15050  0.87381  Biso   1.000  O
  O61      1.0000 0.00690  0.13640  0.82366  Biso   1.000  O
  O62      1.0000 0.49300  0.24470  0.85818  Biso   1.000  O
  O63      1.0000 0.91160  0.98230  0.84542  Biso   1.000  O
  C106     1.0000 0.07860  0.16590  0.83577  Biso   1.000  C
  C107     1.0000 0.85480  0.34470  0.84082  Biso   1.000  C
  C108     1.0000 0.27360  0.16200  0.84248  Biso   1.000  C
  H61      1.0000 0.25780  0.17220  0.85530  Biso   1.000  H
  N7       1.0000 0.51680  0.06530  0.85603  Biso   1.000  N
  C109     1.0000 0.86870  0.54100  0.84702  Biso   1.000  C
  H62      1.0000 0.87400  0.52590  0.85990  Biso   1.000  H
  C110     1.0000 0.84910  0.60710  0.78759  Biso   1.000  C
  C111     1.0000 0.38050  0.14930  0.83661  Biso   1.000  C
  C112     1.0000 0.34490  0.13820  0.78296  Biso   1.000  C
  C113     1.0000 0.46780  0.15580  0.85121  Biso   1.000  C
  C114     1.0000 0.40490  0.14220  0.81719  Biso   1.000  C
  H63      1.0000 0.47550  0.13630  0.81310  Biso   1.000  H
  C115     1.0000 0.19210  0.15940  0.82925  Biso   1.000  C
  C116     1.0000 0.95840  0.97430  0.86158  Biso   1.000  C
  C117     1.0000 0.87820  0.64700  0.84055  Biso   1.000  C
  O64      1.0000 0.86600  0.70070  0.78210  Biso   1.000  O
  O65      1.0000 0.83000  0.53170  0.77682  Biso   1.000  O
  C118     1.0000 0.85150  0.45920  0.83415  Biso   1.000  C
  C119     1.0000 0.84100  0.47950  0.81456  Biso   1.000  C
  H64      1.0000 0.82880  0.42400  0.80600  Biso   1.000  H
  N8       1.0000 0.99360  0.78510  0.85259  Biso   1.000  N
  C120     1.0000 0.70860  0.11170  0.86191  Biso   1.000  C
  C121     1.0000 0.90440  0.73510  0.85501  Biso   1.000  C
  C122     1.0000 0.21540  0.15020  0.81006  Biso   1.000  C
  H65      1.0000 0.16040  0.14820  0.80120  Biso   1.000  H
  O66      1.0000 0.84260  0.75000  0.86838  Biso   1.000  O
  O67      1.0000 0.71730  0.74480  0.75502  Biso   1.000  O
  O68      1.0000 0.26640  0.12210  0.77259  Biso   1.000  O
  C123     1.0000 0.84940  0.58420  0.80848  Biso   1.000  C
  O69      1.0000 0.43920  0.14610  0.77813  Biso   1.000  O
  C124     1.0000 0.86900  0.66830  0.82138  Biso   1.000  C
  H66      1.0000 0.87580  0.73830  0.81700  Biso   1.000  H
  C125     1.0000 0.02100  0.87410  0.86589  Biso   1.000  C
  H67      1.0000 0.01020  0.85190  0.87910  Biso   1.000  H
  C126     1.0000 0.32090  0.14420  0.80423  Biso   1.000  C
  O70      1.0000 0.68540  0.56010  0.74802  Biso   1.000  O
  C127     1.0000 0.62280  0.94710  0.87463  Biso   1.000  C
  H68      1.0000 0.69720  0.93340  0.87780  Biso   1.000  H
  H69      1.0000 0.57750  0.92300  0.88500  Biso   1.000  H
  C128     1.0000 0.60390  0.06730  0.87017  Biso   1.000  C
  H70      1.0000 0.58250  0.10680  0.88160  Biso   1.000  H
  C129     1.0000 0.49810  0.95800  0.84851  Biso   1.000  C
  H71      1.0000 0.49620  0.95900  0.83470  Biso   1.000  H
  H72      1.0000 0.43090  0.92920  0.85320  Biso   1.000  H
  O71      1.0000 0.46420  0.00070  0.74877  Biso   1.000  O
  C130     1.0000 0.07870  0.76770  0.83831  Biso   1.000  C
  H73      1.0000 0.05190  0.77440  0.82540  Biso   1.000  H
  H74      1.0000 0.11350  0.69870  0.83990  Biso   1.000  H
  C131     1.0000 0.59130  0.89200  0.85554  Biso   1.000  C
  H75      1.0000 0.57020  0.81810  0.85760  Biso   1.000  H
  H76      1.0000 0.65030  0.89380  0.84660  Biso   1.000  H
  C132     1.0000 0.50670  0.79520  0.74900  Biso   1.000  C
  C133     1.0000 0.14050  0.89160  0.86170  Biso   1.000  C
  H77      1.0000 0.15970  0.96600  0.86380  Biso   1.000  H
  H78      1.0000 0.18400  0.84720  0.87000  Biso   1.000  H
  C134     1.0000 0.41560  0.81710  0.74850  Biso   1.000  C
  C135     1.0000 0.15580  0.86510  0.84401  Biso   1.000  C
  H79      1.0000 0.23000  0.84420  0.84220  Biso   1.000  H
  H80      1.0000 0.14120  0.92620  0.83590  Biso   1.000  H
  C136     1.0000 0.39150  0.95570  0.74630  Biso   1.000  C
  C137     1.0000 0.54310  0.68210  0.74960  Biso   1.000  C
  C138     1.0000 0.66410  0.65800  0.75149  Biso   1.000  C
  O72      1.0000 0.28720  0.96840  0.74487  Biso   1.000  O
  C139     1.0000 0.45760  0.61290  0.74882  Biso   1.000  C
  C140     1.0000 0.33440  0.73820  0.74626  Biso   1.000  C
  Cu17     1.0000 0.18810  0.92238  0.13324  Biso   1.000  Cu
  Cu18     1.0000 0.11748  0.86155  0.16729  Biso   1.000  Cu
  Cu19     1.0000 0.53520  0.83602  0.25072  Biso   1.000  Cu
  Cu20     1.0000 0.73264  0.88250  0.24529  Biso   1.000  Cu
  O73      1.0000 0.27210  0.83710  0.17172  Biso   1.000  O
  O74      1.0000 0.10200  0.72180  0.15547  Biso   1.000  O
  O75      1.0000 0.19860  0.06070  0.14778  Biso   1.000  O
  O76      1.0000 0.04610  0.96490  0.12596  Biso   1.000  O
  O77      1.0000 0.32910  0.87980  0.14238  Biso   1.000  O
  O78      1.0000 0.15050  0.77400  0.12619  Biso   1.000  O
  O79      1.0000 0.13640  0.00690  0.17634  Biso   1.000  O
  O80      1.0000 0.24470  0.49300  0.14182  Biso   1.000  O
  O81      1.0000 0.98230  0.91160  0.15458  Biso   1.000  O
  C141     1.0000 0.16590  0.07860  0.16423  Biso   1.000  C
  C142     1.0000 0.34470  0.85480  0.15918  Biso   1.000  C
  C143     1.0000 0.16200  0.27360  0.15752  Biso   1.000  C
  H81      1.0000 0.17220  0.25780  0.14470  Biso   1.000  H
  N9       1.0000 0.06530  0.51680  0.14397  Biso   1.000  N
  C144     1.0000 0.54100  0.86870  0.15298  Biso   1.000  C
  H82      1.0000 0.52590  0.87400  0.14010  Biso   1.000  H
  C145     1.0000 0.60710  0.84910  0.21241  Biso   1.000  C
  C146     1.0000 0.14930  0.38050  0.16339  Biso   1.000  C
  C147     1.0000 0.13820  0.34490  0.21704  Biso   1.000  C
  C148     1.0000 0.15580  0.46780  0.14879  Biso   1.000  C
  C149     1.0000 0.14220  0.40490  0.18281  Biso   1.000  C
  H83      1.0000 0.13630  0.47550  0.18690  Biso   1.000  H
  C150     1.0000 0.15940  0.19210  0.17075  Biso   1.000  C
  C151     1.0000 0.97430  0.95840  0.13842  Biso   1.000  C
  C152     1.0000 0.64700  0.87820  0.15945  Biso   1.000  C
  O82      1.0000 0.70070  0.86600  0.21790  Biso   1.000  O
  O83      1.0000 0.53170  0.83000  0.22318  Biso   1.000  O
  C153     1.0000 0.45920  0.85150  0.16585  Biso   1.000  C
  C154     1.0000 0.47950  0.84100  0.18544  Biso   1.000  C
  H84      1.0000 0.42400  0.82880  0.19400  Biso   1.000  H
  N10      1.0000 0.78510  0.99360  0.14741  Biso   1.000  N
  C155     1.0000 0.11170  0.70860  0.13809  Biso   1.000  C
  C156     1.0000 0.73510  0.90440  0.14499  Biso   1.000  C
  C157     1.0000 0.15020  0.21540  0.18994  Biso   1.000  C
  H85      1.0000 0.14820  0.16040  0.19880  Biso   1.000  H
  O84      1.0000 0.75000  0.84260  0.13162  Biso   1.000  O
  O85      1.0000 0.74480  0.71730  0.24498  Biso   1.000  O
  O86      1.0000 0.12210  0.26640  0.22741  Biso   1.000  O
  C158     1.0000 0.58420  0.84940  0.19152  Biso   1.000  C
  O87      1.0000 0.14610  0.43920  0.22187  Biso   1.000  O
  C159     1.0000 0.66830  0.86900  0.17862  Biso   1.000  C
  H86      1.0000 0.73830  0.87580  0.18300  Biso   1.000  H
  C160     1.0000 0.87410  0.02100  0.13411  Biso   1.000  C
  H87      1.0000 0.85190  0.01020  0.12090  Biso   1.000  H
  C161     1.0000 0.14420  0.32090  0.19577  Biso   1.000  C
  O88      1.0000 0.56010  0.68540  0.25198  Biso   1.000  O
  C162     1.0000 0.94710  0.62280  0.12537  Biso   1.000  C
  H88      1.0000 0.93340  0.69720  0.12220  Biso   1.000  H
  H89      1.0000 0.92300  0.57750  0.11500  Biso   1.000  H
  C163     1.0000 0.06730  0.60390  0.12983  Biso   1.000  C
  H90      1.0000 0.10680  0.58250  0.11840  Biso   1.000  H
  C164     1.0000 0.95800  0.49810  0.15149  Biso   1.000  C
  H91      1.0000 0.95900  0.49620  0.16530  Biso   1.000  H
  H92      1.0000 0.92920  0.43090  0.14680  Biso   1.000  H
  O89      1.0000 0.00070  0.46420  0.25123  Biso   1.000  O
  C165     1.0000 0.76770  0.07870  0.16169  Biso   1.000  C
  H93      1.0000 0.77440  0.05190  0.17460  Biso   1.000  H
  H94      1.0000 0.69870  0.11350  0.16010  Biso   1.000  H
  C166     1.0000 0.89200  0.59130  0.14446  Biso   1.000  C
  H95      1.0000 0.81810  0.57020  0.14240  Biso   1.000  H
  H96      1.0000 0.89380  0.65030  0.15340  Biso   1.000  H
  C167     1.0000 0.79520  0.50670  0.25100  Biso   1.000  C
  C168     1.0000 0.89160  0.14050  0.13830  Biso   1.000  C
  H97      1.0000 0.96600  0.15970  0.13620  Biso   1.000  H
  H98      1.0000 0.84720  0.18400  0.13000  Biso   1.000  H
  C169     1.0000 0.81710  0.41560  0.25150  Biso   1.000  C
  C170     1.0000 0.86510  0.15580  0.15599  Biso   1.000  C
  H99      1.0000 0.84420  0.23000  0.15780  Biso   1.000  H
  H100     1.0000 0.92620  0.14120  0.16410  Biso   1.000  H
  C171     1.0000 0.95570  0.39150  0.25370  Biso   1.000  C
  C172     1.0000 0.68210  0.54310  0.25040  Biso   1.000  C
  C173     1.0000 0.65800  0.66410  0.24851  Biso   1.000  C
  O90      1.0000 0.96840  0.28720  0.25513  Biso   1.000  O
  C174     1.0000 0.61290  0.45760  0.25118  Biso   1.000  C
  C175     1.0000 0.73820  0.33440  0.25374  Biso   1.000  C
  Cu21     1.0000 0.81190  0.07762  0.63324  Biso   1.000  Cu
  Cu22     1.0000 0.88252  0.13845  0.66729  Biso   1.000  Cu
  Cu23     1.0000 0.46480  0.16398  0.75072  Biso   1.000  Cu
  Cu24     1.0000 0.26736  0.11750  0.74529  Biso   1.000  Cu
  O91      1.0000 0.72790  0.16290  0.67172  Biso   1.000  O
  O92      1.0000 0.89800  0.27820  0.65547  Biso   1.000  O
  O93      1.0000 0.80140  0.93930  0.64778  Biso   1.000  O
  O94      1.0000 0.95390  0.03510  0.62596  Biso   1.000  O
  O95      1.0000 0.67090  0.12020  0.64238  Biso   1.000  O
  O96      1.0000 0.84950  0.22600  0.62619  Biso   1.000  O
  O97      1.0000 0.86360  0.99310  0.67634  Biso   1.000  O
  O98      1.0000 0.75530  0.50700  0.64182  Biso   1.000  O
  O99      1.0000 0.01770  0.08840  0.65458  Biso   1.000  O
  C176     1.0000 0.83410  0.92140  0.66423  Biso   1.000  C
  C177     1.0000 0.65530  0.14520  0.65918  Biso   1.000  C
  C178     1.0000 0.83800  0.72640  0.65752  Biso   1.000  C
  H101     1.0000 0.82780  0.74220  0.64470  Biso   1.000  H
  N11      1.0000 0.93470  0.48320  0.64397  Biso   1.000  N
  C179     1.0000 0.45900  0.13130  0.65298  Biso   1.000  C
  H102     1.0000 0.47410  0.12600  0.64010  Biso   1.000  H
  C180     1.0000 0.39290  0.15090  0.71241  Biso   1.000  C
  C181     1.0000 0.85070  0.61950  0.66339  Biso   1.000  C
  C182     1.0000 0.86180  0.65510  0.71704  Biso   1.000  C
  C183     1.0000 0.84420  0.53220  0.64879  Biso   1.000  C
  C184     1.0000 0.85780  0.59510  0.68281  Biso   1.000  C
  H103     1.0000 0.86370  0.52450  0.68690  Biso   1.000  H
  C185     1.0000 0.84060  0.80790  0.67075  Biso   1.000  C
  C186     1.0000 0.02570  0.04160  0.63842  Biso   1.000  C
  C187     1.0000 0.35300  0.12180  0.65945  Biso   1.000  C
  O100     1.0000 0.29930  0.13400  0.71790  Biso   1.000  O
  O101     1.0000 0.46830  0.17000  0.72318  Biso   1.000  O
  C188     1.0000 0.54080  0.14850  0.66585  Biso   1.000  C
  C189     1.0000 0.52050  0.15900  0.68544  Biso   1.000  C
  H104     1.0000 0.57600  0.17120  0.69400  Biso   1.000  H
  N12      1.0000 0.21490  0.00640  0.64741  Biso   1.000  N
  C190     1.0000 0.88830  0.29140  0.63809  Biso   1.000  C
  C191     1.0000 0.26490  0.09560  0.64499  Biso   1.000  C
  C192     1.0000 0.84980  0.78460  0.68994  Biso   1.000  C
  H105     1.0000 0.85180  0.83960  0.69880  Biso   1.000  H
  O102     1.0000 0.25000  0.15740  0.63162  Biso   1.000  O
  O103     1.0000 0.25520  0.28270  0.74498  Biso   1.000  O
  O104     1.0000 0.87790  0.73360  0.72741  Biso   1.000  O
  C193     1.0000 0.41580  0.15060  0.69152  Biso   1.000  C
  O105     1.0000 0.85390  0.56080  0.72187  Biso   1.000  O
  C194     1.0000 0.33170  0.13100  0.67862  Biso   1.000  C
  H106     1.0000 0.26170  0.12420  0.68300  Biso   1.000  H
  C195     1.0000 0.12590  0.97900  0.63411  Biso   1.000  C
  H107     1.0000 0.14810  0.98980  0.62090  Biso   1.000  H
  C196     1.0000 0.85580  0.67910  0.69577  Biso   1.000  C
  O106     1.0000 0.43990  0.31460  0.75198  Biso   1.000  O
  C197     1.0000 0.05290  0.37720  0.62537  Biso   1.000  C
  H108     1.0000 0.06660  0.30280  0.62220  Biso   1.000  H
  H109     1.0000 0.07700  0.42250  0.61500  Biso   1.000  H
  C198     1.0000 0.93270  0.39610  0.62983  Biso   1.000  C
  H110     1.0000 0.89320  0.41750  0.61840  Biso   1.000  H
  C199     1.0000 0.04200  0.50190  0.65149  Biso   1.000  C
  H111     1.0000 0.04100  0.50380  0.66530  Biso   1.000  H
  H112     1.0000 0.07080  0.56910  0.64680  Biso   1.000  H
  O107     1.0000 0.99930  0.53580  0.75123  Biso   1.000  O
  C200     1.0000 0.23230  0.92130  0.66169  Biso   1.000  C
  H113     1.0000 0.22560  0.94810  0.67460  Biso   1.000  H
  H114     1.0000 0.30130  0.88650  0.66010  Biso   1.000  H
  C201     1.0000 0.10800  0.40870  0.64446  Biso   1.000  C
  H115     1.0000 0.18190  0.42980  0.64240  Biso   1.000  H
  H116     1.0000 0.10620  0.34970  0.65340  Biso   1.000  H
  C202     1.0000 0.20480  0.49330  0.75100  Biso   1.000  C
  C203     1.0000 0.10840  0.85950  0.63830  Biso   1.000  C
  H117     1.0000 0.03400  0.84030  0.63620  Biso   1.000  H
  H118     1.0000 0.15280  0.81600  0.63000  Biso   1.000  H
  C204     1.0000 0.18290  0.58440  0.75150  Biso   1.000  C
  C205     1.0000 0.13490  0.84420  0.65599  Biso   1.000  C
  H119     1.0000 0.15580  0.77000  0.65780  Biso   1.000  H
  H120     1.0000 0.07380  0.85880  0.66410  Biso   1.000  H
  C206     1.0000 0.04430  0.60850  0.75370  Biso   1.000  C
  C207     1.0000 0.31790  0.45690  0.75040  Biso   1.000  C
  C208     1.0000 0.34200  0.33590  0.74851  Biso   1.000  C
  O108     1.0000 0.03160  0.71280  0.75513  Biso   1.000  O
  C209     1.0000 0.38710  0.54240  0.75118  Biso   1.000  C
  C210     1.0000 0.26180  0.66560  0.75374  Biso   1.000  C
  Cu25     1.0000 0.42238  0.31190  0.88324  Biso   1.000  Cu
  Cu26     1.0000 0.36155  0.38252  0.91729  Biso   1.000  Cu
  Cu27     1.0000 0.33602  0.96480  0.00072  Biso   1.000  Cu
  Cu28     1.0000 0.38250  0.76736  0.99529  Biso   1.000  Cu
  O109     1.0000 0.33710  0.22790  0.92172  Biso   1.000  O
  O110     1.0000 0.22180  0.39800  0.90547  Biso   1.000  O
  O111     1.0000 0.56070  0.30140  0.89778  Biso   1.000  O
  O112     1.0000 0.46490  0.45390  0.87596  Biso   1.000  O
  O113     1.0000 0.37980  0.17090  0.89238  Biso   1.000  O
  O114     1.0000 0.27400  0.34950  0.87619  Biso   1.000  O
  O115     1.0000 0.50690  0.36360  0.92634  Biso   1.000  O
  O116     1.0000 0.99300  0.25530  0.89182  Biso   1.000  O
  O117     1.0000 0.41160  0.51770  0.90458  Biso   1.000  O
  C211     1.0000 0.57860  0.33410  0.91423  Biso   1.000  C
  C212     1.0000 0.35480  0.15530  0.90918  Biso   1.000  C
  C213     1.0000 0.77360  0.33800  0.90752  Biso   1.000  C
  H121     1.0000 0.75780  0.32780  0.89470  Biso   1.000  H
  N13      1.0000 0.01680  0.43470  0.89397  Biso   1.000  N
  C214     1.0000 0.36870  0.95900  0.90298  Biso   1.000  C
  H122     1.0000 0.37400  0.97410  0.89010  Biso   1.000  H
  C215     1.0000 0.34910  0.89290  0.96241  Biso   1.000  C
  C216     1.0000 0.88050  0.35070  0.91339  Biso   1.000  C
  C217     1.0000 0.84490  0.36180  0.96704  Biso   1.000  C
  C218     1.0000 0.96780  0.34420  0.89879  Biso   1.000  C
  C219     1.0000 0.90490  0.35780  0.93281  Biso   1.000  C
  H123     1.0000 0.97550  0.36370  0.93690  Biso   1.000  H
  C220     1.0000 0.69210  0.34060  0.92075  Biso   1.000  C
  C221     1.0000 0.45840  0.52570  0.88842  Biso   1.000  C
  C222     1.0000 0.37820  0.85300  0.90945  Biso   1.000  C
  O118     1.0000 0.36600  0.79930  0.96790  Biso   1.000  O
  O119     1.0000 0.33000  0.96830  0.97318  Biso   1.000  O
  C223     1.0000 0.35150  0.04080  0.91585  Biso   1.000  C
  C224     1.0000 0.34100  0.02050  0.93544  Biso   1.000  C
  H124     1.0000 0.32880  0.07600  0.94400  Biso   1.000  H
  N14      1.0000 0.49360  0.71490  0.89741  Biso   1.000  N
  C225     1.0000 0.20860  0.38830  0.88809  Biso   1.000  C
  C226     1.0000 0.40440  0.76490  0.89499  Biso   1.000  C
  C227     1.0000 0.71540  0.34980  0.93994  Biso   1.000  C
  H125     1.0000 0.66040  0.35180  0.94880  Biso   1.000  H
  O120     1.0000 0.34260  0.75000  0.88162  Biso   1.000  O
  O121     1.0000 0.21730  0.75520  0.99498  Biso   1.000  O
  O122     1.0000 0.76640  0.37790  0.97741  Biso   1.000  O
  C228     1.0000 0.34940  0.91580  0.94152  Biso   1.000  C
  O123     1.0000 0.93920  0.35390  0.97187  Biso   1.000  O
  C229     1.0000 0.36900  0.83170  0.92862  Biso   1.000  C
  H126     1.0000 0.37580  0.76170  0.93300  Biso   1.000  H
  C230     1.0000 0.52100  0.62590  0.88411  Biso   1.000  C
  H127     1.0000 0.51020  0.64810  0.87090  Biso   1.000  H
  C231     1.0000 0.82090  0.35580  0.94577  Biso   1.000  C
  O124     1.0000 0.18540  0.93990  0.00198  Biso   1.000  O
  C232     1.0000 0.12280  0.55290  0.87537  Biso   1.000  C
  H128     1.0000 0.19720  0.56660  0.87220  Biso   1.000  H
  H129     1.0000 0.07750  0.57700  0.86500  Biso   1.000  H
  C233     1.0000 0.10390  0.43270  0.87983  Biso   1.000  C
  H130     1.0000 0.08250  0.39320  0.86840  Biso   1.000  H
  C234     1.0000 0.99810  0.54200  0.90149  Biso   1.000  C
  H131     1.0000 0.99620  0.54100  0.91530  Biso   1.000  H
  H132     1.0000 0.93090  0.57080  0.89680  Biso   1.000  H
  O125     1.0000 0.96420  0.49930  0.00123  Biso   1.000  O
  C235     1.0000 0.57870  0.73230  0.91169  Biso   1.000  C
  H133     1.0000 0.55190  0.72560  0.92460  Biso   1.000  H
  H134     1.0000 0.61350  0.80130  0.91010  Biso   1.000  H
  C236     1.0000 0.09130  0.60800  0.89446  Biso   1.000  C
  H135     1.0000 0.07020  0.68190  0.89240  Biso   1.000  H
  H136     1.0000 0.15030  0.60620  0.90340  Biso   1.000  H
  C237     1.0000 0.00670  0.70480  0.00100  Biso   1.000  C
  C238     1.0000 0.64050  0.60840  0.88830  Biso   1.000  C
  H137     1.0000 0.65970  0.53400  0.88620  Biso   1.000  H
  H138     1.0000 0.68400  0.65280  0.88000  Biso   1.000  H
  C239     1.0000 0.91560  0.68290  0.00150  Biso   1.000  C
  C240     1.0000 0.65580  0.63490  0.90599  Biso   1.000  C
  H139     1.0000 0.73000  0.65580  0.90780  Biso   1.000  H
  H140     1.0000 0.64120  0.57380  0.91410  Biso   1.000  H
  C241     1.0000 0.89150  0.54430  0.00370  Biso   1.000  C
  C242     1.0000 0.04310  0.81790  0.00040  Biso   1.000  C
  C243     1.0000 0.16410  0.84200  0.99851  Biso   1.000  C
  O126     1.0000 0.78720  0.53160  0.00513  Biso   1.000  O
  C244     1.0000 0.95760  0.88710  0.00118  Biso   1.000  C
  C245     1.0000 0.83440  0.76180  0.00374  Biso   1.000  C
  Cu29     1.0000 0.57762  0.68810  0.38324  Biso   1.000  Cu
  Cu30     1.0000 0.63845  0.61748  0.41729  Biso   1.000  Cu
  Cu31     1.0000 0.66398  0.03520  0.50072  Biso   1.000  Cu
  Cu32     1.0000 0.61750  0.23264  0.49529  Biso   1.000  Cu
  O127     1.0000 0.66290  0.77210  0.42172  Biso   1.000  O
  O128     1.0000 0.77820  0.60200  0.40547  Biso   1.000  O
  O129     1.0000 0.43930  0.69860  0.39778  Biso   1.000  O
  O130     1.0000 0.53510  0.54610  0.37596  Biso   1.000  O
  O131     1.0000 0.62020  0.82910  0.39238  Biso   1.000  O
  O132     1.0000 0.72600  0.65050  0.37619  Biso   1.000  O
  O133     1.0000 0.49310  0.63640  0.42634  Biso   1.000  O
  O134     1.0000 0.00700  0.74470  0.39182  Biso   1.000  O
  O135     1.0000 0.58840  0.48230  0.40458  Biso   1.000  O
  C246     1.0000 0.42140  0.66590  0.41423  Biso   1.000  C
  C247     1.0000 0.64520  0.84470  0.40918  Biso   1.000  C
  C248     1.0000 0.22640  0.66200  0.40752  Biso   1.000  C
  H141     1.0000 0.24220  0.67220  0.39470  Biso   1.000  H
  N15      1.0000 0.98320  0.56530  0.39397  Biso   1.000  N
  C249     1.0000 0.63130  0.04100  0.40298  Biso   1.000  C
  H142     1.0000 0.62600  0.02590  0.39010  Biso   1.000  H
  C250     1.0000 0.65090  0.10710  0.46241  Biso   1.000  C
  C251     1.0000 0.11950  0.64930  0.41339  Biso   1.000  C
  C252     1.0000 0.15510  0.63820  0.46704  Biso   1.000  C
  C253     1.0000 0.03220  0.65580  0.39879  Biso   1.000  C
  C254     1.0000 0.09510  0.64220  0.43281  Biso   1.000  C
  H143     1.0000 0.02450  0.63630  0.43690  Biso   1.000  H
  C255     1.0000 0.30790  0.65940  0.42075  Biso   1.000  C
  C256     1.0000 0.54160  0.47430  0.38842  Biso   1.000  C
  C257     1.0000 0.62180  0.14700  0.40945  Biso   1.000  C
  O136     1.0000 0.63400  0.20070  0.46790  Biso   1.000  O
  O137     1.0000 0.67000  0.03170  0.47318  Biso   1.000  O
  C258     1.0000 0.64850  0.95920  0.41585  Biso   1.000  C
  C259     1.0000 0.65900  0.97950  0.43544  Biso   1.000  C
  H144     1.0000 0.67120  0.92400  0.44400  Biso   1.000  H
  N16      1.0000 0.50640  0.28510  0.39741  Biso   1.000  N
  C260     1.0000 0.79140  0.61170  0.38809  Biso   1.000  C
  C261     1.0000 0.59560  0.23510  0.39499  Biso   1.000  C
  C262     1.0000 0.28460  0.65020  0.43994  Biso   1.000  C
  H145     1.0000 0.33960  0.64820  0.44880  Biso   1.000  H
  O138     1.0000 0.65740  0.25000  0.38162  Biso   1.000  O
  O139     1.0000 0.78270  0.24480  0.49498  Biso   1.000  O
  O140     1.0000 0.23360  0.62210  0.47741  Biso   1.000  O
  C263     1.0000 0.65060  0.08420  0.44152  Biso   1.000  C
  O141     1.0000 0.06080  0.64610  0.47187  Biso   1.000  O
  C264     1.0000 0.63100  0.16830  0.42862  Biso   1.000  C
  H146     1.0000 0.62420  0.23830  0.43300  Biso   1.000  H
  C265     1.0000 0.47900  0.37410  0.38411  Biso   1.000  C
  H147     1.0000 0.48980  0.35190  0.37090  Biso   1.000  H
  C266     1.0000 0.17910  0.64420  0.44577  Biso   1.000  C
  O142     1.0000 0.81460  0.06010  0.50198  Biso   1.000  O
  C267     1.0000 0.87720  0.44710  0.37537  Biso   1.000  C
  H148     1.0000 0.80280  0.43340  0.37220  Biso   1.000  H
  H149     1.0000 0.92250  0.42300  0.36500  Biso   1.000  H
  C268     1.0000 0.89610  0.56730  0.37983  Biso   1.000  C
  H150     1.0000 0.91750  0.60680  0.36840  Biso   1.000  H
  C269     1.0000 0.00190  0.45800  0.40149  Biso   1.000  C
  H151     1.0000 0.00380  0.45900  0.41530  Biso   1.000  H
  H152     1.0000 0.06910  0.42920  0.39680  Biso   1.000  H
  O143     1.0000 0.03580  0.50070  0.50123  Biso   1.000  O
  C270     1.0000 0.42130  0.26770  0.41169  Biso   1.000  C
  H153     1.0000 0.44810  0.27440  0.42460  Biso   1.000  H
  H154     1.0000 0.38650  0.19870  0.41010  Biso   1.000  H
  C271     1.0000 0.90870  0.39200  0.39446  Biso   1.000  C
  H155     1.0000 0.92980  0.31810  0.39240  Biso   1.000  H
  H156     1.0000 0.84970  0.39380  0.40340  Biso   1.000  H
  C272     1.0000 0.99330  0.29520  0.50100  Biso   1.000  C
  C273     1.0000 0.35950  0.39160  0.38830  Biso   1.000  C
  H157     1.0000 0.34030  0.46600  0.38620  Biso   1.000  H
  H158     1.0000 0.31600  0.34720  0.38000  Biso   1.000  H
  C274     1.0000 0.08440  0.31710  0.50150  Biso   1.000  C
  C275     1.0000 0.34420  0.36510  0.40599  Biso   1.000  C
  H159     1.0000 0.27000  0.34420  0.40780  Biso   1.000  H
  H160     1.0000 0.35880  0.42620  0.41410  Biso   1.000  H
  C276     1.0000 0.10850  0.45570  0.50370  Biso   1.000  C
  C277     1.0000 0.95690  0.18210  0.50040  Biso   1.000  C
  C278     1.0000 0.83590  0.15800  0.49851  Biso   1.000  C
  O144     1.0000 0.21280  0.46840  0.50513  Biso   1.000  O
  C279     1.0000 0.04240  0.11290  0.50118  Biso   1.000  C
  C280     1.0000 0.16560  0.23820  0.50374  Biso   1.000  C
  C281     1.0000 0.86540  0.86540  0.00000  Biso   1.000  C
  C282     1.0000 0.13460  0.13460  0.50000  Biso   1.000  C
  C283     1.0000 0.63460  0.36540  0.25000  Biso   1.000  C
  C284     1.0000 0.36540  0.63460  0.75000  Biso   1.000  C
