data_image0
_cell_length_a       21.78
_cell_length_b       10.8551
_cell_length_c       19.4405
_cell_angle_alpha    90
_cell_angle_beta     92.088
_cell_angle_gamma    90

_symmetry_space_group_name_H-M    "P 1"
_symmetry_int_tables_number       1

loop_
  _symmetry_equiv_pos_as_xyz
  'x, y, z'

loop_
  _atom_site_label
  _atom_site_occupancy
  _atom_site_fract_x
  _atom_site_fract_y
  _atom_site_fract_z
  _atom_site_thermal_displace_type
  _atom_site_B_iso_or_equiv
  _atom_site_type_symbol
  Cu1      1.0000 0.30176  0.14524  0.19603  Biso   1.000  Cu
  Cu2      1.0000 0.01941  0.00857  0.43772  Biso   1.000  Cu
  Cu3      1.0000 0.37752  0.97540  0.15022  Biso   1.000  Cu
  O1       1.0000 0.73650  0.53420  0.15941  Biso   1.000  O
  O2       1.0000 0.46077  0.64130  0.41848  Biso   1.000  O
  O3       1.0000 0.37994  0.22130  0.22799  Biso   1.000  O
  O4       1.0000 0.04839  0.89230  0.58008  Biso   1.000  O
  O5       1.0000 0.61619  0.08040  0.93102  Biso   1.000  O
  O6       1.0000 0.44412  0.07200  0.19231  Biso   1.000  O
  O7       1.0000 0.41908  0.62350  0.52252  Biso   1.000  O
  O8       1.0000 0.07277  0.87370  0.46863  Biso   1.000  O
  O9       1.0000 0.29845  0.05660  0.28360  Biso   1.000  O
  C1       1.0000 0.32707  0.95570  0.28820  Biso   1.000  C
  O10      1.0000 0.68910  0.21220  0.89634  Biso   1.000  O
  O11      1.0000 0.35898  0.90720  0.24281  Biso   1.000  O
  O12      1.0000 0.80152  0.40450  0.10890  Biso   1.000  O
  C2       1.0000 0.64114  0.36710  0.13019  Biso   1.000  C
  H1       1.0000 0.63850  0.41010  0.17140  Biso   1.000  H
  C3       1.0000 0.65095  0.17270  0.93900  Biso   1.000  C
  C4       1.0000 0.69509  0.37190  0.09314  Biso   1.000  C
  C5       1.0000 0.53390  0.29270  0.14520  Biso   1.000  C
  C6       1.0000 0.41965  0.66310  0.46162  Biso   1.000  C
  N1       1.0000 0.53966  0.24890  0.20966  Biso   1.000  N
  C7       1.0000 0.07898  0.84850  0.53154  Biso   1.000  C
  C8       1.0000 0.59119  0.29730  0.10487  Biso   1.000  C
  C9       1.0000 0.74880  0.44190  0.12267  Biso   1.000  C
  C10      1.0000 0.37077  0.80710  0.37525  Biso   1.000  C
  H2       1.0000 0.40440  0.79670  0.34770  Biso   1.000  H
  C11      1.0000 0.32294  0.88580  0.35451  Biso   1.000  C
  O13      1.0000 0.48400  0.32950  0.12033  Biso   1.000  O
  C12      1.0000 0.27264  0.90110  0.39622  Biso   1.000  C
  H3       1.0000 0.24190  0.95710  0.38370  Biso   1.000  H
  C13      1.0000 0.26827  0.83240  0.45671  Biso   1.000  C
  N2       1.0000 0.17774  0.74770  0.50773  Biso   1.000  N
  C14      1.0000 0.64751  0.24100  0.00560  Biso   1.000  C
  C15      1.0000 0.43271  0.17320  0.22035  Biso   1.000  C
  C16      1.0000 0.48674  0.24380  0.25377  Biso   1.000  C
  H4       1.0000 0.47410  0.32700  0.26680  Biso   1.000  H
  C17      1.0000 0.21383  0.84580  0.50184  Biso   1.000  C
  O14      1.0000 0.20399  0.94290  0.53253  Biso   1.000  O
  C18      1.0000 0.69869  0.30750  0.03130  Biso   1.000  C
  H5       1.0000 0.73480  0.30870  0.00720  Biso   1.000  H
  C19      1.0000 0.59438  0.23650  0.04282  Biso   1.000  C
  H6       1.0000 0.56060  0.19210  0.02580  Biso   1.000  H
  C20      1.0000 0.12607  0.75090  0.55368  Biso   1.000  C
  H7       1.0000 0.14060  0.76460  0.60140  Biso   1.000  H
  C21      1.0000 0.31536  0.75370  0.47709  Biso   1.000  C
  H8       1.0000 0.31230  0.70710  0.51690  Biso   1.000  H
  C22      1.0000 0.51178  0.17220  0.31712  Biso   1.000  C
  H9       1.0000 0.52730  0.22820  0.35260  Biso   1.000  H
  H10      1.0000 0.48000  0.12100  0.33600  Biso   1.000  H
  C23      1.0000 0.59321  0.17990  0.23882  Biso   1.000  C
  H11      1.0000 0.62250  0.23460  0.26200  Biso   1.000  H
  H12      1.0000 0.61380  0.13450  0.20340  Biso   1.000  H
  C24      1.0000 0.36787  0.74430  0.43749  Biso   1.000  C
  C25      1.0000 0.17775  0.63640  0.46360  Biso   1.000  C
  H13      1.0000 0.20960  0.57900  0.47880  Biso   1.000  H
  H14      1.0000 0.18370  0.65780  0.41580  Biso   1.000  H
  C26      1.0000 0.11373  0.58230  0.47300  Biso   1.000  C
  H15      1.0000 0.08440  0.61550  0.43920  Biso   1.000  H
  H16      1.0000 0.11430  0.49330  0.46890  Biso   1.000  H
  C27      1.0000 0.09771  0.62120  0.54530  Biso   1.000  C
  H17      1.0000 0.11530  0.56480  0.57930  Biso   1.000  H
  H18      1.0000 0.05350  0.62390  0.54990  Biso   1.000  H
  C28      1.0000 0.56376  0.09310  0.28963  Biso   1.000  C
  H19      1.0000 0.59280  0.06920  0.32630  Biso   1.000  H
  H20      1.0000 0.54780  0.01970  0.26680  Biso   1.000  H
  Cu4      1.0000 0.80176  0.64524  0.19603  Biso   1.000  Cu
  Cu5      1.0000 0.51941  0.50857  0.43772  Biso   1.000  Cu
  Cu6      1.0000 0.87752  0.47540  0.15022  Biso   1.000  Cu
  O15      1.0000 0.23650  0.03420  0.15941  Biso   1.000  O
  O16      1.0000 0.96077  0.14130  0.41848  Biso   1.000  O
  O17      1.0000 0.87994  0.72130  0.22799  Biso   1.000  O
  O18      1.0000 0.54839  0.39230  0.58008  Biso   1.000  O
  O19      1.0000 0.11619  0.58040  0.93102  Biso   1.000  O
  O20      1.0000 0.94412  0.57200  0.19231  Biso   1.000  O
  O21      1.0000 0.91908  0.12350  0.52252  Biso   1.000  O
  O22      1.0000 0.57277  0.37370  0.46863  Biso   1.000  O
  O23      1.0000 0.79845  0.55660  0.28360  Biso   1.000  O
  C29      1.0000 0.82707  0.45570  0.28820  Biso   1.000  C
  O24      1.0000 0.18910  0.71220  0.89634  Biso   1.000  O
  O25      1.0000 0.85898  0.40720  0.24281  Biso   1.000  O
  O26      1.0000 0.30152  0.90450  0.10890  Biso   1.000  O
  C30      1.0000 0.14114  0.86710  0.13019  Biso   1.000  C
  H21      1.0000 0.13850  0.91010  0.17140  Biso   1.000  H
  C31      1.0000 0.15095  0.67270  0.93900  Biso   1.000  C
  C32      1.0000 0.19509  0.87190  0.09314  Biso   1.000  C
  C33      1.0000 0.03390  0.79270  0.14520  Biso   1.000  C
  C34      1.0000 0.91965  0.16310  0.46162  Biso   1.000  C
  N3       1.0000 0.03966  0.74890  0.20966  Biso   1.000  N
  C35      1.0000 0.57898  0.34850  0.53154  Biso   1.000  C
  C36      1.0000 0.09119  0.79730  0.10487  Biso   1.000  C
  C37      1.0000 0.24880  0.94190  0.12267  Biso   1.000  C
  C38      1.0000 0.87077  0.30710  0.37525  Biso   1.000  C
  H22      1.0000 0.90440  0.29670  0.34770  Biso   1.000  H
  C39      1.0000 0.82294  0.38580  0.35451  Biso   1.000  C
  O27      1.0000 0.98400  0.82950  0.12033  Biso   1.000  O
  C40      1.0000 0.77264  0.40110  0.39622  Biso   1.000  C
  H23      1.0000 0.74190  0.45710  0.38370  Biso   1.000  H
  C41      1.0000 0.76827  0.33240  0.45671  Biso   1.000  C
  N4       1.0000 0.67774  0.24770  0.50773  Biso   1.000  N
  C42      1.0000 0.14751  0.74100  0.00560  Biso   1.000  C
  C43      1.0000 0.93271  0.67320  0.22035  Biso   1.000  C
  C44      1.0000 0.98674  0.74380  0.25377  Biso   1.000  C
  H24      1.0000 0.97410  0.82700  0.26680  Biso   1.000  H
  C45      1.0000 0.71383  0.34580  0.50184  Biso   1.000  C
  O28      1.0000 0.70399  0.44290  0.53253  Biso   1.000  O
  C46      1.0000 0.19869  0.80750  0.03130  Biso   1.000  C
  H25      1.0000 0.23480  0.80870  0.00720  Biso   1.000  H
  C47      1.0000 0.09438  0.73650  0.04282  Biso   1.000  C
  H26      1.0000 0.06060  0.69210  0.02580  Biso   1.000  H
  C48      1.0000 0.62607  0.25090  0.55368  Biso   1.000  C
  H27      1.0000 0.64060  0.26460  0.60140  Biso   1.000  H
  C49      1.0000 0.81536  0.25370  0.47709  Biso   1.000  C
  H28      1.0000 0.81230  0.20710  0.51690  Biso   1.000  H
  C50      1.0000 0.01178  0.67220  0.31712  Biso   1.000  C
  H29      1.0000 0.02730  0.72820  0.35260  Biso   1.000  H
  H30      1.0000 0.98000  0.62100  0.33600  Biso   1.000  H
  C51      1.0000 0.09321  0.67990  0.23882  Biso   1.000  C
  H31      1.0000 0.12250  0.73460  0.26200  Biso   1.000  H
  H32      1.0000 0.11380  0.63450  0.20340  Biso   1.000  H
  C52      1.0000 0.86787  0.24430  0.43749  Biso   1.000  C
  C53      1.0000 0.67775  0.13640  0.46360  Biso   1.000  C
  H33      1.0000 0.70960  0.07900  0.47880  Biso   1.000  H
  H34      1.0000 0.68370  0.15780  0.41580  Biso   1.000  H
  C54      1.0000 0.61373  0.08230  0.47300  Biso   1.000  C
  H35      1.0000 0.58440  0.11550  0.43920  Biso   1.000  H
  H36      1.0000 0.61430  0.99330  0.46890  Biso   1.000  H
  C55      1.0000 0.59771  0.12120  0.54530  Biso   1.000  C
  H37      1.0000 0.61530  0.06480  0.57930  Biso   1.000  H
  H38      1.0000 0.55350  0.12390  0.54990  Biso   1.000  H
  C56      1.0000 0.06376  0.59310  0.28963  Biso   1.000  C
  H39      1.0000 0.09280  0.56920  0.32630  Biso   1.000  H
  H40      1.0000 0.04780  0.51970  0.26680  Biso   1.000  H
  Cu7      1.0000 0.69824  0.14524  0.80397  Biso   1.000  Cu
  Cu8      1.0000 0.98059  0.00857  0.56228  Biso   1.000  Cu
  Cu9      1.0000 0.62248  0.97540  0.84978  Biso   1.000  Cu
  O29      1.0000 0.26350  0.53420  0.84059  Biso   1.000  O
  O30      1.0000 0.53923  0.64130  0.58152  Biso   1.000  O
  O31      1.0000 0.62006  0.22130  0.77201  Biso   1.000  O
  O32      1.0000 0.95161  0.89230  0.41992  Biso   1.000  O
  O33      1.0000 0.38381  0.08040  0.06898  Biso   1.000  O
  O34      1.0000 0.55588  0.07200  0.80769  Biso   1.000  O
  O35      1.0000 0.58092  0.62350  0.47748  Biso   1.000  O
  O36      1.0000 0.92723  0.87370  0.53137  Biso   1.000  O
  O37      1.0000 0.70155  0.05660  0.71640  Biso   1.000  O
  C57      1.0000 0.67293  0.95570  0.71180  Biso   1.000  C
  O38      1.0000 0.31090  0.21220  0.10366  Biso   1.000  O
  O39      1.0000 0.64102  0.90720  0.75719  Biso   1.000  O
  O40      1.0000 0.19848  0.40450  0.89110  Biso   1.000  O
  C58      1.0000 0.35886  0.36710  0.86981  Biso   1.000  C
  H41      1.0000 0.36150  0.41010  0.82860  Biso   1.000  H
  C59      1.0000 0.34905  0.17270  0.06100  Biso   1.000  C
  C60      1.0000 0.30491  0.37190  0.90686  Biso   1.000  C
  C61      1.0000 0.46610  0.29270  0.85480  Biso   1.000  C
  C62      1.0000 0.58035  0.66310  0.53838  Biso   1.000  C
  N5       1.0000 0.46034  0.24890  0.79034  Biso   1.000  N
  C63      1.0000 0.92102  0.84850  0.46846  Biso   1.000  C
  C64      1.0000 0.40881  0.29730  0.89513  Biso   1.000  C
  C65      1.0000 0.25120  0.44190  0.87733  Biso   1.000  C
  C66      1.0000 0.62923  0.80710  0.62475  Biso   1.000  C
  H42      1.0000 0.59560  0.79670  0.65230  Biso   1.000  H
  C67      1.0000 0.67706  0.88580  0.64549  Biso   1.000  C
  O41      1.0000 0.51600  0.32950  0.87967  Biso   1.000  O
  C68      1.0000 0.72736  0.90110  0.60378  Biso   1.000  C
  H43      1.0000 0.75810  0.95710  0.61630  Biso   1.000  H
  C69      1.0000 0.73173  0.83240  0.54329  Biso   1.000  C
  N6       1.0000 0.82226  0.74770  0.49227  Biso   1.000  N
  C70      1.0000 0.35249  0.24100  0.99440  Biso   1.000  C
  C71      1.0000 0.56729  0.17320  0.77965  Biso   1.000  C
  C72      1.0000 0.51326  0.24380  0.74623  Biso   1.000  C
  H44      1.0000 0.52590  0.32700  0.73320  Biso   1.000  H
  C73      1.0000 0.78617  0.84580  0.49816  Biso   1.000  C
  O42      1.0000 0.79601  0.94290  0.46747  Biso   1.000  O
  C74      1.0000 0.30131  0.30750  0.96870  Biso   1.000  C
  H45      1.0000 0.26520  0.30870  0.99280  Biso   1.000  H
  C75      1.0000 0.40562  0.23650  0.95718  Biso   1.000  C
  H46      1.0000 0.43940  0.19210  0.97420  Biso   1.000  H
  C76      1.0000 0.87393  0.75090  0.44632  Biso   1.000  C
  H47      1.0000 0.85940  0.76460  0.39860  Biso   1.000  H
  C77      1.0000 0.68464  0.75370  0.52291  Biso   1.000  C
  H48      1.0000 0.68770  0.70710  0.48310  Biso   1.000  H
  C78      1.0000 0.48822  0.17220  0.68288  Biso   1.000  C
  H49      1.0000 0.47270  0.22820  0.64740  Biso   1.000  H
  H50      1.0000 0.52000  0.12100  0.66400  Biso   1.000  H
  C79      1.0000 0.40679  0.17990  0.76118  Biso   1.000  C
  H51      1.0000 0.37750  0.23460  0.73800  Biso   1.000  H
  H52      1.0000 0.38620  0.13450  0.79660  Biso   1.000  H
  C80      1.0000 0.63213  0.74430  0.56251  Biso   1.000  C
  C81      1.0000 0.82225  0.63640  0.53640  Biso   1.000  C
  H53      1.0000 0.79040  0.57900  0.52120  Biso   1.000  H
  H54      1.0000 0.81630  0.65780  0.58420  Biso   1.000  H
  C82      1.0000 0.88627  0.58230  0.52700  Biso   1.000  C
  H55      1.0000 0.91560  0.61550  0.56080  Biso   1.000  H
  H56      1.0000 0.88570  0.49330  0.53110  Biso   1.000  H
  C83      1.0000 0.90229  0.62120  0.45470  Biso   1.000  C
  H57      1.0000 0.88470  0.56480  0.42070  Biso   1.000  H
  H58      1.0000 0.94650  0.62390  0.45010  Biso   1.000  H
  C84      1.0000 0.43624  0.09310  0.71037  Biso   1.000  C
  H59      1.0000 0.40720  0.06920  0.67370  Biso   1.000  H
  H60      1.0000 0.45220  0.01970  0.73320  Biso   1.000  H
  Cu10     1.0000 0.19824  0.64524  0.80397  Biso   1.000  Cu
  Cu11     1.0000 0.48059  0.50857  0.56228  Biso   1.000  Cu
  Cu12     1.0000 0.12248  0.47540  0.84978  Biso   1.000  Cu
  O43      1.0000 0.76350  0.03420  0.84059  Biso   1.000  O
  O44      1.0000 0.03923  0.14130  0.58152  Biso   1.000  O
  O45      1.0000 0.12006  0.72130  0.77201  Biso   1.000  O
  O46      1.0000 0.45161  0.39230  0.41992  Biso   1.000  O
  O47      1.0000 0.88381  0.58040  0.06898  Biso   1.000  O
  O48      1.0000 0.05588  0.57200  0.80769  Biso   1.000  O
  O49      1.0000 0.08092  0.12350  0.47748  Biso   1.000  O
  O50      1.0000 0.42723  0.37370  0.53137  Biso   1.000  O
  O51      1.0000 0.20155  0.55660  0.71640  Biso   1.000  O
  C85      1.0000 0.17293  0.45570  0.71180  Biso   1.000  C
  O52      1.0000 0.81090  0.71220  0.10366  Biso   1.000  O
  O53      1.0000 0.14102  0.40720  0.75719  Biso   1.000  O
  O54      1.0000 0.69848  0.90450  0.89110  Biso   1.000  O
  C86      1.0000 0.85886  0.86710  0.86981  Biso   1.000  C
  H61      1.0000 0.86150  0.91010  0.82860  Biso   1.000  H
  C87      1.0000 0.84905  0.67270  0.06100  Biso   1.000  C
  C88      1.0000 0.80491  0.87190  0.90686  Biso   1.000  C
  C89      1.0000 0.96610  0.79270  0.85480  Biso   1.000  C
  C90      1.0000 0.08035  0.16310  0.53838  Biso   1.000  C
  N7       1.0000 0.96034  0.74890  0.79034  Biso   1.000  N
  C91      1.0000 0.42102  0.34850  0.46846  Biso   1.000  C
  C92      1.0000 0.90881  0.79730  0.89513  Biso   1.000  C
  C93      1.0000 0.75120  0.94190  0.87733  Biso   1.000  C
  C94      1.0000 0.12923  0.30710  0.62475  Biso   1.000  C
  H62      1.0000 0.09560  0.29670  0.65230  Biso   1.000  H
  C95      1.0000 0.17706  0.38580  0.64549  Biso   1.000  C
  O55      1.0000 0.01600  0.82950  0.87967  Biso   1.000  O
  C96      1.0000 0.22736  0.40110  0.60378  Biso   1.000  C
  H63      1.0000 0.25810  0.45710  0.61630  Biso   1.000  H
  C97      1.0000 0.23173  0.33240  0.54329  Biso   1.000  C
  N8       1.0000 0.32226  0.24770  0.49227  Biso   1.000  N
  C98      1.0000 0.85249  0.74100  0.99440  Biso   1.000  C
  C99      1.0000 0.06729  0.67320  0.77965  Biso   1.000  C
  C100     1.0000 0.01326  0.74380  0.74623  Biso   1.000  C
  H64      1.0000 0.02590  0.82700  0.73320  Biso   1.000  H
  C101     1.0000 0.28617  0.34580  0.49816  Biso   1.000  C
  O56      1.0000 0.29601  0.44290  0.46747  Biso   1.000  O
  C102     1.0000 0.80131  0.80750  0.96870  Biso   1.000  C
  H65      1.0000 0.76520  0.80870  0.99280  Biso   1.000  H
  C103     1.0000 0.90562  0.73650  0.95718  Biso   1.000  C
  H66      1.0000 0.93940  0.69210  0.97420  Biso   1.000  H
  C104     1.0000 0.37393  0.25090  0.44632  Biso   1.000  C
  H67      1.0000 0.35940  0.26460  0.39860  Biso   1.000  H
  C105     1.0000 0.18464  0.25370  0.52291  Biso   1.000  C
  H68      1.0000 0.18770  0.20710  0.48310  Biso   1.000  H
  C106     1.0000 0.98822  0.67220  0.68288  Biso   1.000  C
  H69      1.0000 0.97270  0.72820  0.64740  Biso   1.000  H
  H70      1.0000 0.02000  0.62100  0.66400  Biso   1.000  H
  C107     1.0000 0.90679  0.67990  0.76118  Biso   1.000  C
  H71      1.0000 0.87750  0.73460  0.73800  Biso   1.000  H
  H72      1.0000 0.88620  0.63450  0.79660  Biso   1.000  H
  C108     1.0000 0.13213  0.24430  0.56251  Biso   1.000  C
  C109     1.0000 0.32225  0.13640  0.53640  Biso   1.000  C
  H73      1.0000 0.29040  0.07900  0.52120  Biso   1.000  H
  H74      1.0000 0.31630  0.15780  0.58420  Biso   1.000  H
  C110     1.0000 0.38627  0.08230  0.52700  Biso   1.000  C
  H75      1.0000 0.41560  0.11550  0.56080  Biso   1.000  H
  H76      1.0000 0.38570  0.99330  0.53110  Biso   1.000  H
  C111     1.0000 0.40229  0.12120  0.45470  Biso   1.000  C
  H77      1.0000 0.38470  0.06480  0.42070  Biso   1.000  H
  H78      1.0000 0.44650  0.12390  0.45010  Biso   1.000  H
  C112     1.0000 0.93624  0.59310  0.71037  Biso   1.000  C
  H79      1.0000 0.90720  0.56920  0.67370  Biso   1.000  H
  H80      1.0000 0.95220  0.51970  0.73320  Biso   1.000  H
