data_image0
_cell_length_a       12.5085
_cell_length_b       12.5085
_cell_length_c       70.2284
_cell_angle_alpha    90
_cell_angle_beta     90
_cell_angle_gamma    90

_symmetry_space_group_name_H-M    "P 1"
_symmetry_int_tables_number       1

loop_
  _symmetry_equiv_pos_as_xyz
  'x, y, z'

loop_
  _atom_site_label
  _atom_site_occupancy
  _atom_site_fract_x
  _atom_site_fract_y
  _atom_site_fract_z
  _atom_site_thermal_displace_type
  _atom_site_B_iso_or_equiv
  _atom_site_type_symbol
  Cu1      1.0000 0.61801  0.37977  0.83313  Biso   1.000  Cu
  Cu2      1.0000 0.68690  0.44081  0.86729  Biso   1.000  Cu
  Cu3      1.0000 0.60360  0.77676  0.74547  Biso   1.000  Cu
  Cu4      1.0000 0.65481  0.97478  0.75029  Biso   1.000  Cu
  O1       1.0000 0.54330  0.47860  0.87445  Biso   1.000  O
  O2       1.0000 0.69380  0.57970  0.85310  Biso   1.000  O
  O3       1.0000 0.65420  0.29100  0.87356  Biso   1.000  O
  O4       1.0000 0.82870  0.40150  0.85798  Biso   1.000  O
  O5       1.0000 0.74280  0.01020  0.85776  Biso   1.000  O
  O6       1.0000 0.60060  0.24130  0.84430  Biso   1.000  O
  O7       1.0000 0.76980  0.35360  0.82905  Biso   1.000  O
  C1       1.0000 0.04160  0.38930  0.84737  Biso   1.000  C
  H1       1.0000 0.02720  0.39520  0.86030  Biso   1.000  H
  O8       1.0000 0.02320  0.34470  0.77709  Biso   1.000  O
  C2       1.0000 0.08130  0.37330  0.80841  Biso   1.000  C
  C3       1.0000 0.63760  0.91880  0.81767  Biso   1.000  C
  H2       1.0000 0.63320  0.98890  0.81330  Biso   1.000  H
  C4       1.0000 0.65630  0.70870  0.82985  Biso   1.000  C
  C5       1.0000 0.65830  0.79130  0.84278  Biso   1.000  C
  H3       1.0000 0.66950  0.77660  0.85560  Biso   1.000  H
  N1       1.0000 0.28670  0.50950  0.85293  Biso   1.000  N
  C6       1.0000 0.84530  0.37610  0.84127  Biso   1.000  C
  C7       1.0000 0.65580  0.98580  0.85105  Biso   1.000  C
  C8       1.0000 0.47240  0.47500  0.86169  Biso   1.000  C
  C9       1.0000 0.61370  0.22630  0.86137  Biso   1.000  C
  C10      1.0000 0.10850  0.36640  0.78797  Biso   1.000  C
  C11      1.0000 0.64350  0.89890  0.83679  Biso   1.000  C
  O9       1.0000 0.60140  0.77990  0.77303  Biso   1.000  O
  C12      1.0000 0.64340  0.72820  0.81053  Biso   1.000  C
  H4       1.0000 0.63840  0.67240  0.80180  Biso   1.000  H
  C13      1.0000 0.63830  0.83450  0.80466  Biso   1.000  C
  C14      1.0000 0.66240  0.59660  0.83637  Biso   1.000  C
  C15      1.0000 0.95940  0.37150  0.83461  Biso   1.000  C
  C16      1.0000 0.23370  0.42010  0.85471  Biso   1.000  C
  O10      1.0000 0.64560  0.94420  0.77783  Biso   1.000  O
  C17      1.0000 0.16670  0.38910  0.82124  Biso   1.000  C
  H5       1.0000 0.23660  0.39350  0.81680  Biso   1.000  H
  C18      1.0000 0.14500  0.39820  0.84079  Biso   1.000  C
  C19      1.0000 0.62770  0.85760  0.78343  Biso   1.000  C
  O11      1.0000 0.19740  0.38260  0.78192  Biso   1.000  O
  C20      1.0000 0.56850  0.12260  0.87019  Biso   1.000  C
  H6       1.0000 0.60920  0.10170  0.88150  Biso   1.000  H
  C21      1.0000 0.37260  0.53840  0.86554  Biso   1.000  C
  H7       1.0000 0.34990  0.52500  0.87870  Biso   1.000  H
  C22      1.0000 0.97990  0.36230  0.81485  Biso   1.000  C
  H8       1.0000 0.92430  0.34890  0.80640  Biso   1.000  H
  O12      1.0000 0.25000  0.35950  0.86838  Biso   1.000  O
  C23      1.0000 0.39370  0.11040  0.85684  Biso   1.000  C
  H9       1.0000 0.32100  0.08860  0.85970  Biso   1.000  H
  H10      1.0000 0.39170  0.16940  0.84790  Biso   1.000  H
  C24      1.0000 0.45350  0.14160  0.87496  Biso   1.000  C
  H11      1.0000 0.43140  0.09750  0.88560  Biso   1.000  H
  H12      1.0000 0.44110  0.21600  0.87810  Biso   1.000  H
  C25      1.0000 0.27260  0.59430  0.83858  Biso   1.000  C
  H13      1.0000 0.20280  0.62770  0.83960  Biso   1.000  H
  H14      1.0000 0.28230  0.56720  0.82580  Biso   1.000  H
  O13      1.0000 0.63680  0.52600  0.82423  Biso   1.000  O
  O14      1.0000 0.48290  0.42920  0.84567  Biso   1.000  O
  N2       1.0000 0.56560  0.03520  0.85612  Biso   1.000  N
  O15      1.0000 0.02560  0.50860  0.75058  Biso   1.000  O
  O16      1.0000 0.80410  0.94940  0.75086  Biso   1.000  O
  C26      1.0000 0.81250  0.85580  0.74743  Biso   1.000  C
  O17      1.0000 0.77080  0.77550  0.74596  Biso   1.000  O
  O18      1.0000 0.20600  0.54330  0.75470  Biso   1.000  O
  C27      1.0000 0.10610  0.55680  0.75373  Biso   1.000  C
  C28      1.0000 0.45700  0.01900  0.84904  Biso   1.000  C
  H15      1.0000 0.42840  0.95140  0.85350  Biso   1.000  H
  H16      1.0000 0.45580  0.01950  0.83520  Biso   1.000  H
  C29      1.0000 0.94590  0.84100  0.75090  Biso   1.000  C
  C30      1.0000 0.39370  0.65130  0.86330  Biso   1.000  C
  H17      1.0000 0.35160  0.69330  0.87220  Biso   1.000  H
  H18      1.0000 0.46890  0.66710  0.86530  Biso   1.000  H
  C31      1.0000 0.36270  0.67200  0.84420  Biso   1.000  C
  H19      1.0000 0.42340  0.66250  0.83580  Biso   1.000  H
  H20      1.0000 0.33790  0.74520  0.84300  Biso   1.000  H
  C32      1.0000 0.98260  0.72230  0.75320  Biso   1.000  C
  C33      1.0000 0.01500  0.91300  0.75320  Biso   1.000  C
  C34      1.0000 0.08080  0.68170  0.75160  Biso   1.000  C
  C35      1.0000 0.14500  0.75800  0.75410  Biso   1.000  C
  Cu5      1.0000 0.38199  0.62023  0.33313  Biso   1.000  Cu
  Cu6      1.0000 0.31310  0.55919  0.36729  Biso   1.000  Cu
  Cu7      1.0000 0.39640  0.22324  0.24547  Biso   1.000  Cu
  Cu8      1.0000 0.34519  0.02522  0.25029  Biso   1.000  Cu
  O19      1.0000 0.45670  0.52140  0.37445  Biso   1.000  O
  O20      1.0000 0.30620  0.42030  0.35310  Biso   1.000  O
  O21      1.0000 0.34580  0.70900  0.37356  Biso   1.000  O
  O22      1.0000 0.17130  0.59850  0.35798  Biso   1.000  O
  O23      1.0000 0.25720  0.98980  0.35776  Biso   1.000  O
  O24      1.0000 0.39940  0.75870  0.34430  Biso   1.000  O
  O25      1.0000 0.23020  0.64640  0.32905  Biso   1.000  O
  C36      1.0000 0.95840  0.61070  0.34737  Biso   1.000  C
  H21      1.0000 0.97280  0.60480  0.36030  Biso   1.000  H
  O26      1.0000 0.97680  0.65530  0.27709  Biso   1.000  O
  C37      1.0000 0.91870  0.62670  0.30841  Biso   1.000  C
  C38      1.0000 0.36240  0.08120  0.31767  Biso   1.000  C
  H22      1.0000 0.36680  0.01110  0.31330  Biso   1.000  H
  C39      1.0000 0.34370  0.29130  0.32985  Biso   1.000  C
  C40      1.0000 0.34170  0.20870  0.34278  Biso   1.000  C
  H23      1.0000 0.33050  0.22340  0.35560  Biso   1.000  H
  N3       1.0000 0.71330  0.49050  0.35293  Biso   1.000  N
  C41      1.0000 0.15470  0.62390  0.34127  Biso   1.000  C
  C42      1.0000 0.34420  0.01420  0.35105  Biso   1.000  C
  C43      1.0000 0.52760  0.52500  0.36169  Biso   1.000  C
  C44      1.0000 0.38630  0.77370  0.36137  Biso   1.000  C
  C45      1.0000 0.89150  0.63360  0.28797  Biso   1.000  C
  C46      1.0000 0.35650  0.10110  0.33679  Biso   1.000  C
  O27      1.0000 0.39860  0.22010  0.27303  Biso   1.000  O
  C47      1.0000 0.35660  0.27180  0.31053  Biso   1.000  C
  H24      1.0000 0.36160  0.32760  0.30180  Biso   1.000  H
  C48      1.0000 0.36170  0.16550  0.30466  Biso   1.000  C
  C49      1.0000 0.33760  0.40340  0.33637  Biso   1.000  C
  C50      1.0000 0.04060  0.62850  0.33461  Biso   1.000  C
  C51      1.0000 0.76630  0.57990  0.35471  Biso   1.000  C
  O28      1.0000 0.35440  0.05580  0.27783  Biso   1.000  O
  C52      1.0000 0.83330  0.61090  0.32124  Biso   1.000  C
  H25      1.0000 0.76340  0.60650  0.31680  Biso   1.000  H
  C53      1.0000 0.85500  0.60180  0.34079  Biso   1.000  C
  C54      1.0000 0.37230  0.14240  0.28343  Biso   1.000  C
  O29      1.0000 0.80260  0.61740  0.28192  Biso   1.000  O
  C55      1.0000 0.43150  0.87740  0.37019  Biso   1.000  C
  H26      1.0000 0.39080  0.89830  0.38150  Biso   1.000  H
  C56      1.0000 0.62740  0.46160  0.36554  Biso   1.000  C
  H27      1.0000 0.65010  0.47500  0.37870  Biso   1.000  H
  C57      1.0000 0.02010  0.63770  0.31485  Biso   1.000  C
  H28      1.0000 0.07570  0.65110  0.30640  Biso   1.000  H
  O30      1.0000 0.75000  0.64050  0.36838  Biso   1.000  O
  C58      1.0000 0.60630  0.88960  0.35684  Biso   1.000  C
  H29      1.0000 0.67900  0.91140  0.35970  Biso   1.000  H
  H30      1.0000 0.60830  0.83060  0.34790  Biso   1.000  H
  C59      1.0000 0.54650  0.85840  0.37496  Biso   1.000  C
  H31      1.0000 0.56860  0.90250  0.38560  Biso   1.000  H
  H32      1.0000 0.55890  0.78400  0.37810  Biso   1.000  H
  C60      1.0000 0.72740  0.40570  0.33858  Biso   1.000  C
  H33      1.0000 0.79720  0.37230  0.33960  Biso   1.000  H
  H34      1.0000 0.71770  0.43280  0.32580  Biso   1.000  H
  O31      1.0000 0.36320  0.47400  0.32423  Biso   1.000  O
  O32      1.0000 0.51710  0.57080  0.34567  Biso   1.000  O
  N4       1.0000 0.43440  0.96480  0.35612  Biso   1.000  N
  O33      1.0000 0.97440  0.49140  0.25058  Biso   1.000  O
  O34      1.0000 0.19590  0.05060  0.25086  Biso   1.000  O
  C61      1.0000 0.18750  0.14420  0.24743  Biso   1.000  C
  O35      1.0000 0.22920  0.22450  0.24596  Biso   1.000  O
  O36      1.0000 0.79400  0.45670  0.25470  Biso   1.000  O
  C62      1.0000 0.89390  0.44320  0.25373  Biso   1.000  C
  C63      1.0000 0.54300  0.98100  0.34904  Biso   1.000  C
  H35      1.0000 0.57160  0.04860  0.35350  Biso   1.000  H
  H36      1.0000 0.54420  0.98050  0.33520  Biso   1.000  H
  C64      1.0000 0.05410  0.15900  0.25090  Biso   1.000  C
  C65      1.0000 0.60630  0.34870  0.36330  Biso   1.000  C
  H37      1.0000 0.64840  0.30670  0.37220  Biso   1.000  H
  H38      1.0000 0.53110  0.33290  0.36530  Biso   1.000  H
  C66      1.0000 0.63730  0.32800  0.34420  Biso   1.000  C
  H39      1.0000 0.57660  0.33750  0.33580  Biso   1.000  H
  H40      1.0000 0.66210  0.25480  0.34300  Biso   1.000  H
  C67      1.0000 0.01740  0.27770  0.25320  Biso   1.000  C
  C68      1.0000 0.98500  0.08700  0.25320  Biso   1.000  C
  C69      1.0000 0.91920  0.31830  0.25160  Biso   1.000  C
  C70      1.0000 0.85500  0.24200  0.25410  Biso   1.000  C
  Cu9      1.0000 0.12023  0.11801  0.58313  Biso   1.000  Cu
  Cu10     1.0000 0.05919  0.18690  0.61729  Biso   1.000  Cu
  Cu11     1.0000 0.72324  0.10360  0.49547  Biso   1.000  Cu
  Cu12     1.0000 0.52522  0.15481  0.50029  Biso   1.000  Cu
  O37      1.0000 0.02140  0.04330  0.62445  Biso   1.000  O
  O38      1.0000 0.92030  0.19380  0.60310  Biso   1.000  O
  O39      1.0000 0.20900  0.15420  0.62356  Biso   1.000  O
  O40      1.0000 0.09850  0.32870  0.60798  Biso   1.000  O
  O41      1.0000 0.48980  0.24280  0.60776  Biso   1.000  O
  O42      1.0000 0.25870  0.10060  0.59430  Biso   1.000  O
  O43      1.0000 0.14640  0.26980  0.57905  Biso   1.000  O
  C71      1.0000 0.11070  0.54160  0.59737  Biso   1.000  C
  H41      1.0000 0.10480  0.52720  0.61030  Biso   1.000  H
  O44      1.0000 0.15530  0.52320  0.52709  Biso   1.000  O
  C72      1.0000 0.12670  0.58130  0.55841  Biso   1.000  C
  C73      1.0000 0.58120  0.13760  0.56767  Biso   1.000  C
  H42      1.0000 0.51110  0.13320  0.56330  Biso   1.000  H
  C74      1.0000 0.79130  0.15630  0.57985  Biso   1.000  C
  C75      1.0000 0.70870  0.15830  0.59278  Biso   1.000  C
  H43      1.0000 0.72340  0.16950  0.60560  Biso   1.000  H
  N5       1.0000 0.99050  0.78670  0.60293  Biso   1.000  N
  C76      1.0000 0.12390  0.34530  0.59127  Biso   1.000  C
  C77      1.0000 0.51420  0.15580  0.60105  Biso   1.000  C
  C78      1.0000 0.02500  0.97240  0.61169  Biso   1.000  C
  C79      1.0000 0.27370  0.11370  0.61137  Biso   1.000  C
  C80      1.0000 0.13360  0.60850  0.53797  Biso   1.000  C
  C81      1.0000 0.60110  0.14350  0.58679  Biso   1.000  C
  O45      1.0000 0.72010  0.10140  0.52303  Biso   1.000  O
  C82      1.0000 0.77180  0.14340  0.56053  Biso   1.000  C
  H44      1.0000 0.82760  0.13840  0.55180  Biso   1.000  H
  C83      1.0000 0.66550  0.13830  0.55466  Biso   1.000  C
  C84      1.0000 0.90340  0.16240  0.58637  Biso   1.000  C
  C85      1.0000 0.12850  0.45940  0.58461  Biso   1.000  C
  C86      1.0000 0.07990  0.73370  0.60471  Biso   1.000  C
  O46      1.0000 0.55580  0.14560  0.52783  Biso   1.000  O
  C87      1.0000 0.11090  0.66670  0.57124  Biso   1.000  C
  H45      1.0000 0.10650  0.73660  0.56680  Biso   1.000  H
  C88      1.0000 0.10180  0.64500  0.59079  Biso   1.000  C
  C89      1.0000 0.64240  0.12770  0.53343  Biso   1.000  C
  O47      1.0000 0.11740  0.69740  0.53192  Biso   1.000  O
  C90      1.0000 0.37740  0.06850  0.62019  Biso   1.000  C
  H46      1.0000 0.39830  0.10920  0.63150  Biso   1.000  H
  C91      1.0000 0.96160  0.87260  0.61554  Biso   1.000  C
  H47      1.0000 0.97500  0.84990  0.62870  Biso   1.000  H
  C92      1.0000 0.13770  0.47990  0.56485  Biso   1.000  C
  H48      1.0000 0.15110  0.42430  0.55640  Biso   1.000  H
  O48      1.0000 0.14050  0.75000  0.61838  Biso   1.000  O
  C93      1.0000 0.38960  0.89370  0.60684  Biso   1.000  C
  H49      1.0000 0.41140  0.82100  0.60970  Biso   1.000  H
  H50      1.0000 0.33060  0.89170  0.59790  Biso   1.000  H
  C94      1.0000 0.35840  0.95350  0.62496  Biso   1.000  C
  H51      1.0000 0.40250  0.93140  0.63560  Biso   1.000  H
  H52      1.0000 0.28400  0.94110  0.62810  Biso   1.000  H
  C95      1.0000 0.90570  0.77260  0.58858  Biso   1.000  C
  H53      1.0000 0.87230  0.70280  0.58960  Biso   1.000  H
  H54      1.0000 0.93280  0.78230  0.57580  Biso   1.000  H
  O49      1.0000 0.97400  0.13680  0.57423  Biso   1.000  O
  O50      1.0000 0.07080  0.98290  0.59567  Biso   1.000  O
  N6       1.0000 0.46480  0.06560  0.60612  Biso   1.000  N
  O51      1.0000 0.99140  0.52560  0.50058  Biso   1.000  O
  O52      1.0000 0.55060  0.30410  0.50086  Biso   1.000  O
  C96      1.0000 0.64420  0.31250  0.49743  Biso   1.000  C
  O53      1.0000 0.72450  0.27080  0.49596  Biso   1.000  O
  O54      1.0000 0.95670  0.70600  0.50470  Biso   1.000  O
  C97      1.0000 0.94320  0.60610  0.50373  Biso   1.000  C
  C98      1.0000 0.48100  0.95700  0.59904  Biso   1.000  C
  H55      1.0000 0.54860  0.92840  0.60350  Biso   1.000  H
  H56      1.0000 0.48050  0.95580  0.58520  Biso   1.000  H
  C99      1.0000 0.65900  0.44590  0.50090  Biso   1.000  C
  C100     1.0000 0.84870  0.89370  0.61330  Biso   1.000  C
  H57      1.0000 0.80670  0.85160  0.62220  Biso   1.000  H
  H58      1.0000 0.83290  0.96890  0.61530  Biso   1.000  H
  C101     1.0000 0.82800  0.86270  0.59420  Biso   1.000  C
  H59      1.0000 0.83750  0.92340  0.58580  Biso   1.000  H
  H60      1.0000 0.75480  0.83790  0.59300  Biso   1.000  H
  C102     1.0000 0.77770  0.48260  0.50320  Biso   1.000  C
  C103     1.0000 0.58700  0.51500  0.50320  Biso   1.000  C
  C104     1.0000 0.81830  0.58080  0.50160  Biso   1.000  C
  C105     1.0000 0.74200  0.64500  0.50410  Biso   1.000  C
  Cu13     1.0000 0.87977  0.88199  0.08313  Biso   1.000  Cu
  Cu14     1.0000 0.94081  0.81310  0.11729  Biso   1.000  Cu
  Cu15     1.0000 0.27676  0.89640  0.99547  Biso   1.000  Cu
  Cu16     1.0000 0.47478  0.84519  0.00029  Biso   1.000  Cu
  O55      1.0000 0.97860  0.95670  0.12445  Biso   1.000  O
  O56      1.0000 0.07970  0.80620  0.10310  Biso   1.000  O
  O57      1.0000 0.79100  0.84580  0.12356  Biso   1.000  O
  O58      1.0000 0.90150  0.67130  0.10798  Biso   1.000  O
  O59      1.0000 0.51020  0.75720  0.10776  Biso   1.000  O
  O60      1.0000 0.74130  0.89940  0.09430  Biso   1.000  O
  O61      1.0000 0.85360  0.73020  0.07905  Biso   1.000  O
  C106     1.0000 0.88930  0.45840  0.09737  Biso   1.000  C
  H61      1.0000 0.89520  0.47280  0.11030  Biso   1.000  H
  O62      1.0000 0.84470  0.47680  0.02709  Biso   1.000  O
  C107     1.0000 0.87330  0.41870  0.05841  Biso   1.000  C
  C108     1.0000 0.41880  0.86240  0.06767  Biso   1.000  C
  H62      1.0000 0.48890  0.86680  0.06330  Biso   1.000  H
  C109     1.0000 0.20870  0.84370  0.07985  Biso   1.000  C
  C110     1.0000 0.29130  0.84170  0.09278  Biso   1.000  C
  H63      1.0000 0.27660  0.83050  0.10560  Biso   1.000  H
  N7       1.0000 0.00950  0.21330  0.10293  Biso   1.000  N
  C111     1.0000 0.87610  0.65470  0.09127  Biso   1.000  C
  C112     1.0000 0.48580  0.84420  0.10105  Biso   1.000  C
  C113     1.0000 0.97500  0.02760  0.11169  Biso   1.000  C
  C114     1.0000 0.72630  0.88630  0.11137  Biso   1.000  C
  C115     1.0000 0.86640  0.39150  0.03797  Biso   1.000  C
  C116     1.0000 0.39890  0.85650  0.08679  Biso   1.000  C
  O63      1.0000 0.27990  0.89860  0.02303  Biso   1.000  O
  C117     1.0000 0.22820  0.85660  0.06053  Biso   1.000  C
  H64      1.0000 0.17240  0.86160  0.05180  Biso   1.000  H
  C118     1.0000 0.33450  0.86170  0.05466  Biso   1.000  C
  C119     1.0000 0.09660  0.83760  0.08637  Biso   1.000  C
  C120     1.0000 0.87150  0.54060  0.08461  Biso   1.000  C
  C121     1.0000 0.92010  0.26630  0.10471  Biso   1.000  C
  O64      1.0000 0.44420  0.85440  0.02783  Biso   1.000  O
  C122     1.0000 0.88910  0.33330  0.07124  Biso   1.000  C
  H65      1.0000 0.89350  0.26340  0.06680  Biso   1.000  H
  C123     1.0000 0.89820  0.35500  0.09079  Biso   1.000  C
  C124     1.0000 0.35760  0.87230  0.03343  Biso   1.000  C
  O65      1.0000 0.88260  0.30260  0.03192  Biso   1.000  O
  C125     1.0000 0.62260  0.93150  0.12019  Biso   1.000  C
  H66      1.0000 0.60170  0.89080  0.13150  Biso   1.000  H
  C126     1.0000 0.03840  0.12740  0.11554  Biso   1.000  C
  H67      1.0000 0.02500  0.15010  0.12870  Biso   1.000  H
  C127     1.0000 0.86230  0.52010  0.06485  Biso   1.000  C
  H68      1.0000 0.84890  0.57570  0.05640  Biso   1.000  H
  O66      1.0000 0.85950  0.25000  0.11838  Biso   1.000  O
  C128     1.0000 0.61040  0.10630  0.10684  Biso   1.000  C
  H69      1.0000 0.58860  0.17900  0.10970  Biso   1.000  H
  H70      1.0000 0.66940  0.10830  0.09790  Biso   1.000  H
  C129     1.0000 0.64160  0.04650  0.12496  Biso   1.000  C
  H71      1.0000 0.59750  0.06860  0.13560  Biso   1.000  H
  H72      1.0000 0.71600  0.05890  0.12810  Biso   1.000  H
  C130     1.0000 0.09430  0.22740  0.08858  Biso   1.000  C
  H73      1.0000 0.12770  0.29720  0.08960  Biso   1.000  H
  H74      1.0000 0.06720  0.21770  0.07580  Biso   1.000  H
  O67      1.0000 0.02600  0.86320  0.07423  Biso   1.000  O
  O68      1.0000 0.92920  0.01710  0.09567  Biso   1.000  O
  N8       1.0000 0.53520  0.93440  0.10612  Biso   1.000  N
  O69      1.0000 0.00860  0.47440  0.00058  Biso   1.000  O
  O70      1.0000 0.44940  0.69590  0.00086  Biso   1.000  O
  C131     1.0000 0.35580  0.68750  0.99743  Biso   1.000  C
  O71      1.0000 0.27550  0.72920  0.99596  Biso   1.000  O
  O72      1.0000 0.04330  0.29400  0.00470  Biso   1.000  O
  C132     1.0000 0.05680  0.39390  0.00373  Biso   1.000  C
  C133     1.0000 0.51900  0.04300  0.09904  Biso   1.000  C
  H75      1.0000 0.45140  0.07160  0.10350  Biso   1.000  H
  H76      1.0000 0.51950  0.04420  0.08520  Biso   1.000  H
  C134     1.0000 0.34100  0.55410  0.00090  Biso   1.000  C
  C135     1.0000 0.15130  0.10630  0.11330  Biso   1.000  C
  H77      1.0000 0.19330  0.14840  0.12220  Biso   1.000  H
  H78      1.0000 0.16710  0.03110  0.11530  Biso   1.000  H
  C136     1.0000 0.17200  0.13730  0.09420  Biso   1.000  C
  H79      1.0000 0.16250  0.07660  0.08580  Biso   1.000  H
  H80      1.0000 0.24520  0.16210  0.09300  Biso   1.000  H
  C137     1.0000 0.22230  0.51740  0.00320  Biso   1.000  C
  C138     1.0000 0.41300  0.48500  0.00320  Biso   1.000  C
  C139     1.0000 0.18170  0.41920  0.00160  Biso   1.000  C
  C140     1.0000 0.25800  0.35500  0.00410  Biso   1.000  C
  Cu17     1.0000 0.88199  0.87977  0.91687  Biso   1.000  Cu
  Cu18     1.0000 0.81310  0.94081  0.88271  Biso   1.000  Cu
  Cu19     1.0000 0.89640  0.27676  0.00453  Biso   1.000  Cu
  Cu20     1.0000 0.84519  0.47478  0.99971  Biso   1.000  Cu
  O73      1.0000 0.95670  0.97860  0.87555  Biso   1.000  O
  O74      1.0000 0.80620  0.07970  0.89690  Biso   1.000  O
  O75      1.0000 0.84580  0.79100  0.87644  Biso   1.000  O
  O76      1.0000 0.67130  0.90150  0.89202  Biso   1.000  O
  O77      1.0000 0.75720  0.51020  0.89224  Biso   1.000  O
  O78      1.0000 0.89940  0.74130  0.90570  Biso   1.000  O
  O79      1.0000 0.73020  0.85360  0.92095  Biso   1.000  O
  C141     1.0000 0.45840  0.88930  0.90263  Biso   1.000  C
  H81      1.0000 0.47280  0.89520  0.88970  Biso   1.000  H
  O80      1.0000 0.47680  0.84470  0.97291  Biso   1.000  O
  C142     1.0000 0.41870  0.87330  0.94159  Biso   1.000  C
  C143     1.0000 0.86240  0.41880  0.93233  Biso   1.000  C
  H82      1.0000 0.86680  0.48890  0.93670  Biso   1.000  H
  C144     1.0000 0.84370  0.20870  0.92015  Biso   1.000  C
  C145     1.0000 0.84170  0.29130  0.90722  Biso   1.000  C
  H83      1.0000 0.83050  0.27660  0.89440  Biso   1.000  H
  N9       1.0000 0.21330  0.00950  0.89707  Biso   1.000  N
  C146     1.0000 0.65470  0.87610  0.90873  Biso   1.000  C
  C147     1.0000 0.84420  0.48580  0.89895  Biso   1.000  C
  C148     1.0000 0.02760  0.97500  0.88831  Biso   1.000  C
  C149     1.0000 0.88630  0.72630  0.88863  Biso   1.000  C
  C150     1.0000 0.39150  0.86640  0.96203  Biso   1.000  C
  C151     1.0000 0.85650  0.39890  0.91321  Biso   1.000  C
  O81      1.0000 0.89860  0.27990  0.97697  Biso   1.000  O
  C152     1.0000 0.85660  0.22820  0.93947  Biso   1.000  C
  H84      1.0000 0.86160  0.17240  0.94820  Biso   1.000  H
  C153     1.0000 0.86170  0.33450  0.94534  Biso   1.000  C
  C154     1.0000 0.83760  0.09660  0.91363  Biso   1.000  C
  C155     1.0000 0.54060  0.87150  0.91539  Biso   1.000  C
  C156     1.0000 0.26630  0.92010  0.89529  Biso   1.000  C
  O82      1.0000 0.85440  0.44420  0.97217  Biso   1.000  O
  C157     1.0000 0.33330  0.88910  0.92876  Biso   1.000  C
  H85      1.0000 0.26340  0.89350  0.93320  Biso   1.000  H
  C158     1.0000 0.35500  0.89820  0.90921  Biso   1.000  C
  C159     1.0000 0.87230  0.35760  0.96657  Biso   1.000  C
  O83      1.0000 0.30260  0.88260  0.96808  Biso   1.000  O
  C160     1.0000 0.93150  0.62260  0.87981  Biso   1.000  C
  H86      1.0000 0.89080  0.60170  0.86850  Biso   1.000  H
  C161     1.0000 0.12740  0.03840  0.88446  Biso   1.000  C
  H87      1.0000 0.15010  0.02500  0.87130  Biso   1.000  H
  C162     1.0000 0.52010  0.86230  0.93515  Biso   1.000  C
  H88      1.0000 0.57570  0.84890  0.94360  Biso   1.000  H
  O84      1.0000 0.25000  0.85950  0.88162  Biso   1.000  O
  C163     1.0000 0.10630  0.61040  0.89316  Biso   1.000  C
  H89      1.0000 0.17900  0.58860  0.89030  Biso   1.000  H
  H90      1.0000 0.10830  0.66940  0.90210  Biso   1.000  H
  C164     1.0000 0.04650  0.64160  0.87504  Biso   1.000  C
  H91      1.0000 0.06860  0.59750  0.86440  Biso   1.000  H
  H92      1.0000 0.05890  0.71600  0.87190  Biso   1.000  H
  C165     1.0000 0.22740  0.09430  0.91142  Biso   1.000  C
  H93      1.0000 0.29720  0.12770  0.91040  Biso   1.000  H
  H94      1.0000 0.21770  0.06720  0.92420  Biso   1.000  H
  O85      1.0000 0.86320  0.02600  0.92577  Biso   1.000  O
  O86      1.0000 0.01710  0.92920  0.90433  Biso   1.000  O
  N10      1.0000 0.93440  0.53520  0.89388  Biso   1.000  N
  O87      1.0000 0.47440  0.00860  0.99942  Biso   1.000  O
  O88      1.0000 0.69590  0.44940  0.99914  Biso   1.000  O
  C166     1.0000 0.68750  0.35580  0.00257  Biso   1.000  C
  O89      1.0000 0.72920  0.27550  0.00404  Biso   1.000  O
  O90      1.0000 0.29400  0.04330  0.99530  Biso   1.000  O
  C167     1.0000 0.39390  0.05680  0.99627  Biso   1.000  C
  C168     1.0000 0.04300  0.51900  0.90096  Biso   1.000  C
  H95      1.0000 0.07160  0.45140  0.89650  Biso   1.000  H
  H96      1.0000 0.04420  0.51950  0.91480  Biso   1.000  H
  C169     1.0000 0.55410  0.34100  0.99910  Biso   1.000  C
  C170     1.0000 0.10630  0.15130  0.88670  Biso   1.000  C
  H97      1.0000 0.14840  0.19330  0.87780  Biso   1.000  H
  H98      1.0000 0.03110  0.16710  0.88470  Biso   1.000  H
  C171     1.0000 0.13730  0.17200  0.90580  Biso   1.000  C
  H99      1.0000 0.07660  0.16250  0.91420  Biso   1.000  H
  H100     1.0000 0.16210  0.24520  0.90700  Biso   1.000  H
  C172     1.0000 0.51740  0.22230  0.99680  Biso   1.000  C
  C173     1.0000 0.48500  0.41300  0.99680  Biso   1.000  C
  C174     1.0000 0.41920  0.18170  0.99840  Biso   1.000  C
  C175     1.0000 0.35500  0.25800  0.99590  Biso   1.000  C
  Cu21     1.0000 0.11801  0.12023  0.41687  Biso   1.000  Cu
  Cu22     1.0000 0.18690  0.05919  0.38271  Biso   1.000  Cu
  Cu23     1.0000 0.10360  0.72324  0.50453  Biso   1.000  Cu
  Cu24     1.0000 0.15481  0.52522  0.49971  Biso   1.000  Cu
  O91      1.0000 0.04330  0.02140  0.37555  Biso   1.000  O
  O92      1.0000 0.19380  0.92030  0.39690  Biso   1.000  O
  O93      1.0000 0.15420  0.20900  0.37644  Biso   1.000  O
  O94      1.0000 0.32870  0.09850  0.39202  Biso   1.000  O
  O95      1.0000 0.24280  0.48980  0.39224  Biso   1.000  O
  O96      1.0000 0.10060  0.25870  0.40570  Biso   1.000  O
  O97      1.0000 0.26980  0.14640  0.42095  Biso   1.000  O
  C176     1.0000 0.54160  0.11070  0.40263  Biso   1.000  C
  H101     1.0000 0.52720  0.10480  0.38970  Biso   1.000  H
  O98      1.0000 0.52320  0.15530  0.47291  Biso   1.000  O
  C177     1.0000 0.58130  0.12670  0.44159  Biso   1.000  C
  C178     1.0000 0.13760  0.58120  0.43233  Biso   1.000  C
  H102     1.0000 0.13320  0.51110  0.43670  Biso   1.000  H
  C179     1.0000 0.15630  0.79130  0.42015  Biso   1.000  C
  C180     1.0000 0.15830  0.70870  0.40722  Biso   1.000  C
  H103     1.0000 0.16950  0.72340  0.39440  Biso   1.000  H
  N11      1.0000 0.78670  0.99050  0.39707  Biso   1.000  N
  C181     1.0000 0.34530  0.12390  0.40873  Biso   1.000  C
  C182     1.0000 0.15580  0.51420  0.39895  Biso   1.000  C
  C183     1.0000 0.97240  0.02500  0.38831  Biso   1.000  C
  C184     1.0000 0.11370  0.27370  0.38863  Biso   1.000  C
  C185     1.0000 0.60850  0.13360  0.46203  Biso   1.000  C
  C186     1.0000 0.14350  0.60110  0.41321  Biso   1.000  C
  O99      1.0000 0.10140  0.72010  0.47697  Biso   1.000  O
  C187     1.0000 0.14340  0.77180  0.43947  Biso   1.000  C
  H104     1.0000 0.13840  0.82760  0.44820  Biso   1.000  H
  C188     1.0000 0.13830  0.66550  0.44534  Biso   1.000  C
  C189     1.0000 0.16240  0.90340  0.41363  Biso   1.000  C
  C190     1.0000 0.45940  0.12850  0.41539  Biso   1.000  C
  C191     1.0000 0.73370  0.07990  0.39529  Biso   1.000  C
  O100     1.0000 0.14560  0.55580  0.47217  Biso   1.000  O
  C192     1.0000 0.66670  0.11090  0.42876  Biso   1.000  C
  H105     1.0000 0.73660  0.10650  0.43320  Biso   1.000  H
  C193     1.0000 0.64500  0.10180  0.40921  Biso   1.000  C
  C194     1.0000 0.12770  0.64240  0.46657  Biso   1.000  C
  O101     1.0000 0.69740  0.11740  0.46808  Biso   1.000  O
  C195     1.0000 0.06850  0.37740  0.37981  Biso   1.000  C
  H106     1.0000 0.10920  0.39830  0.36850  Biso   1.000  H
  C196     1.0000 0.87260  0.96160  0.38446  Biso   1.000  C
  H107     1.0000 0.84990  0.97500  0.37130  Biso   1.000  H
  C197     1.0000 0.47990  0.13770  0.43515  Biso   1.000  C
  H108     1.0000 0.42430  0.15110  0.44360  Biso   1.000  H
  O102     1.0000 0.75000  0.14050  0.38162  Biso   1.000  O
  C198     1.0000 0.89370  0.38960  0.39316  Biso   1.000  C
  H109     1.0000 0.82100  0.41140  0.39030  Biso   1.000  H
  H110     1.0000 0.89170  0.33060  0.40210  Biso   1.000  H
  C199     1.0000 0.95350  0.35840  0.37504  Biso   1.000  C
  H111     1.0000 0.93140  0.40250  0.36440  Biso   1.000  H
  H112     1.0000 0.94110  0.28400  0.37190  Biso   1.000  H
  C200     1.0000 0.77260  0.90570  0.41142  Biso   1.000  C
  H113     1.0000 0.70280  0.87230  0.41040  Biso   1.000  H
  H114     1.0000 0.78230  0.93280  0.42420  Biso   1.000  H
  O103     1.0000 0.13680  0.97400  0.42577  Biso   1.000  O
  O104     1.0000 0.98290  0.07080  0.40433  Biso   1.000  O
  N12      1.0000 0.06560  0.46480  0.39388  Biso   1.000  N
  O105     1.0000 0.52560  0.99140  0.49942  Biso   1.000  O
  O106     1.0000 0.30410  0.55060  0.49914  Biso   1.000  O
  C201     1.0000 0.31250  0.64420  0.50257  Biso   1.000  C
  O107     1.0000 0.27080  0.72450  0.50404  Biso   1.000  O
  O108     1.0000 0.70600  0.95670  0.49530  Biso   1.000  O
  C202     1.0000 0.60610  0.94320  0.49627  Biso   1.000  C
  C203     1.0000 0.95700  0.48100  0.40096  Biso   1.000  C
  H115     1.0000 0.92840  0.54860  0.39650  Biso   1.000  H
  H116     1.0000 0.95580  0.48050  0.41480  Biso   1.000  H
  C204     1.0000 0.44590  0.65900  0.49910  Biso   1.000  C
  C205     1.0000 0.89370  0.84870  0.38670  Biso   1.000  C
  H117     1.0000 0.85160  0.80670  0.37780  Biso   1.000  H
  H118     1.0000 0.96890  0.83290  0.38470  Biso   1.000  H
  C206     1.0000 0.86270  0.82800  0.40580  Biso   1.000  C
  H119     1.0000 0.92340  0.83750  0.41420  Biso   1.000  H
  H120     1.0000 0.83790  0.75480  0.40700  Biso   1.000  H
  C207     1.0000 0.48260  0.77770  0.49680  Biso   1.000  C
  C208     1.0000 0.51500  0.58700  0.49680  Biso   1.000  C
  C209     1.0000 0.58080  0.81830  0.49840  Biso   1.000  C
  C210     1.0000 0.64500  0.74200  0.49590  Biso   1.000  C
  Cu25     1.0000 0.37977  0.61801  0.16687  Biso   1.000  Cu
  Cu26     1.0000 0.44081  0.68690  0.13271  Biso   1.000  Cu
  Cu27     1.0000 0.77676  0.60360  0.25453  Biso   1.000  Cu
  Cu28     1.0000 0.97478  0.65481  0.24971  Biso   1.000  Cu
  O109     1.0000 0.47860  0.54330  0.12555  Biso   1.000  O
  O110     1.0000 0.57970  0.69380  0.14690  Biso   1.000  O
  O111     1.0000 0.29100  0.65420  0.12644  Biso   1.000  O
  O112     1.0000 0.40150  0.82870  0.14202  Biso   1.000  O
  O113     1.0000 0.01020  0.74280  0.14224  Biso   1.000  O
  O114     1.0000 0.24130  0.60060  0.15570  Biso   1.000  O
  O115     1.0000 0.35360  0.76980  0.17095  Biso   1.000  O
  C211     1.0000 0.38930  0.04160  0.15263  Biso   1.000  C
  H121     1.0000 0.39520  0.02720  0.13970  Biso   1.000  H
  O116     1.0000 0.34470  0.02320  0.22291  Biso   1.000  O
  C212     1.0000 0.37330  0.08130  0.19159  Biso   1.000  C
  C213     1.0000 0.91880  0.63760  0.18233  Biso   1.000  C
  H122     1.0000 0.98890  0.63320  0.18670  Biso   1.000  H
  C214     1.0000 0.70870  0.65630  0.17015  Biso   1.000  C
  C215     1.0000 0.79130  0.65830  0.15722  Biso   1.000  C
  H123     1.0000 0.77660  0.66950  0.14440  Biso   1.000  H
  N13      1.0000 0.50950  0.28670  0.14707  Biso   1.000  N
  C216     1.0000 0.37610  0.84530  0.15873  Biso   1.000  C
  C217     1.0000 0.98580  0.65580  0.14895  Biso   1.000  C
  C218     1.0000 0.47500  0.47240  0.13831  Biso   1.000  C
  C219     1.0000 0.22630  0.61370  0.13863  Biso   1.000  C
  C220     1.0000 0.36640  0.10850  0.21203  Biso   1.000  C
  C221     1.0000 0.89890  0.64350  0.16321  Biso   1.000  C
  O117     1.0000 0.77990  0.60140  0.22697  Biso   1.000  O
  C222     1.0000 0.72820  0.64340  0.18947  Biso   1.000  C
  H124     1.0000 0.67240  0.63840  0.19820  Biso   1.000  H
  C223     1.0000 0.83450  0.63830  0.19534  Biso   1.000  C
  C224     1.0000 0.59660  0.66240  0.16363  Biso   1.000  C
  C225     1.0000 0.37150  0.95940  0.16539  Biso   1.000  C
  C226     1.0000 0.42010  0.23370  0.14529  Biso   1.000  C
  O118     1.0000 0.94420  0.64560  0.22217  Biso   1.000  O
  C227     1.0000 0.38910  0.16670  0.17876  Biso   1.000  C
  H125     1.0000 0.39350  0.23660  0.18320  Biso   1.000  H
  C228     1.0000 0.39820  0.14500  0.15921  Biso   1.000  C
  C229     1.0000 0.85760  0.62770  0.21657  Biso   1.000  C
  O119     1.0000 0.38260  0.19740  0.21808  Biso   1.000  O
  C230     1.0000 0.12260  0.56850  0.12981  Biso   1.000  C
  H126     1.0000 0.10170  0.60920  0.11850  Biso   1.000  H
  C231     1.0000 0.53840  0.37260  0.13446  Biso   1.000  C
  H127     1.0000 0.52500  0.34990  0.12130  Biso   1.000  H
  C232     1.0000 0.36230  0.97990  0.18515  Biso   1.000  C
  H128     1.0000 0.34890  0.92430  0.19360  Biso   1.000  H
  O120     1.0000 0.35950  0.25000  0.13162  Biso   1.000  O
  C233     1.0000 0.11040  0.39370  0.14316  Biso   1.000  C
  H129     1.0000 0.08860  0.32100  0.14030  Biso   1.000  H
  H130     1.0000 0.16940  0.39170  0.15210  Biso   1.000  H
  C234     1.0000 0.14160  0.45350  0.12504  Biso   1.000  C
  H131     1.0000 0.09750  0.43140  0.11440  Biso   1.000  H
  H132     1.0000 0.21600  0.44110  0.12190  Biso   1.000  H
  C235     1.0000 0.59430  0.27260  0.16142  Biso   1.000  C
  H133     1.0000 0.62770  0.20280  0.16040  Biso   1.000  H
  H134     1.0000 0.56720  0.28230  0.17420  Biso   1.000  H
  O121     1.0000 0.52600  0.63680  0.17577  Biso   1.000  O
  O122     1.0000 0.42920  0.48290  0.15433  Biso   1.000  O
  N14      1.0000 0.03520  0.56560  0.14388  Biso   1.000  N
  O123     1.0000 0.50860  0.02560  0.24942  Biso   1.000  O
  O124     1.0000 0.94940  0.80410  0.24914  Biso   1.000  O
  C236     1.0000 0.85580  0.81250  0.25257  Biso   1.000  C
  O125     1.0000 0.77550  0.77080  0.25404  Biso   1.000  O
  O126     1.0000 0.54330  0.20600  0.24530  Biso   1.000  O
  C237     1.0000 0.55680  0.10610  0.24627  Biso   1.000  C
  C238     1.0000 0.01900  0.45700  0.15096  Biso   1.000  C
  H135     1.0000 0.95140  0.42840  0.14650  Biso   1.000  H
  H136     1.0000 0.01950  0.45580  0.16480  Biso   1.000  H
  C239     1.0000 0.84100  0.94590  0.24910  Biso   1.000  C
  C240     1.0000 0.65130  0.39370  0.13670  Biso   1.000  C
  H137     1.0000 0.69330  0.35160  0.12780  Biso   1.000  H
  H138     1.0000 0.66710  0.46890  0.13470  Biso   1.000  H
  C241     1.0000 0.67200  0.36270  0.15580  Biso   1.000  C
  H139     1.0000 0.66250  0.42340  0.16420  Biso   1.000  H
  H140     1.0000 0.74520  0.33790  0.15700  Biso   1.000  H
  C242     1.0000 0.72230  0.98260  0.24680  Biso   1.000  C
  C243     1.0000 0.91300  0.01500  0.24680  Biso   1.000  C
  C244     1.0000 0.68170  0.08080  0.24840  Biso   1.000  C
  C245     1.0000 0.75800  0.14500  0.24590  Biso   1.000  C
  Cu29     1.0000 0.62023  0.38199  0.66687  Biso   1.000  Cu
  Cu30     1.0000 0.55919  0.31310  0.63271  Biso   1.000  Cu
  Cu31     1.0000 0.22324  0.39640  0.75453  Biso   1.000  Cu
  Cu32     1.0000 0.02522  0.34519  0.74971  Biso   1.000  Cu
  O127     1.0000 0.52140  0.45670  0.62555  Biso   1.000  O
  O128     1.0000 0.42030  0.30620  0.64690  Biso   1.000  O
  O129     1.0000 0.70900  0.34580  0.62644  Biso   1.000  O
  O130     1.0000 0.59850  0.17130  0.64202  Biso   1.000  O
  O131     1.0000 0.98980  0.25720  0.64224  Biso   1.000  O
  O132     1.0000 0.75870  0.39940  0.65570  Biso   1.000  O
  O133     1.0000 0.64640  0.23020  0.67095  Biso   1.000  O
  C246     1.0000 0.61070  0.95840  0.65263  Biso   1.000  C
  H141     1.0000 0.60480  0.97280  0.63970  Biso   1.000  H
  O134     1.0000 0.65530  0.97680  0.72291  Biso   1.000  O
  C247     1.0000 0.62670  0.91870  0.69159  Biso   1.000  C
  C248     1.0000 0.08120  0.36240  0.68233  Biso   1.000  C
  H142     1.0000 0.01110  0.36680  0.68670  Biso   1.000  H
  C249     1.0000 0.29130  0.34370  0.67015  Biso   1.000  C
  C250     1.0000 0.20870  0.34170  0.65722  Biso   1.000  C
  H143     1.0000 0.22340  0.33050  0.64440  Biso   1.000  H
  N15      1.0000 0.49050  0.71330  0.64707  Biso   1.000  N
  C251     1.0000 0.62390  0.15470  0.65873  Biso   1.000  C
  C252     1.0000 0.01420  0.34420  0.64895  Biso   1.000  C
  C253     1.0000 0.52500  0.52760  0.63831  Biso   1.000  C
  C254     1.0000 0.77370  0.38630  0.63863  Biso   1.000  C
  C255     1.0000 0.63360  0.89150  0.71203  Biso   1.000  C
  C256     1.0000 0.10110  0.35650  0.66321  Biso   1.000  C
  O135     1.0000 0.22010  0.39860  0.72697  Biso   1.000  O
  C257     1.0000 0.27180  0.35660  0.68947  Biso   1.000  C
  H144     1.0000 0.32760  0.36160  0.69820  Biso   1.000  H
  C258     1.0000 0.16550  0.36170  0.69534  Biso   1.000  C
  C259     1.0000 0.40340  0.33760  0.66363  Biso   1.000  C
  C260     1.0000 0.62850  0.04060  0.66539  Biso   1.000  C
  C261     1.0000 0.57990  0.76630  0.64529  Biso   1.000  C
  O136     1.0000 0.05580  0.35440  0.72217  Biso   1.000  O
  C262     1.0000 0.61090  0.83330  0.67876  Biso   1.000  C
  H145     1.0000 0.60650  0.76340  0.68320  Biso   1.000  H
  C263     1.0000 0.60180  0.85500  0.65921  Biso   1.000  C
  C264     1.0000 0.14240  0.37230  0.71657  Biso   1.000  C
  O137     1.0000 0.61740  0.80260  0.71808  Biso   1.000  O
  C265     1.0000 0.87740  0.43150  0.62981  Biso   1.000  C
  H146     1.0000 0.89830  0.39080  0.61850  Biso   1.000  H
  C266     1.0000 0.46160  0.62740  0.63446  Biso   1.000  C
  H147     1.0000 0.47500  0.65010  0.62130  Biso   1.000  H
  C267     1.0000 0.63770  0.02010  0.68515  Biso   1.000  C
  H148     1.0000 0.65110  0.07570  0.69360  Biso   1.000  H
  O138     1.0000 0.64050  0.75000  0.63162  Biso   1.000  O
  C268     1.0000 0.88960  0.60630  0.64316  Biso   1.000  C
  H149     1.0000 0.91140  0.67900  0.64030  Biso   1.000  H
  H150     1.0000 0.83060  0.60830  0.65210  Biso   1.000  H
  C269     1.0000 0.85840  0.54650  0.62504  Biso   1.000  C
  H151     1.0000 0.90250  0.56860  0.61440  Biso   1.000  H
  H152     1.0000 0.78400  0.55890  0.62190  Biso   1.000  H
  C270     1.0000 0.40570  0.72740  0.66142  Biso   1.000  C
  H153     1.0000 0.37230  0.79720  0.66040  Biso   1.000  H
  H154     1.0000 0.43280  0.71770  0.67420  Biso   1.000  H
  O139     1.0000 0.47400  0.36320  0.67577  Biso   1.000  O
  O140     1.0000 0.57080  0.51710  0.65433  Biso   1.000  O
  N16      1.0000 0.96480  0.43440  0.64388  Biso   1.000  N
  O141     1.0000 0.49140  0.97440  0.74942  Biso   1.000  O
  O142     1.0000 0.05060  0.19590  0.74914  Biso   1.000  O
  C271     1.0000 0.14420  0.18750  0.75257  Biso   1.000  C
  O143     1.0000 0.22450  0.22920  0.75404  Biso   1.000  O
  O144     1.0000 0.45670  0.79400  0.74530  Biso   1.000  O
  C272     1.0000 0.44320  0.89390  0.74627  Biso   1.000  C
  C273     1.0000 0.98100  0.54300  0.65096  Biso   1.000  C
  H155     1.0000 0.04860  0.57160  0.64650  Biso   1.000  H
  H156     1.0000 0.98050  0.54420  0.66480  Biso   1.000  H
  C274     1.0000 0.15900  0.05410  0.74910  Biso   1.000  C
  C275     1.0000 0.34870  0.60630  0.63670  Biso   1.000  C
  H157     1.0000 0.30670  0.64840  0.62780  Biso   1.000  H
  H158     1.0000 0.33290  0.53110  0.63470  Biso   1.000  H
  C276     1.0000 0.32800  0.63730  0.65580  Biso   1.000  C
  H159     1.0000 0.33750  0.57660  0.66420  Biso   1.000  H
  H160     1.0000 0.25480  0.66210  0.65700  Biso   1.000  H
  C277     1.0000 0.27770  0.01740  0.74680  Biso   1.000  C
  C278     1.0000 0.08700  0.98500  0.74680  Biso   1.000  C
  C279     1.0000 0.31830  0.91920  0.74840  Biso   1.000  C
  C280     1.0000 0.24200  0.85500  0.74590  Biso   1.000  C
  C281     1.0000 0.12870  0.87130  0.75000  Biso   1.000  C
  C282     1.0000 0.87130  0.12870  0.25000  Biso   1.000  C
  C283     1.0000 0.62870  0.62870  0.50000  Biso   1.000  C
  C284     1.0000 0.37130  0.37130  0.00000  Biso   1.000  C
