data_HOXGEH_clean
_audit_creation_date              2014-07-02
_audit_creation_method            'Materials Studio'
_symmetry_space_group_name_H-M    'P1'
_symmetry_Int_Tables_number       1
_symmetry_cell_setting            triclinic
loop_
_symmetry_equiv_pos_as_xyz
  x,y,z
_cell_length_a                    9.3234
_cell_length_b                    18.8230
_cell_length_c                    18.8230
_cell_angle_alpha                 62.6703
_cell_angle_beta                  80.4966
_cell_angle_gamma                 99.5034
loop_
_atom_site_label
_atom_site_type_symbol
_atom_site_fract_x
_atom_site_fract_y
_atom_site_fract_z
_atom_site_U_iso_or_equiv
_atom_site_adp_type
_atom_site_occupancy
Sn1    Sn    0.88542   0.49437   0.44323   0.01267  Uiso   1.00
Sn2    Sn    0.57114   0.00209   0.66504   0.01267  Uiso   1.00
Sn3    Sn    0.32865   0.44323   0.06240   0.01267  Uiso   1.00
Sn4    Sn    0.23618   0.66504   0.33287   0.01267  Uiso   1.00
Sn5    Sn    0.39105   0.06240   0.49437   0.01267  Uiso   1.00
Sn6    Sn    0.56905   0.33287   0.00209   0.01267  Uiso   1.00
Sn7    Sn    0.11458   0.50563   0.55677   0.01267  Uiso   1.00
Sn8    Sn    0.42886   0.99791   0.33496   0.01267  Uiso   1.00
Sn9    Sn    0.67135   0.55677   0.93760   0.01267  Uiso   1.00
Sn10   Sn    0.76382   0.33496   0.66713   0.01267  Uiso   1.00
Sn11   Sn    0.60895   0.93760   0.50563   0.01267  Uiso   1.00
Sn12   Sn    0.43095   0.66713   0.99791   0.01267  Uiso   1.00
H1     H     0.39640   0.21920   0.69330   0.01267  Uiso   1.00
H2     H     0.25310   0.14620   0.71450   0.01267  Uiso   1.00
H3     H     0.11930   0.15960   0.62050   0.01267  Uiso   1.00
H4     H     0.06910   0.23320   0.49400   0.01267  Uiso   1.00
H5     H     0.24970   0.35320   0.38540   0.01267  Uiso   1.00
H6     H     0.47650   0.39930   0.40750   0.01267  Uiso   1.00
H7     H     0.86100   0.05560   0.59660   0.01267  Uiso   1.00
H8     H     0.82980   0.06030   0.68020   0.01267  Uiso   1.00
H9     H     0.80440   0.13090   0.59780   0.01267  Uiso   1.00
H10    H     0.30650   0.94980   0.76950   0.01267  Uiso   1.00
H11    H     0.41200   0.89680   0.81700   0.01267  Uiso   1.00
H12    H     0.33640   0.87460   0.75670   0.01267  Uiso   1.00
H13    H     0.05900   0.44920   0.35810   0.01267  Uiso   1.00
H14    H     0.94650   0.36690   0.43750   0.01267  Uiso   1.00
H15    H     0.88870   0.41780   0.35820   0.01267  Uiso   1.00
H16    H     0.68170   0.57500   0.43320   0.01267  Uiso   1.00
H17    H     0.83530   0.63170   0.42840   0.01267  Uiso   1.00
H18    H     0.81400   0.62750   0.34770   0.01267  Uiso   1.00
H19    H     0.08970   0.69330   0.08750   0.01267  Uiso   1.00
H20    H     0.96760   0.71450   0.13930   0.01267  Uiso   1.00
H21    H     0.73980   0.62050   0.21990   0.01267  Uiso   1.00
H22    H     0.56310   0.49400   0.27280   0.01267  Uiso   1.00
H23    H     0.63510   0.38540   0.26140   0.01267  Uiso   1.00
H24    H     0.88400   0.40750   0.19320   0.01267  Uiso   1.00
H25    H     0.45760   0.59660   0.34780   0.01267  Uiso   1.00
H26    H     0.51000   0.68020   0.25950   0.01267  Uiso   1.00
H27    H     0.40220   0.59780   0.27130   0.01267  Uiso   1.00
H28    H     0.07600   0.76950   0.28070   0.01267  Uiso   1.00
H29    H     0.22900   0.81700   0.28620   0.01267  Uiso   1.00
H30    H     0.09310   0.75670   0.36870   0.01267  Uiso   1.00
H31    H     0.41710   0.35810   0.19270   0.01267  Uiso   1.00
H32    H     0.38400   0.43750   0.19560   0.01267  Uiso   1.00
H33    H     0.24690   0.35820   0.22400   0.01267  Uiso   1.00
H34    H     0.11490   0.43320   0.99180   0.01267  Uiso   1.00
H35    H     0.26370   0.42840   0.93990   0.01267  Uiso   1.00
H36    H     0.16170   0.34770   0.02480   0.01267  Uiso   1.00
H37    H     0.17720   0.08750   0.21920   0.01267  Uiso   1.00
H38    H     0.10690   0.13930   0.14620   0.01267  Uiso   1.00
H39    H     0.95970   0.21990   0.15960   0.01267  Uiso   1.00
H40    H     0.83590   0.27280   0.23320   0.01267  Uiso   1.00
H41    H     0.89650   0.26140   0.35320   0.01267  Uiso   1.00
H42    H     0.07720   0.19320   0.39930   0.01267  Uiso   1.00
H43    H     0.80540   0.34780   0.05560   0.01267  Uiso   1.00
H44    H     0.76950   0.25950   0.06030   0.01267  Uiso   1.00
H45    H     0.67350   0.27130   0.13090   0.01267  Uiso   1.00
H46    H     0.35670   0.28070   0.94980   0.01267  Uiso   1.00
H47    H     0.51520   0.28620   0.89680   0.01267  Uiso   1.00
H48    H     0.46180   0.36870   0.87460   0.01267  Uiso   1.00
H49    H     0.60980   0.19270   0.44920   0.01267  Uiso   1.00
H50    H     0.57960   0.19560   0.36690   0.01267  Uiso   1.00
H51    H     0.47090   0.22400   0.41780   0.01267  Uiso   1.00
H52    H     0.10670   0.99180   0.57500   0.01267  Uiso   1.00
H53    H     0.20360   0.93990   0.63170   0.01267  Uiso   1.00
H54    H     0.18650   0.02480   0.62750   0.01267  Uiso   1.00
H55    H     0.60360   0.78080   0.30670   0.01267  Uiso   1.00
H56    H     0.74690   0.85380   0.28550   0.01267  Uiso   1.00
H57    H     0.88070   0.84040   0.37950   0.01267  Uiso   1.00
H58    H     0.93090   0.76680   0.50600   0.01267  Uiso   1.00
H59    H     0.75030   0.64680   0.61460   0.01267  Uiso   1.00
H60    H     0.52350   0.60070   0.59250   0.01267  Uiso   1.00
H61    H     0.13900   0.94440   0.40340   0.01267  Uiso   1.00
H62    H     0.17020   0.93970   0.31980   0.01267  Uiso   1.00
H63    H     0.19560   0.86910   0.40220   0.01267  Uiso   1.00
H64    H     0.69350   0.05020   0.23050   0.01267  Uiso   1.00
H65    H     0.58800   0.10320   0.18300   0.01267  Uiso   1.00
H66    H     0.66360   0.12540   0.24330   0.01267  Uiso   1.00
H67    H     0.94100   0.55080   0.64190   0.01267  Uiso   1.00
H68    H     0.05350   0.63310   0.56250   0.01267  Uiso   1.00
H69    H     0.11130   0.58220   0.64180   0.01267  Uiso   1.00
H70    H     0.31830   0.42500   0.56680   0.01267  Uiso   1.00
H71    H     0.16470   0.36830   0.57160   0.01267  Uiso   1.00
H72    H     0.18600   0.37250   0.65230   0.01267  Uiso   1.00
H73    H     0.91030   0.30670   0.91250   0.01267  Uiso   1.00
H74    H     0.03240   0.28550   0.86070   0.01267  Uiso   1.00
H75    H     0.26020   0.37950   0.78010   0.01267  Uiso   1.00
H76    H     0.43690   0.50600   0.72720   0.01267  Uiso   1.00
H77    H     0.36490   0.61460   0.73860   0.01267  Uiso   1.00
H78    H     0.11600   0.59250   0.80680   0.01267  Uiso   1.00
H79    H     0.54240   0.40340   0.65220   0.01267  Uiso   1.00
H80    H     0.49000   0.31980   0.74050   0.01267  Uiso   1.00
H81    H     0.59780   0.40220   0.72870   0.01267  Uiso   1.00
H82    H     0.92400   0.23050   0.71930   0.01267  Uiso   1.00
H83    H     0.77100   0.18300   0.71380   0.01267  Uiso   1.00
H84    H     0.90690   0.24330   0.63130   0.01267  Uiso   1.00
H85    H     0.58290   0.64190   0.80730   0.01267  Uiso   1.00
H86    H     0.61600   0.56250   0.80440   0.01267  Uiso   1.00
H87    H     0.75310   0.64180   0.77600   0.01267  Uiso   1.00
H88    H     0.88510   0.56680   0.00820   0.01267  Uiso   1.00
H89    H     0.73630   0.57160   0.06010   0.01267  Uiso   1.00
H90    H     0.83830   0.65230   0.97520   0.01267  Uiso   1.00
H91    H     0.82280   0.91250   0.78080   0.01267  Uiso   1.00
H92    H     0.89310   0.86070   0.85380   0.01267  Uiso   1.00
H93    H     0.04030   0.78010   0.84040   0.01267  Uiso   1.00
H94    H     0.16410   0.72720   0.76680   0.01267  Uiso   1.00
H95    H     0.10350   0.73860   0.64680   0.01267  Uiso   1.00
H96    H     0.92280   0.80680   0.60070   0.01267  Uiso   1.00
H97    H     0.19460   0.65220   0.94440   0.01267  Uiso   1.00
H98    H     0.23050   0.74050   0.93970   0.01267  Uiso   1.00
H99    H     0.32650   0.72870   0.86910   0.01267  Uiso   1.00
H100   H     0.64330   0.71930   0.05020   0.01267  Uiso   1.00
H101   H     0.48480   0.71380   0.10320   0.01267  Uiso   1.00
H102   H     0.53820   0.63130   0.12540   0.01267  Uiso   1.00
H103   H     0.39020   0.80730   0.55080   0.01267  Uiso   1.00
H104   H     0.42040   0.80440   0.63310   0.01267  Uiso   1.00
H105   H     0.52910   0.77600   0.58220   0.01267  Uiso   1.00
H106   H     0.89330   0.00820   0.42500   0.01267  Uiso   1.00
H107   H     0.79640   0.06010   0.36830   0.01267  Uiso   1.00
H108   H     0.81350   0.97520   0.37250   0.01267  Uiso   1.00
C1     C     0.45454   0.12583   0.67781   0.01267  Uiso   1.00
C2     C     0.35317   0.18124   0.67463   0.01267  Uiso   1.00
C3     C     0.33055   0.23256   0.59041   0.01267  Uiso   1.00
C4     C     0.19386   0.20797   0.57689   0.01267  Uiso   1.00
C5     C     0.16328   0.25196   0.50172   0.01267  Uiso   1.00
C6     C     0.26938   0.32317   0.43763   0.01267  Uiso   1.00
C7     C     0.40433   0.34975   0.45086   0.01267  Uiso   1.00
C8     C     0.43710   0.30587   0.52587   0.01267  Uiso   1.00
C9     C     0.58482   0.34138   0.53492   0.01267  Uiso   1.00
C10    C     0.79666   0.07148   0.63030   0.01267  Uiso   1.00
C11    C     0.38118   0.91989   0.76545   0.01267  Uiso   1.00
C12    C     0.95404   0.42249   0.39247   0.01267  Uiso   1.00
C13    C     0.79163   0.59568   0.40849   0.01267  Uiso   1.00
C14    C     0.13235   0.67781   0.19636   0.01267  Uiso   1.00
C15    C     0.02780   0.67463   0.14413   0.01267  Uiso   1.00
C16    C     0.92096   0.59041   0.17703   0.01267  Uiso   1.00
C17    C     0.77075   0.57689   0.21514   0.01267  Uiso   1.00
C18    C     0.66500   0.50172   0.24632   0.01267  Uiso   1.00
C19    C     0.70701   0.43763   0.23920   0.01267  Uiso   1.00
C20    C     0.85519   0.45086   0.19939   0.01267  Uiso   1.00
C21    C     0.96297   0.52587   0.16826   0.01267  Uiso   1.00
C22    C     0.11974   0.53492   0.12370   0.01267  Uiso   1.00
C23    C     0.42696   0.63030   0.29822   0.01267  Uiso   1.00
C24    C     0.14663   0.76545   0.31466   0.01267  Uiso   1.00
C25    C     0.34651   0.39247   0.18504   0.01267  Uiso   1.00
C26    C     0.20012   0.40849   0.99583   0.01267  Uiso   1.00
C27    C     0.32871   0.19636   0.12583   0.01267  Uiso   1.00
C28    C     0.17193   0.14413   0.18124   0.01267  Uiso   1.00
C29    C     0.09799   0.17703   0.23256   0.01267  Uiso   1.00
C30    C     0.98589   0.21514   0.20797   0.01267  Uiso   1.00
C31    C     0.91132   0.24632   0.25196   0.01267  Uiso   1.00
C32    C     0.94621   0.23920   0.32317   0.01267  Uiso   1.00
C33    C     0.05458   0.19939   0.34975   0.01267  Uiso   1.00
C34    C     0.13123   0.16826   0.30587   0.01267  Uiso   1.00
C35    C     0.24344   0.12370   0.34138   0.01267  Uiso   1.00
C36    C     0.72518   0.29822   0.07148   0.01267  Uiso   1.00
C37    C     0.46129   0.31466   0.91989   0.01267  Uiso   1.00
C38    C     0.53155   0.18504   0.42249   0.01267  Uiso   1.00
C39    C     0.19595   0.99583   0.59568   0.01267  Uiso   1.00
C40    C     0.54546   0.87417   0.32219   0.01267  Uiso   1.00
C41    C     0.64683   0.81876   0.32537   0.01267  Uiso   1.00
C42    C     0.66945   0.76744   0.40959   0.01267  Uiso   1.00
C43    C     0.80614   0.79203   0.42311   0.01267  Uiso   1.00
C44    C     0.83672   0.74804   0.49828   0.01267  Uiso   1.00
C45    C     0.73062   0.67683   0.56237   0.01267  Uiso   1.00
C46    C     0.59567   0.65025   0.54914   0.01267  Uiso   1.00
C47    C     0.56290   0.69413   0.47413   0.01267  Uiso   1.00
C48    C     0.41518   0.65862   0.46508   0.01267  Uiso   1.00
C49    C     0.20334   0.92852   0.36970   0.01267  Uiso   1.00
C50    C     0.61882   0.08011   0.23455   0.01267  Uiso   1.00
C51    C     0.04596   0.57751   0.60753   0.01267  Uiso   1.00
C52    C     0.20837   0.40432   0.59151   0.01267  Uiso   1.00
C53    C     0.86765   0.32219   0.80364   0.01267  Uiso   1.00
C54    C     0.97220   0.32537   0.85587   0.01267  Uiso   1.00
C55    C     0.07904   0.40959   0.82297   0.01267  Uiso   1.00
C56    C     0.22925   0.42311   0.78486   0.01267  Uiso   1.00
C57    C     0.33500   0.49828   0.75368   0.01267  Uiso   1.00
C58    C     0.29299   0.56237   0.76080   0.01267  Uiso   1.00
C59    C     0.14481   0.54914   0.80061   0.01267  Uiso   1.00
C60    C     0.03703   0.47413   0.83174   0.01267  Uiso   1.00
C61    C     0.88026   0.46508   0.87630   0.01267  Uiso   1.00
C62    C     0.57304   0.36970   0.70178   0.01267  Uiso   1.00
C63    C     0.85337   0.23455   0.68534   0.01267  Uiso   1.00
C64    C     0.65349   0.60753   0.81496   0.01267  Uiso   1.00
C65    C     0.79988   0.59151   0.00417   0.01267  Uiso   1.00
C66    C     0.67129   0.80364   0.87417   0.01267  Uiso   1.00
C67    C     0.82807   0.85587   0.81876   0.01267  Uiso   1.00
C68    C     0.90201   0.82297   0.76744   0.01267  Uiso   1.00
C69    C     0.01411   0.78486   0.79203   0.01267  Uiso   1.00
C70    C     0.08868   0.75368   0.74804   0.01267  Uiso   1.00
C71    C     0.05379   0.76080   0.67683   0.01267  Uiso   1.00
C72    C     0.94542   0.80061   0.65025   0.01267  Uiso   1.00
C73    C     0.86877   0.83174   0.69413   0.01267  Uiso   1.00
C74    C     0.75656   0.87630   0.65862   0.01267  Uiso   1.00
C75    C     0.27482   0.70178   0.92852   0.01267  Uiso   1.00
C76    C     0.53871   0.68534   0.08011   0.01267  Uiso   1.00
C77    C     0.46845   0.81496   0.57751   0.01267  Uiso   1.00
C78    C     0.80405   0.00417   0.40432   0.01267  Uiso   1.00
O1     O     0.47034   0.10503   0.62131   0.01267  Uiso   1.00
O2     O     0.51293   0.09774   0.73585   0.01267  Uiso   1.00
O3     O     0.63969   0.29515   0.58988   0.01267  Uiso   1.00
O4     O     0.64538   0.41832   0.48568   0.01267  Uiso   1.00
O5     O     0.89592   0.43979   0.56313   0.01267  Uiso   1.00
O6     O     0.09165   0.62131   0.27366   0.01267  Uiso   1.00
O7     O     0.24878   0.73585   0.16641   0.01267  Uiso   1.00
O8     O     0.22957   0.58988   0.11497   0.01267  Uiso   1.00
O9     O     0.13106   0.48568   0.09600   0.01267  Uiso   1.00
O10    O     0.45905   0.56313   0.99708   0.01267  Uiso   1.00
O11    O     0.36531   0.27366   0.10503   0.01267  Uiso   1.00
O12    O     0.41519   0.16641   0.09774   0.01267  Uiso   1.00
O13    O     0.34454   0.11497   0.29515   0.01267  Uiso   1.00
O14    O     0.22706   0.09600   0.41832   0.01267  Uiso   1.00
O15    O     0.45613   0.99708   0.43979   0.01267  Uiso   1.00
O16    O     0.52966   0.89497   0.37869   0.01267  Uiso   1.00
O17    O     0.48707   0.90226   0.26415   0.01267  Uiso   1.00
O18    O     0.36031   0.70485   0.41012   0.01267  Uiso   1.00
O19    O     0.35462   0.58168   0.51432   0.01267  Uiso   1.00
O20    O     0.10408   0.56021   0.43687   0.01267  Uiso   1.00
O21    O     0.90835   0.37869   0.72634   0.01267  Uiso   1.00
O22    O     0.75122   0.26415   0.83359   0.01267  Uiso   1.00
O23    O     0.77043   0.41012   0.88503   0.01267  Uiso   1.00
O24    O     0.86894   0.51432   0.90400   0.01267  Uiso   1.00
O25    O     0.54095   0.43687   0.00292   0.01267  Uiso   1.00
O26    O     0.63469   0.72634   0.89497   0.01267  Uiso   1.00
O27    O     0.58481   0.83359   0.90226   0.01267  Uiso   1.00
O28    O     0.65546   0.88503   0.70485   0.01267  Uiso   1.00
O29    O     0.77294   0.90400   0.58168   0.01267  Uiso   1.00
O30    O     0.54387   0.00292   0.56021   0.01267  Uiso   1.00
