data_HOXKUB_clean
_audit_creation_date              2014-07-02
_audit_creation_method            'Materials Studio'
_symmetry_space_group_name_H-M    'P1'
_symmetry_Int_Tables_number       1
_symmetry_cell_setting            triclinic
loop_
_symmetry_equiv_pos_as_xyz
  x,y,z
_cell_length_a                    11.4920
_cell_length_b                    17.3260
_cell_length_c                    17.3260
_cell_angle_alpha                 106.0500
_cell_angle_beta                  90.0000
_cell_angle_gamma                 90.0000
loop_
_atom_site_label
_atom_site_type_symbol
_atom_site_fract_x
_atom_site_fract_y
_atom_site_fract_z
_atom_site_U_iso_or_equiv
_atom_site_adp_type
_atom_site_occupancy
Yb1    Yb    0.39367   0.08427   0.99054   0.01267  Uiso   1.00
Yb2    Yb    0.94478   0.10891   0.48499   0.01267  Uiso   1.00
Yb3    Yb    0.89367   0.41573   0.50946   0.01267  Uiso   1.00
Yb4    Yb    0.44478   0.39109   0.01501   0.01267  Uiso   1.00
Yb5    Yb    0.60633   0.91573   0.00946   0.01267  Uiso   1.00
Yb6    Yb    0.05522   0.89109   0.51501   0.01267  Uiso   1.00
Yb7    Yb    0.10633   0.58427   0.49054   0.01267  Uiso   1.00
Yb8    Yb    0.55522   0.60891   0.98499   0.01267  Uiso   1.00
H1     H     0.46260   0.91910   0.21240   0.01267  Uiso   1.00
H2     H     0.36940   0.90860   0.33710   0.01267  Uiso   1.00
H3     H     0.15830   0.22640   0.66330   0.01267  Uiso   1.00
H4     H     0.27080   0.29700   0.78390   0.01267  Uiso   1.00
H5     H     0.62150   0.27330   0.17470   0.01267  Uiso   1.00
H6     H     0.71280   0.32650   0.30630   0.01267  Uiso   1.00
H7     H     0.96260   0.58090   0.28760   0.01267  Uiso   1.00
H8     H     0.86940   0.59140   0.16290   0.01267  Uiso   1.00
H9     H     0.65830   0.27360   0.83670   0.01267  Uiso   1.00
H10    H     0.77080   0.20300   0.71610   0.01267  Uiso   1.00
H11    H     0.12150   0.22670   0.32530   0.01267  Uiso   1.00
H12    H     0.21280   0.17350   0.19370   0.01267  Uiso   1.00
H13    H     0.53740   0.08090   0.78760   0.01267  Uiso   1.00
H14    H     0.63060   0.09140   0.66290   0.01267  Uiso   1.00
H15    H     0.84170   0.77360   0.33670   0.01267  Uiso   1.00
H16    H     0.72920   0.70300   0.21610   0.01267  Uiso   1.00
H17    H     0.37850   0.72670   0.82530   0.01267  Uiso   1.00
H18    H     0.28720   0.67350   0.69370   0.01267  Uiso   1.00
H19    H     0.03740   0.41910   0.71240   0.01267  Uiso   1.00
H20    H     0.13060   0.40860   0.83710   0.01267  Uiso   1.00
H21    H     0.34170   0.72640   0.16330   0.01267  Uiso   1.00
H22    H     0.22920   0.79700   0.28390   0.01267  Uiso   1.00
H23    H     0.87850   0.77330   0.67470   0.01267  Uiso   1.00
H24    H     0.78720   0.82650   0.80630   0.01267  Uiso   1.00
C1     C     0.35670   0.01210   0.11780   0.01267  Uiso   1.00
C2     C     0.33140   0.99030   0.19370   0.01267  Uiso   1.00
C3     C     0.39280   0.94430   0.23180   0.01267  Uiso   1.00
C4     C     0.33930   0.93850   0.30460   0.01267  Uiso   1.00
C5     C     0.23960   0.98150   0.32050   0.01267  Uiso   1.00
C6     C     0.15870   0.98850   0.39070   0.01267  Uiso   1.00
C7     C     0.14160   0.06020   0.61300   0.01267  Uiso   1.00
C8     C     0.20130   0.12030   0.68160   0.01267  Uiso   1.00
C9     C     0.19770   0.20040   0.69570   0.01267  Uiso   1.00
C10    C     0.26140   0.24160   0.76640   0.01267  Uiso   1.00
C11    C     0.30660   0.18930   0.80500   0.01267  Uiso   1.00
C12    C     0.37180   0.21110   0.88070   0.01267  Uiso   1.00
C13    C     0.63850   0.10990   0.09530   0.01267  Uiso   1.00
C14    C     0.68370   0.16430   0.17080   0.01267  Uiso   1.00
C15    C     0.66480   0.24240   0.20050   0.01267  Uiso   1.00
C16    C     0.71890   0.27300   0.27660   0.01267  Uiso   1.00
C17    C     0.77970   0.21860   0.30210   0.01267  Uiso   1.00
C18    C     0.83790   0.22850   0.37970   0.01267  Uiso   1.00
C19    C     0.85670   0.48790   0.38220   0.01267  Uiso   1.00
C20    C     0.83140   0.50970   0.30630   0.01267  Uiso   1.00
C21    C     0.89280   0.55570   0.26820   0.01267  Uiso   1.00
C22    C     0.83930   0.56150   0.19540   0.01267  Uiso   1.00
C23    C     0.73960   0.51850   0.17950   0.01267  Uiso   1.00
C24    C     0.65870   0.51150   0.10930   0.01267  Uiso   1.00
C25    C     0.64160   0.43980   0.88700   0.01267  Uiso   1.00
C26    C     0.70130   0.37970   0.81840   0.01267  Uiso   1.00
C27    C     0.69770   0.29960   0.80430   0.01267  Uiso   1.00
C28    C     0.76140   0.25840   0.73360   0.01267  Uiso   1.00
C29    C     0.80660   0.31070   0.69500   0.01267  Uiso   1.00
C30    C     0.87180   0.28890   0.61930   0.01267  Uiso   1.00
C31    C     0.13850   0.39010   0.40470   0.01267  Uiso   1.00
C32    C     0.18370   0.33570   0.32920   0.01267  Uiso   1.00
C33    C     0.16480   0.25760   0.29950   0.01267  Uiso   1.00
C34    C     0.21890   0.22700   0.22340   0.01267  Uiso   1.00
C35    C     0.27970   0.28140   0.19790   0.01267  Uiso   1.00
C36    C     0.33790   0.27150   0.12030   0.01267  Uiso   1.00
C37    C     0.64330   0.98790   0.88220   0.01267  Uiso   1.00
C38    C     0.66860   0.00970   0.80630   0.01267  Uiso   1.00
C39    C     0.60720   0.05570   0.76820   0.01267  Uiso   1.00
C40    C     0.66070   0.06150   0.69540   0.01267  Uiso   1.00
C41    C     0.76040   0.01850   0.67950   0.01267  Uiso   1.00
C42    C     0.84130   0.01150   0.60930   0.01267  Uiso   1.00
C43    C     0.85840   0.93980   0.38700   0.01267  Uiso   1.00
C44    C     0.79870   0.87970   0.31840   0.01267  Uiso   1.00
C45    C     0.80230   0.79960   0.30430   0.01267  Uiso   1.00
C46    C     0.73860   0.75840   0.23360   0.01267  Uiso   1.00
C47    C     0.69340   0.81070   0.19500   0.01267  Uiso   1.00
C48    C     0.62820   0.78890   0.11930   0.01267  Uiso   1.00
C49    C     0.36150   0.89010   0.90470   0.01267  Uiso   1.00
C50    C     0.31630   0.83570   0.82920   0.01267  Uiso   1.00
C51    C     0.33520   0.75760   0.79950   0.01267  Uiso   1.00
C52    C     0.28110   0.72700   0.72340   0.01267  Uiso   1.00
C53    C     0.22030   0.78140   0.69790   0.01267  Uiso   1.00
C54    C     0.16210   0.77150   0.62030   0.01267  Uiso   1.00
C55    C     0.14330   0.51210   0.61780   0.01267  Uiso   1.00
C56    C     0.16860   0.49030   0.69370   0.01267  Uiso   1.00
C57    C     0.10720   0.44430   0.73180   0.01267  Uiso   1.00
C58    C     0.16070   0.43850   0.80460   0.01267  Uiso   1.00
C59    C     0.26040   0.48150   0.82050   0.01267  Uiso   1.00
C60    C     0.34130   0.48850   0.89070   0.01267  Uiso   1.00
C61    C     0.35840   0.56020   0.11300   0.01267  Uiso   1.00
C62    C     0.29870   0.62030   0.18160   0.01267  Uiso   1.00
C63    C     0.30230   0.70040   0.19570   0.01267  Uiso   1.00
C64    C     0.23860   0.74160   0.26640   0.01267  Uiso   1.00
C65    C     0.19340   0.68930   0.30500   0.01267  Uiso   1.00
C66    C     0.12820   0.71110   0.38070   0.01267  Uiso   1.00
C67    C     0.86150   0.60990   0.59530   0.01267  Uiso   1.00
C68    C     0.81630   0.66430   0.67080   0.01267  Uiso   1.00
C69    C     0.83520   0.74240   0.70050   0.01267  Uiso   1.00
C70    C     0.78110   0.77300   0.77660   0.01267  Uiso   1.00
C71    C     0.72030   0.71860   0.80210   0.01267  Uiso   1.00
C72    C     0.66210   0.72850   0.87970   0.01267  Uiso   1.00
S1     S     0.21060   0.02890   0.24885   0.01267  Uiso   1.00
S2     S     0.28170   0.09252   0.75164   0.01267  Uiso   1.00
S3     S     0.77000   0.12644   0.23344   0.01267  Uiso   1.00
S4     S     0.71060   0.47110   0.25115   0.01267  Uiso   1.00
S5     S     0.78170   0.40748   0.74836   0.01267  Uiso   1.00
S6     S     0.27000   0.37356   0.26656   0.01267  Uiso   1.00
S7     S     0.78940   0.97110   0.75115   0.01267  Uiso   1.00
S8     S     0.71830   0.90748   0.24836   0.01267  Uiso   1.00
S9     S     0.23000   0.87356   0.76656   0.01267  Uiso   1.00
S10    S     0.28940   0.52890   0.74885   0.01267  Uiso   1.00
S11    S     0.21830   0.59252   0.25164   0.01267  Uiso   1.00
S12    S     0.73000   0.62644   0.73344   0.01267  Uiso   1.00
O1     O     0.28600   0.05200   0.09290   0.01267  Uiso   1.00
O2     O     0.45390   0.99170   0.08340   0.01267  Uiso   1.00
O3     O     0.08030   0.04090   0.39570   0.01267  Uiso   1.00
O4     O     0.17230   0.94360   0.43510   0.01267  Uiso   1.00
O5     O     0.16550   0.98820   0.60590   0.01267  Uiso   1.00
O6     O     0.07290   0.08510   0.57050   0.01267  Uiso   1.00
O7     O     0.42180   0.15490   0.90280   0.01267  Uiso   1.00
O8     O     0.37580   0.28260   0.91950   0.01267  Uiso   1.00
O9     O     0.56070   0.13640   0.05660   0.01267  Uiso   1.00
O10    O     0.67480   0.03870   0.07650   0.01267  Uiso   1.00
O11    O     0.84520   0.29610   0.42690   0.01267  Uiso   1.00
O12    O     0.87210   0.16770   0.39660   0.01267  Uiso   1.00
O13    O     0.78600   0.44800   0.40710   0.01267  Uiso   1.00
O14    O     0.95390   0.50830   0.41660   0.01267  Uiso   1.00
O15    O     0.58030   0.45910   0.10430   0.01267  Uiso   1.00
O16    O     0.67230   0.55640   0.06490   0.01267  Uiso   1.00
O17    O     0.66550   0.51180   0.89410   0.01267  Uiso   1.00
O18    O     0.57290   0.41490   0.92950   0.01267  Uiso   1.00
O19    O     0.92180   0.34510   0.59720   0.01267  Uiso   1.00
O20    O     0.87580   0.21740   0.58050   0.01267  Uiso   1.00
O21    O     0.06070   0.36360   0.44340   0.01267  Uiso   1.00
O22    O     0.17480   0.46130   0.42350   0.01267  Uiso   1.00
O23    O     0.34520   0.20390   0.07310   0.01267  Uiso   1.00
O24    O     0.37210   0.33230   0.10340   0.01267  Uiso   1.00
O25    O     0.71400   0.94800   0.90710   0.01267  Uiso   1.00
O26    O     0.54610   0.00830   0.91660   0.01267  Uiso   1.00
O27    O     0.91970   0.95910   0.60430   0.01267  Uiso   1.00
O28    O     0.82770   0.05640   0.56490   0.01267  Uiso   1.00
O29    O     0.83450   0.01180   0.39410   0.01267  Uiso   1.00
O30    O     0.92710   0.91490   0.42950   0.01267  Uiso   1.00
O31    O     0.57820   0.84510   0.09720   0.01267  Uiso   1.00
O32    O     0.62420   0.71740   0.08050   0.01267  Uiso   1.00
O33    O     0.43930   0.86360   0.94340   0.01267  Uiso   1.00
O34    O     0.32520   0.96130   0.92350   0.01267  Uiso   1.00
O35    O     0.15480   0.70390   0.57310   0.01267  Uiso   1.00
O36    O     0.12790   0.83230   0.60340   0.01267  Uiso   1.00
O37    O     0.21400   0.55200   0.59290   0.01267  Uiso   1.00
O38    O     0.04610   0.49170   0.58340   0.01267  Uiso   1.00
O39    O     0.41970   0.54090   0.89570   0.01267  Uiso   1.00
O40    O     0.32770   0.44360   0.93510   0.01267  Uiso   1.00
O41    O     0.33450   0.48820   0.10590   0.01267  Uiso   1.00
O42    O     0.42710   0.58510   0.07050   0.01267  Uiso   1.00
O43    O     0.07820   0.65490   0.40280   0.01267  Uiso   1.00
O44    O     0.12420   0.78260   0.41950   0.01267  Uiso   1.00
O45    O     0.93930   0.63640   0.55660   0.01267  Uiso   1.00
O46    O     0.82520   0.53870   0.57650   0.01267  Uiso   1.00
O47    O     0.65480   0.79610   0.92690   0.01267  Uiso   1.00
O48    O     0.62790   0.66770   0.89660   0.01267  Uiso   1.00
