data_image0
_cell_length_a       42.61
_cell_length_b       6.32
_cell_length_c       25.202
_cell_angle_alpha    90
_cell_angle_beta     126.229
_cell_angle_gamma    90

_symmetry_space_group_name_H-M    "P 1"
_symmetry_int_tables_number       1

loop_
  _symmetry_equiv_pos_as_xyz
  'x, y, z'

loop_
  _atom_site_label
  _atom_site_occupancy
  _atom_site_fract_x
  _atom_site_fract_y
  _atom_site_fract_z
  _atom_site_thermal_displace_type
  _atom_site_B_iso_or_equiv
  _atom_site_type_symbol
  C1       1.0000 0.60305  0.14579  0.73854  Biso   1.000  C
  H1       1.0000 0.59370  0.00450  0.73140  Biso   1.000  H
  Ni1      1.0000 0.24269  0.75006  0.55194  Biso   1.000  Ni
  O1       1.0000 0.26627  0.94533  0.52004  Biso   1.000  O
  C2       1.0000 0.63117  0.55181  0.75936  Biso   1.000  C
  H2       1.0000 0.64090  0.69190  0.76610  Biso   1.000  H
  O2       1.0000 0.71588  0.29253  0.89797  Biso   1.000  O
  C3       1.0000 0.59406  0.50416  0.70326  Biso   1.000  C
  H3       1.0000 0.57860  0.61250  0.67240  Biso   1.000  H
  C4       1.0000 0.65361  0.39788  0.80474  Biso   1.000  C
  O3       1.0000 0.70279  0.63817  0.87744  Biso   1.000  O
  C5       1.0000 0.63942  0.19339  0.79454  Biso   1.000  C
  H4       1.0000 0.65470  0.08620  0.82610  Biso   1.000  H
  C6       1.0000 0.49877  0.93763  0.47541  Biso   1.000  C
  C7       1.0000 0.56988  0.93965  0.54021  Biso   1.000  C
  H5       1.0000 0.59310  0.89990  0.54550  Biso   1.000  H
  O4       1.0000 0.31285  0.63911  0.51158  Biso   1.000  O
  C8       1.0000 0.37660  0.19372  0.55352  Biso   1.000  C
  H6       1.0000 0.36220  0.08560  0.55640  Biso   1.000  H
  C9       1.0000 0.57255  0.05295  0.58736  Biso   1.000  C
  H7       1.0000 0.59760  0.08900  0.62560  Biso   1.000  H
  O5       1.0000 0.29998  0.29193  0.50431  Biso   1.000  O
  C10      1.0000 0.69376  0.44923  0.86505  Biso   1.000  C
  C11      1.0000 0.53859  0.12219  0.58200  Biso   1.000  C
  C12      1.0000 0.41227  0.14809  0.56568  Biso   1.000  C
  H8       1.0000 0.42200  0.00760  0.57710  Biso   1.000  H
  C13      1.0000 0.57971  0.30084  0.69227  Biso   1.000  C
  C14      1.0000 0.32212  0.44720  0.51676  Biso   1.000  C
  C15      1.0000 0.53296  0.87562  0.48158  Biso   1.000  C
  C16      1.0000 0.38473  0.55609  0.53710  Biso   1.000  C
  H9       1.0000 0.37590  0.69850  0.52960  Biso   1.000  H
  C17      1.0000 0.50699  0.30741  0.62189  Biso   1.000  C
  H10      1.0000 0.50880  0.39660  0.65390  Biso   1.000  H
  C18      1.0000 0.36229  0.39998  0.53712  Biso   1.000  C
  C19      1.0000 0.42032  0.51030  0.54793  Biso   1.000  C
  H11      1.0000 0.43480  0.62020  0.54600  Biso   1.000  H
  C20      1.0000 0.43431  0.30430  0.56149  Biso   1.000  C
  C21      1.0000 0.54076  0.24395  0.63029  Biso   1.000  C
  C22      1.0000 0.47029  0.24356  0.56745  Biso   1.000  C
  H12      1.0000 0.29292  0.93700  0.56120  Biso   1.000  H
  C23      1.0000 0.10305  0.64579  0.73854  Biso   1.000  C
  H13      1.0000 0.09370  0.50450  0.73140  Biso   1.000  H
  Ni2      1.0000 0.74269  0.25006  0.55194  Biso   1.000  Ni
  O6       1.0000 0.76627  0.44533  0.52004  Biso   1.000  O
  C24      1.0000 0.13117  0.05181  0.75936  Biso   1.000  C
  H14      1.0000 0.14090  0.19190  0.76610  Biso   1.000  H
  O7       1.0000 0.21588  0.79253  0.89797  Biso   1.000  O
  C25      1.0000 0.09406  0.00416  0.70326  Biso   1.000  C
  H15      1.0000 0.07860  0.11250  0.67240  Biso   1.000  H
  C26      1.0000 0.15361  0.89788  0.80474  Biso   1.000  C
  O8       1.0000 0.20279  0.13817  0.87744  Biso   1.000  O
  C27      1.0000 0.13942  0.69339  0.79454  Biso   1.000  C
  H16      1.0000 0.15470  0.58620  0.82610  Biso   1.000  H
  C28      1.0000 0.99877  0.43763  0.47541  Biso   1.000  C
  C29      1.0000 0.06988  0.43965  0.54021  Biso   1.000  C
  H17      1.0000 0.09310  0.39990  0.54550  Biso   1.000  H
  O9       1.0000 0.81285  0.13911  0.51158  Biso   1.000  O
  C30      1.0000 0.87660  0.69372  0.55352  Biso   1.000  C
  H18      1.0000 0.86220  0.58560  0.55640  Biso   1.000  H
  C31      1.0000 0.07255  0.55295  0.58736  Biso   1.000  C
  H19      1.0000 0.09760  0.58900  0.62560  Biso   1.000  H
  O10      1.0000 0.79998  0.79193  0.50431  Biso   1.000  O
  C32      1.0000 0.19376  0.94923  0.86505  Biso   1.000  C
  C33      1.0000 0.03859  0.62219  0.58200  Biso   1.000  C
  C34      1.0000 0.91227  0.64809  0.56568  Biso   1.000  C
  H20      1.0000 0.92200  0.50760  0.57710  Biso   1.000  H
  C35      1.0000 0.07971  0.80084  0.69227  Biso   1.000  C
  C36      1.0000 0.82212  0.94720  0.51676  Biso   1.000  C
  C37      1.0000 0.03296  0.37562  0.48158  Biso   1.000  C
  C38      1.0000 0.88473  0.05609  0.53710  Biso   1.000  C
  H21      1.0000 0.87590  0.19850  0.52960  Biso   1.000  H
  C39      1.0000 0.00699  0.80741  0.62189  Biso   1.000  C
  H22      1.0000 0.00880  0.89660  0.65390  Biso   1.000  H
  C40      1.0000 0.86229  0.89998  0.53712  Biso   1.000  C
  C41      1.0000 0.92032  0.01030  0.54793  Biso   1.000  C
  H23      1.0000 0.93480  0.12020  0.54600  Biso   1.000  H
  C42      1.0000 0.93431  0.80430  0.56149  Biso   1.000  C
  C43      1.0000 0.04076  0.74395  0.63029  Biso   1.000  C
  C44      1.0000 0.97029  0.74356  0.56745  Biso   1.000  C
  H24      1.0000 0.79292  0.43700  0.56120  Biso   1.000  H
  C45      1.0000 0.39695  0.14579  0.76146  Biso   1.000  C
  H25      1.0000 0.40630  0.00450  0.76860  Biso   1.000  H
  Ni3      1.0000 0.75731  0.75006  0.94806  Biso   1.000  Ni
  O11      1.0000 0.73373  0.94533  0.97996  Biso   1.000  O
  C46      1.0000 0.36883  0.55181  0.74064  Biso   1.000  C
  H26      1.0000 0.35910  0.69190  0.73390  Biso   1.000  H
  O12      1.0000 0.28412  0.29253  0.60203  Biso   1.000  O
  C47      1.0000 0.40594  0.50416  0.79674  Biso   1.000  C
  H27      1.0000 0.42140  0.61250  0.82760  Biso   1.000  H
  C48      1.0000 0.34639  0.39788  0.69526  Biso   1.000  C
  O13      1.0000 0.29721  0.63817  0.62256  Biso   1.000  O
  C49      1.0000 0.36058  0.19339  0.70546  Biso   1.000  C
  H28      1.0000 0.34530  0.08620  0.67390  Biso   1.000  H
  C50      1.0000 0.50123  0.93763  0.02459  Biso   1.000  C
  C51      1.0000 0.43012  0.93965  0.95979  Biso   1.000  C
  H29      1.0000 0.40690  0.89990  0.95450  Biso   1.000  H
  O14      1.0000 0.68715  0.63911  0.98842  Biso   1.000  O
  C52      1.0000 0.62340  0.19372  0.94648  Biso   1.000  C
  H30      1.0000 0.63780  0.08560  0.94360  Biso   1.000  H
  C53      1.0000 0.42745  0.05295  0.91264  Biso   1.000  C
  H31      1.0000 0.40240  0.08900  0.87440  Biso   1.000  H
  O15      1.0000 0.70002  0.29193  0.99569  Biso   1.000  O
  C54      1.0000 0.30624  0.44923  0.63495  Biso   1.000  C
  C55      1.0000 0.46141  0.12219  0.91800  Biso   1.000  C
  C56      1.0000 0.58773  0.14809  0.93432  Biso   1.000  C
  H32      1.0000 0.57800  0.00760  0.92290  Biso   1.000  H
  C57      1.0000 0.42029  0.30084  0.80773  Biso   1.000  C
  C58      1.0000 0.67788  0.44720  0.98324  Biso   1.000  C
  C59      1.0000 0.46704  0.87562  0.01842  Biso   1.000  C
  C60      1.0000 0.61527  0.55609  0.96290  Biso   1.000  C
  H33      1.0000 0.62410  0.69850  0.97040  Biso   1.000  H
  C61      1.0000 0.49301  0.30741  0.87811  Biso   1.000  C
  H34      1.0000 0.49120  0.39660  0.84610  Biso   1.000  H
  C62      1.0000 0.63771  0.39998  0.96288  Biso   1.000  C
  C63      1.0000 0.57968  0.51030  0.95207  Biso   1.000  C
  H35      1.0000 0.56520  0.62020  0.95400  Biso   1.000  H
  C64      1.0000 0.56569  0.30430  0.93851  Biso   1.000  C
  C65      1.0000 0.45924  0.24395  0.86971  Biso   1.000  C
  C66      1.0000 0.52971  0.24356  0.93255  Biso   1.000  C
  H36      1.0000 0.70708  0.93700  0.93880  Biso   1.000  H
  C67      1.0000 0.89695  0.64579  0.76146  Biso   1.000  C
  H37      1.0000 0.90630  0.50450  0.76860  Biso   1.000  H
  Ni4      1.0000 0.25731  0.25006  0.94806  Biso   1.000  Ni
  O16      1.0000 0.23373  0.44533  0.97996  Biso   1.000  O
  C68      1.0000 0.86883  0.05181  0.74064  Biso   1.000  C
  H38      1.0000 0.85910  0.19190  0.73390  Biso   1.000  H
  O17      1.0000 0.78412  0.79253  0.60203  Biso   1.000  O
  C69      1.0000 0.90594  0.00416  0.79674  Biso   1.000  C
  H39      1.0000 0.92140  0.11250  0.82760  Biso   1.000  H
  C70      1.0000 0.84639  0.89788  0.69526  Biso   1.000  C
  O18      1.0000 0.79721  0.13817  0.62256  Biso   1.000  O
  C71      1.0000 0.86058  0.69339  0.70546  Biso   1.000  C
  H40      1.0000 0.84530  0.58620  0.67390  Biso   1.000  H
  C72      1.0000 0.00123  0.43763  0.02459  Biso   1.000  C
  C73      1.0000 0.93012  0.43965  0.95979  Biso   1.000  C
  H41      1.0000 0.90690  0.39990  0.95450  Biso   1.000  H
  O19      1.0000 0.18715  0.13911  0.98842  Biso   1.000  O
  C74      1.0000 0.12340  0.69372  0.94648  Biso   1.000  C
  H42      1.0000 0.13780  0.58560  0.94360  Biso   1.000  H
  C75      1.0000 0.92745  0.55295  0.91264  Biso   1.000  C
  H43      1.0000 0.90240  0.58900  0.87440  Biso   1.000  H
  O20      1.0000 0.20002  0.79193  0.99569  Biso   1.000  O
  C76      1.0000 0.80624  0.94923  0.63495  Biso   1.000  C
  C77      1.0000 0.96141  0.62219  0.91800  Biso   1.000  C
  C78      1.0000 0.08773  0.64809  0.93432  Biso   1.000  C
  H44      1.0000 0.07800  0.50760  0.92290  Biso   1.000  H
  C79      1.0000 0.92029  0.80084  0.80773  Biso   1.000  C
  C80      1.0000 0.17788  0.94720  0.98324  Biso   1.000  C
  C81      1.0000 0.96704  0.37562  0.01842  Biso   1.000  C
  C82      1.0000 0.11527  0.05609  0.96290  Biso   1.000  C
  H45      1.0000 0.12410  0.19850  0.97040  Biso   1.000  H
  C83      1.0000 0.99301  0.80741  0.87811  Biso   1.000  C
  H46      1.0000 0.99120  0.89660  0.84610  Biso   1.000  H
  C84      1.0000 0.13771  0.89998  0.96288  Biso   1.000  C
  C85      1.0000 0.07968  0.01030  0.95207  Biso   1.000  C
  H47      1.0000 0.06520  0.12020  0.95400  Biso   1.000  H
  C86      1.0000 0.06569  0.80430  0.93851  Biso   1.000  C
  C87      1.0000 0.95924  0.74395  0.86971  Biso   1.000  C
  C88      1.0000 0.02971  0.74356  0.93255  Biso   1.000  C
  H48      1.0000 0.20708  0.43700  0.93880  Biso   1.000  H
  C89      1.0000 0.39695  0.85421  0.26146  Biso   1.000  C
  H49      1.0000 0.40630  0.99550  0.26860  Biso   1.000  H
  Ni5      1.0000 0.75731  0.24994  0.44806  Biso   1.000  Ni
  O21      1.0000 0.73373  0.05467  0.47996  Biso   1.000  O
  C90      1.0000 0.36883  0.44819  0.24064  Biso   1.000  C
  H50      1.0000 0.35910  0.30810  0.23390  Biso   1.000  H
  O22      1.0000 0.28412  0.70747  0.10203  Biso   1.000  O
  C91      1.0000 0.40594  0.49584  0.29674  Biso   1.000  C
  H51      1.0000 0.42140  0.38750  0.32760  Biso   1.000  H
  C92      1.0000 0.34639  0.60212  0.19526  Biso   1.000  C
  O23      1.0000 0.29721  0.36183  0.12256  Biso   1.000  O
  C93      1.0000 0.36058  0.80661  0.20546  Biso   1.000  C
  H52      1.0000 0.34530  0.91380  0.17390  Biso   1.000  H
  C94      1.0000 0.50123  0.06237  0.52459  Biso   1.000  C
  C95      1.0000 0.43012  0.06035  0.45979  Biso   1.000  C
  H53      1.0000 0.40690  0.10010  0.45450  Biso   1.000  H
  O24      1.0000 0.68715  0.36089  0.48842  Biso   1.000  O
  C96      1.0000 0.62340  0.80628  0.44648  Biso   1.000  C
  H54      1.0000 0.63780  0.91440  0.44360  Biso   1.000  H
  C97      1.0000 0.42745  0.94705  0.41264  Biso   1.000  C
  H55      1.0000 0.40240  0.91100  0.37440  Biso   1.000  H
  O25      1.0000 0.70002  0.70807  0.49569  Biso   1.000  O
  C98      1.0000 0.30624  0.55077  0.13495  Biso   1.000  C
  C99      1.0000 0.46141  0.87781  0.41800  Biso   1.000  C
  C100     1.0000 0.58773  0.85191  0.43432  Biso   1.000  C
  H56      1.0000 0.57800  0.99240  0.42290  Biso   1.000  H
  C101     1.0000 0.42029  0.69916  0.30773  Biso   1.000  C
  C102     1.0000 0.67788  0.55280  0.48324  Biso   1.000  C
  C103     1.0000 0.46704  0.12438  0.51842  Biso   1.000  C
  C104     1.0000 0.61527  0.44391  0.46290  Biso   1.000  C
  H57      1.0000 0.62410  0.30150  0.47040  Biso   1.000  H
  C105     1.0000 0.49301  0.69259  0.37811  Biso   1.000  C
  H58      1.0000 0.49120  0.60340  0.34610  Biso   1.000  H
  C106     1.0000 0.63771  0.60002  0.46288  Biso   1.000  C
  C107     1.0000 0.57968  0.48970  0.45207  Biso   1.000  C
  H59      1.0000 0.56520  0.37980  0.45400  Biso   1.000  H
  C108     1.0000 0.56569  0.69570  0.43851  Biso   1.000  C
  C109     1.0000 0.45924  0.75605  0.36971  Biso   1.000  C
  C110     1.0000 0.52971  0.75644  0.43255  Biso   1.000  C
  H60      1.0000 0.70708  0.06300  0.43880  Biso   1.000  H
  C111     1.0000 0.89695  0.35421  0.26146  Biso   1.000  C
  H61      1.0000 0.90630  0.49550  0.26860  Biso   1.000  H
  Ni6      1.0000 0.25731  0.74994  0.44806  Biso   1.000  Ni
  O26      1.0000 0.23373  0.55467  0.47996  Biso   1.000  O
  C112     1.0000 0.86883  0.94819  0.24064  Biso   1.000  C
  H62      1.0000 0.85910  0.80810  0.23390  Biso   1.000  H
  O27      1.0000 0.78412  0.20747  0.10203  Biso   1.000  O
  C113     1.0000 0.90594  0.99584  0.29674  Biso   1.000  C
  H63      1.0000 0.92140  0.88750  0.32760  Biso   1.000  H
  C114     1.0000 0.84639  0.10212  0.19526  Biso   1.000  C
  O28      1.0000 0.79721  0.86183  0.12256  Biso   1.000  O
  C115     1.0000 0.86058  0.30661  0.20546  Biso   1.000  C
  H64      1.0000 0.84530  0.41380  0.17390  Biso   1.000  H
  C116     1.0000 0.00123  0.56237  0.52459  Biso   1.000  C
  C117     1.0000 0.93012  0.56035  0.45979  Biso   1.000  C
  H65      1.0000 0.90690  0.60010  0.45450  Biso   1.000  H
  O29      1.0000 0.18715  0.86089  0.48842  Biso   1.000  O
  C118     1.0000 0.12340  0.30628  0.44648  Biso   1.000  C
  H66      1.0000 0.13780  0.41440  0.44360  Biso   1.000  H
  C119     1.0000 0.92745  0.44705  0.41264  Biso   1.000  C
  H67      1.0000 0.90240  0.41100  0.37440  Biso   1.000  H
  O30      1.0000 0.20002  0.20807  0.49569  Biso   1.000  O
  C120     1.0000 0.80624  0.05077  0.13495  Biso   1.000  C
  C121     1.0000 0.96141  0.37781  0.41800  Biso   1.000  C
  C122     1.0000 0.08773  0.35191  0.43432  Biso   1.000  C
  H68      1.0000 0.07800  0.49240  0.42290  Biso   1.000  H
  C123     1.0000 0.92029  0.19916  0.30773  Biso   1.000  C
  C124     1.0000 0.17788  0.05280  0.48324  Biso   1.000  C
  C125     1.0000 0.96704  0.62438  0.51842  Biso   1.000  C
  C126     1.0000 0.11527  0.94391  0.46290  Biso   1.000  C
  H69      1.0000 0.12410  0.80150  0.47040  Biso   1.000  H
  C127     1.0000 0.99301  0.19259  0.37811  Biso   1.000  C
  H70      1.0000 0.99120  0.10340  0.34610  Biso   1.000  H
  C128     1.0000 0.13771  0.10002  0.46288  Biso   1.000  C
  C129     1.0000 0.07968  0.98970  0.45207  Biso   1.000  C
  H71      1.0000 0.06520  0.87980  0.45400  Biso   1.000  H
  C130     1.0000 0.06569  0.19570  0.43851  Biso   1.000  C
  C131     1.0000 0.95924  0.25605  0.36971  Biso   1.000  C
  C132     1.0000 0.02971  0.25644  0.43255  Biso   1.000  C
  H72      1.0000 0.20708  0.56300  0.43880  Biso   1.000  H
  C133     1.0000 0.60305  0.85421  0.23854  Biso   1.000  C
  H73      1.0000 0.59370  0.99550  0.23140  Biso   1.000  H
  Ni7      1.0000 0.24269  0.24994  0.05194  Biso   1.000  Ni
  O31      1.0000 0.26627  0.05467  0.02004  Biso   1.000  O
  C134     1.0000 0.63117  0.44819  0.25936  Biso   1.000  C
  H74      1.0000 0.64090  0.30810  0.26610  Biso   1.000  H
  O32      1.0000 0.71588  0.70747  0.39797  Biso   1.000  O
  C135     1.0000 0.59406  0.49584  0.20326  Biso   1.000  C
  H75      1.0000 0.57860  0.38750  0.17240  Biso   1.000  H
  C136     1.0000 0.65361  0.60212  0.30474  Biso   1.000  C
  O33      1.0000 0.70279  0.36183  0.37744  Biso   1.000  O
  C137     1.0000 0.63942  0.80661  0.29454  Biso   1.000  C
  H76      1.0000 0.65470  0.91380  0.32610  Biso   1.000  H
  C138     1.0000 0.49877  0.06237  0.97541  Biso   1.000  C
  C139     1.0000 0.56988  0.06035  0.04021  Biso   1.000  C
  H77      1.0000 0.59310  0.10010  0.04550  Biso   1.000  H
  O34      1.0000 0.31285  0.36089  0.01158  Biso   1.000  O
  C140     1.0000 0.37660  0.80628  0.05352  Biso   1.000  C
  H78      1.0000 0.36220  0.91440  0.05640  Biso   1.000  H
  C141     1.0000 0.57255  0.94705  0.08736  Biso   1.000  C
  H79      1.0000 0.59760  0.91100  0.12560  Biso   1.000  H
  O35      1.0000 0.29998  0.70807  0.00431  Biso   1.000  O
  C142     1.0000 0.69376  0.55077  0.36505  Biso   1.000  C
  C143     1.0000 0.53859  0.87781  0.08200  Biso   1.000  C
  C144     1.0000 0.41227  0.85191  0.06568  Biso   1.000  C
  H80      1.0000 0.42200  0.99240  0.07710  Biso   1.000  H
  C145     1.0000 0.57971  0.69916  0.19227  Biso   1.000  C
  C146     1.0000 0.32212  0.55280  0.01676  Biso   1.000  C
  C147     1.0000 0.53296  0.12438  0.98158  Biso   1.000  C
  C148     1.0000 0.38473  0.44391  0.03710  Biso   1.000  C
  H81      1.0000 0.37590  0.30150  0.02960  Biso   1.000  H
  C149     1.0000 0.50699  0.69259  0.12189  Biso   1.000  C
  H82      1.0000 0.50880  0.60340  0.15390  Biso   1.000  H
  C150     1.0000 0.36229  0.60002  0.03712  Biso   1.000  C
  C151     1.0000 0.42032  0.48970  0.04793  Biso   1.000  C
  H83      1.0000 0.43480  0.37980  0.04600  Biso   1.000  H
  C152     1.0000 0.43431  0.69570  0.06149  Biso   1.000  C
  C153     1.0000 0.54076  0.75605  0.13029  Biso   1.000  C
  C154     1.0000 0.47029  0.75644  0.06745  Biso   1.000  C
  H84      1.0000 0.29292  0.06300  0.06120  Biso   1.000  H
  C155     1.0000 0.10305  0.35421  0.23854  Biso   1.000  C
  H85      1.0000 0.09370  0.49550  0.23140  Biso   1.000  H
  Ni8      1.0000 0.74269  0.74994  0.05194  Biso   1.000  Ni
  O36      1.0000 0.76627  0.55467  0.02004  Biso   1.000  O
  C156     1.0000 0.13117  0.94819  0.25936  Biso   1.000  C
  H86      1.0000 0.14090  0.80810  0.26610  Biso   1.000  H
  O37      1.0000 0.21588  0.20747  0.39797  Biso   1.000  O
  C157     1.0000 0.09406  0.99584  0.20326  Biso   1.000  C
  H87      1.0000 0.07860  0.88750  0.17240  Biso   1.000  H
  C158     1.0000 0.15361  0.10212  0.30474  Biso   1.000  C
  O38      1.0000 0.20279  0.86183  0.37744  Biso   1.000  O
  C159     1.0000 0.13942  0.30661  0.29454  Biso   1.000  C
  H88      1.0000 0.15470  0.41380  0.32610  Biso   1.000  H
  C160     1.0000 0.99877  0.56237  0.97541  Biso   1.000  C
  C161     1.0000 0.06988  0.56035  0.04021  Biso   1.000  C
  H89      1.0000 0.09310  0.60010  0.04550  Biso   1.000  H
  O39      1.0000 0.81285  0.86089  0.01158  Biso   1.000  O
  C162     1.0000 0.87660  0.30628  0.05352  Biso   1.000  C
  H90      1.0000 0.86220  0.41440  0.05640  Biso   1.000  H
  C163     1.0000 0.07255  0.44705  0.08736  Biso   1.000  C
  H91      1.0000 0.09760  0.41100  0.12560  Biso   1.000  H
  O40      1.0000 0.79998  0.20807  0.00431  Biso   1.000  O
  C164     1.0000 0.19376  0.05077  0.36505  Biso   1.000  C
  C165     1.0000 0.03859  0.37781  0.08200  Biso   1.000  C
  C166     1.0000 0.91227  0.35191  0.06568  Biso   1.000  C
  H92      1.0000 0.92200  0.49240  0.07710  Biso   1.000  H
  C167     1.0000 0.07971  0.19916  0.19227  Biso   1.000  C
  C168     1.0000 0.82212  0.05280  0.01676  Biso   1.000  C
  C169     1.0000 0.03296  0.62438  0.98158  Biso   1.000  C
  C170     1.0000 0.88473  0.94391  0.03710  Biso   1.000  C
  H93      1.0000 0.87590  0.80150  0.02960  Biso   1.000  H
  C171     1.0000 0.00699  0.19259  0.12189  Biso   1.000  C
  H94      1.0000 0.00880  0.10340  0.15390  Biso   1.000  H
  C172     1.0000 0.86229  0.10002  0.03712  Biso   1.000  C
  C173     1.0000 0.92032  0.98970  0.04793  Biso   1.000  C
  H95      1.0000 0.93480  0.87980  0.04600  Biso   1.000  H
  C174     1.0000 0.93431  0.19570  0.06149  Biso   1.000  C
  C175     1.0000 0.04076  0.25605  0.13029  Biso   1.000  C
  C176     1.0000 0.97029  0.25644  0.06745  Biso   1.000  C
  H96      1.0000 0.79292  0.56300  0.06120  Biso   1.000  H
  Ni9      1.0000 0.25000  0.25000  0.50000  Biso   1.000  Ni
  Ni10     1.0000 0.75000  0.25000  0.00000  Biso   1.000  Ni
  Ni11     1.0000 0.75000  0.75000  0.50000  Biso   1.000  Ni
  Ni12     1.0000 0.25000  0.75000  0.00000  Biso   1.000  Ni
