data_image0
_cell_length_a       7.794
_cell_length_b       17.524
_cell_length_c       13.763
_cell_angle_alpha    90
_cell_angle_beta     101.393
_cell_angle_gamma    90

_symmetry_space_group_name_H-M    "P 1"
_symmetry_int_tables_number       1

loop_
  _symmetry_equiv_pos_as_xyz
  'x, y, z'

loop_
  _atom_site_label
  _atom_site_occupancy
  _atom_site_fract_x
  _atom_site_fract_y
  _atom_site_fract_z
  _atom_site_thermal_displace_type
  _atom_site_B_iso_or_equiv
  _atom_site_type_symbol
  Zn1      1.0000 0.71130  0.96279  0.99744  Biso   1.000  Zn
  Zn2      1.0000 0.42933  0.90831  0.15391  Biso   1.000  Zn
  Zn3      1.0000 0.95970  0.02325  0.82593  Biso   1.000  Zn
  C1       1.0000 0.52350  0.15070  0.14660  Biso   1.000  C
  C2       1.0000 0.55200  0.20460  0.07870  Biso   1.000  C
  H1       1.0000 0.57420  0.18930  0.01770  Biso   1.000  H
  C3       1.0000 0.54770  0.28220  0.10120  Biso   1.000  C
  C4       1.0000 0.51730  0.30560  0.19270  Biso   1.000  C
  H2       1.0000 0.51480  0.35740  0.20720  Biso   1.000  H
  C5       1.0000 0.49030  0.25110  0.26400  Biso   1.000  C
  C6       1.0000 0.48660  0.17340  0.23830  Biso   1.000  C
  H3       1.0000 0.45960  0.13700  0.28200  Biso   1.000  H
  C7       1.0000 0.53010  0.06710  0.12160  Biso   1.000  C
  C8       1.0000 0.56240  0.34020  0.02420  Biso   1.000  C
  C9       1.0000 0.46080  0.27860  0.36290  Biso   1.000  C
  C10      1.0000 0.36410  0.34760  0.36970  Biso   1.000  C
  H4       1.0000 0.31550  0.37470  0.31290  Biso   1.000  H
  C11      1.0000 0.34460  0.37260  0.46040  Biso   1.000  C
  H5       1.0000 0.27880  0.41640  0.46390  Biso   1.000  H
  C12      1.0000 0.41800  0.33590  0.54750  Biso   1.000  C
  C13      1.0000 0.51620  0.26990  0.53990  Biso   1.000  C
  H6       1.0000 0.57060  0.24470  0.59720  Biso   1.000  H
  C14      1.0000 0.53330  0.24190  0.44950  Biso   1.000  C
  H7       1.0000 0.59550  0.19690  0.44660  Biso   1.000  H
  C15      1.0000 0.40140  0.36930  0.64650  Biso   1.000  C
  C16      1.0000 0.95330  0.77800  0.86390  Biso   1.000  C
  C17      1.0000 0.95860  0.72110  0.93400  Biso   1.000  C
  H8       1.0000 0.93710  0.73250  0.99650  Biso   1.000  H
  C18      1.0000 0.99650  0.64660  0.91010  Biso   1.000  C
  C19      1.0000 0.01780  0.62870  0.81460  Biso   1.000  C
  H9       1.0000 0.03480  0.57810  0.79830  Biso   1.000  H
  C20      1.0000 0.01420  0.68520  0.74270  Biso   1.000  C
  C21      1.0000 0.98750  0.76140  0.77240  Biso   1.000  C
  H10      1.0000 0.99340  0.80100  0.72830  Biso   1.000  H
  C22      1.0000 0.90630  0.86010  0.88700  Biso   1.000  C
  C23      1.0000 0.02060  0.58530  0.98700  Biso   1.000  C
  C24      1.0000 0.03500  0.66580  0.64090  Biso   1.000  C
  C25      1.0000 0.12250  0.60110  0.61980  Biso   1.000  C
  H11      1.0000 0.17830  0.57020  0.67140  Biso   1.000  H
  C26      1.0000 0.12840  0.58150  0.52310  Biso   1.000  C
  H12      1.0000 0.18280  0.53630  0.51090  Biso   1.000  H
  C27      1.0000 0.05550  0.62760  0.44460  Biso   1.000  C
  C28      1.0000 0.97100  0.69580  0.46630  Biso   1.000  C
  H13      1.0000 0.92270  0.72850  0.41490  Biso   1.000  H
  C29      1.0000 0.95980  0.71400  0.56050  Biso   1.000  C
  H14      1.0000 0.90230  0.75840  0.57270  Biso   1.000  H
  C30      1.0000 0.06020  0.60820  0.33850  Biso   1.000  C
  O1       1.0000 0.46650  0.01830  0.17070  Biso   1.000  O
  O2       1.0000 0.60520  0.05260  0.04910  Biso   1.000  O
  O3       1.0000 0.59760  0.31970  0.94270  Biso   1.000  O
  O4       1.0000 0.53650  0.41090  0.04080  Biso   1.000  O
  O5       1.0000 0.27250  0.40880  0.65360  Biso   1.000  O
  O6       1.0000 0.52640  0.35360  0.71890  Biso   1.000  O
  O7       1.0000 0.83000  0.86950  0.95740  Biso   1.000  O
  O8       1.0000 0.94550  0.90960  0.83110  Biso   1.000  O
  O9       1.0000 0.01550  0.60540  0.07420  Biso   1.000  O
  O10      1.0000 0.04520  0.51740  0.96400  Biso   1.000  O
  O11      1.0000 0.09180  0.54120  0.31760  Biso   1.000  O
  O12      1.0000 0.03740  0.66030  0.27500  Biso   1.000  O
  Zn4      1.0000 0.28870  0.46279  0.00256  Biso   1.000  Zn
  Zn5      1.0000 0.57067  0.40831  0.84609  Biso   1.000  Zn
  Zn6      1.0000 0.04030  0.52325  0.17407  Biso   1.000  Zn
  C31      1.0000 0.47650  0.65070  0.85340  Biso   1.000  C
  C32      1.0000 0.44800  0.70460  0.92130  Biso   1.000  C
  H15      1.0000 0.42580  0.68930  0.98230  Biso   1.000  H
  C33      1.0000 0.45230  0.78220  0.89880  Biso   1.000  C
  C34      1.0000 0.48270  0.80560  0.80730  Biso   1.000  C
  H16      1.0000 0.48520  0.85740  0.79280  Biso   1.000  H
  C35      1.0000 0.50970  0.75110  0.73600  Biso   1.000  C
  C36      1.0000 0.51340  0.67340  0.76170  Biso   1.000  C
  H17      1.0000 0.54040  0.63700  0.71800  Biso   1.000  H
  C37      1.0000 0.46990  0.56710  0.87840  Biso   1.000  C
  C38      1.0000 0.43760  0.84020  0.97580  Biso   1.000  C
  C39      1.0000 0.53920  0.77860  0.63710  Biso   1.000  C
  C40      1.0000 0.63590  0.84760  0.63030  Biso   1.000  C
  H18      1.0000 0.68450  0.87470  0.68710  Biso   1.000  H
  C41      1.0000 0.65540  0.87260  0.53960  Biso   1.000  C
  H19      1.0000 0.72120  0.91640  0.53610  Biso   1.000  H
  C42      1.0000 0.58200  0.83590  0.45250  Biso   1.000  C
  C43      1.0000 0.48380  0.76990  0.46010  Biso   1.000  C
  H20      1.0000 0.42940  0.74470  0.40280  Biso   1.000  H
  C44      1.0000 0.46670  0.74190  0.55050  Biso   1.000  C
  H21      1.0000 0.40450  0.69690  0.55340  Biso   1.000  H
  C45      1.0000 0.59860  0.86930  0.35350  Biso   1.000  C
  C46      1.0000 0.04670  0.27800  0.13610  Biso   1.000  C
  C47      1.0000 0.04140  0.22110  0.06600  Biso   1.000  C
  H22      1.0000 0.06290  0.23250  0.00350  Biso   1.000  H
  C48      1.0000 0.00350  0.14660  0.08990  Biso   1.000  C
  C49      1.0000 0.98220  0.12870  0.18540  Biso   1.000  C
  H23      1.0000 0.96520  0.07810  0.20170  Biso   1.000  H
  C50      1.0000 0.98580  0.18520  0.25730  Biso   1.000  C
  C51      1.0000 0.01250  0.26140  0.22760  Biso   1.000  C
  H24      1.0000 0.00660  0.30100  0.27170  Biso   1.000  H
  C52      1.0000 0.09370  0.36010  0.11300  Biso   1.000  C
  C53      1.0000 0.97940  0.08530  0.01300  Biso   1.000  C
  C54      1.0000 0.96500  0.16580  0.35910  Biso   1.000  C
  C55      1.0000 0.87750  0.10110  0.38020  Biso   1.000  C
  H25      1.0000 0.82170  0.07020  0.32860  Biso   1.000  H
  C56      1.0000 0.87160  0.08150  0.47690  Biso   1.000  C
  H26      1.0000 0.81720  0.03630  0.48910  Biso   1.000  H
  C57      1.0000 0.94450  0.12760  0.55540  Biso   1.000  C
  C58      1.0000 0.02900  0.19580  0.53370  Biso   1.000  C
  H27      1.0000 0.07730  0.22850  0.58510  Biso   1.000  H
  C59      1.0000 0.04020  0.21400  0.43950  Biso   1.000  C
  H28      1.0000 0.09770  0.25840  0.42730  Biso   1.000  H
  C60      1.0000 0.93980  0.10820  0.66150  Biso   1.000  C
  O13      1.0000 0.53350  0.51830  0.82930  Biso   1.000  O
  O14      1.0000 0.39480  0.55260  0.95090  Biso   1.000  O
  O15      1.0000 0.40240  0.81970  0.05730  Biso   1.000  O
  O16      1.0000 0.46350  0.91090  0.95920  Biso   1.000  O
  O17      1.0000 0.72750  0.90880  0.34640  Biso   1.000  O
  O18      1.0000 0.47360  0.85360  0.28110  Biso   1.000  O
  O19      1.0000 0.17000  0.36950  0.04260  Biso   1.000  O
  O20      1.0000 0.05450  0.40960  0.16890  Biso   1.000  O
  O21      1.0000 0.98450  0.10540  0.92580  Biso   1.000  O
  O22      1.0000 0.95480  0.01740  0.03600  Biso   1.000  O
  O23      1.0000 0.90820  0.04120  0.68240  Biso   1.000  O
  O24      1.0000 0.96260  0.16030  0.72500  Biso   1.000  O
