data_image0
_cell_length_a       15.119
_cell_length_b       6.6612
_cell_length_c       14.342
_cell_angle_alpha    90
_cell_angle_beta     90
_cell_angle_gamma    90

_symmetry_space_group_name_H-M    "P 1"
_symmetry_int_tables_number       1

loop_
  _symmetry_equiv_pos_as_xyz
  'x, y, z'

loop_
  _atom_site_label
  _atom_site_occupancy
  _atom_site_fract_x
  _atom_site_fract_y
  _atom_site_fract_z
  _atom_site_thermal_displace_type
  _atom_site_B_iso_or_equiv
  _atom_site_type_symbol
  O1       1.0000 0.35070  0.41630  0.13500  Biso   1.000  O
  O2       1.0000 0.29450  0.41420  0.74210  Biso   1.000  O
  O3       1.0000 0.14930  0.58370  0.63500  Biso   1.000  O
  O4       1.0000 0.20550  0.58580  0.24210  Biso   1.000  O
  O5       1.0000 0.64930  0.91630  0.86500  Biso   1.000  O
  O6       1.0000 0.70550  0.91420  0.25790  Biso   1.000  O
  O7       1.0000 0.85070  0.08370  0.36500  Biso   1.000  O
  O8       1.0000 0.79450  0.08580  0.75790  Biso   1.000  O
  O9       1.0000 0.64930  0.58370  0.86500  Biso   1.000  O
  O10      1.0000 0.70550  0.58580  0.25790  Biso   1.000  O
  O11      1.0000 0.85070  0.41630  0.36500  Biso   1.000  O
  O12      1.0000 0.79450  0.41420  0.75790  Biso   1.000  O
  O13      1.0000 0.35070  0.08370  0.13500  Biso   1.000  O
  O14      1.0000 0.29450  0.08580  0.74210  Biso   1.000  O
  O15      1.0000 0.14930  0.91630  0.63500  Biso   1.000  O
  O16      1.0000 0.20550  0.91420  0.24210  Biso   1.000  O
  C1       1.0000 0.57530  0.25000  0.06680  Biso   1.000  C
  C2       1.0000 0.50480  0.25000  0.99220  Biso   1.000  C
  C3       1.0000 0.41320  0.25000  0.00590  Biso   1.000  C
  C4       1.0000 0.36940  0.25000  0.10270  Biso   1.000  C
  C5       1.0000 0.32320  0.25000  0.77170  Biso   1.000  C
  C6       1.0000 0.39020  0.25000  0.84740  Biso   1.000  C
  C7       1.0000 0.48210  0.25000  0.83200  Biso   1.000  C
  C8       1.0000 0.52900  0.25000  0.73850  Biso   1.000  C
  N1       1.0000 0.53750  0.25000  0.90630  Biso   1.000  N
  N2       1.0000 0.35750  0.25000  0.93370  Biso   1.000  N
  O17      1.0000 0.65440  0.25000  0.03770  Biso   1.000  O
  O18      1.0000 0.55170  0.25000  0.14860  Biso   1.000  O
  O19      1.0000 0.48090  0.25000  0.66830  Biso   1.000  O
  O20      1.0000 0.61220  0.25000  0.74230  Biso   1.000  O
  Tb1      1.0000 0.70091  0.25000  0.87957  Biso   1.000  Tb
  K1       1.0000 0.27110  0.25000  0.30910  Biso   1.000  K
  C9       1.0000 0.92470  0.75000  0.56680  Biso   1.000  C
  C10      1.0000 0.99520  0.75000  0.49220  Biso   1.000  C
  C11      1.0000 0.08680  0.75000  0.50590  Biso   1.000  C
  C12      1.0000 0.13060  0.75000  0.60270  Biso   1.000  C
  C13      1.0000 0.17680  0.75000  0.27170  Biso   1.000  C
  C14      1.0000 0.10980  0.75000  0.34740  Biso   1.000  C
  C15      1.0000 0.01790  0.75000  0.33200  Biso   1.000  C
  C16      1.0000 0.97100  0.75000  0.23850  Biso   1.000  C
  N3       1.0000 0.96250  0.75000  0.40630  Biso   1.000  N
  N4       1.0000 0.14250  0.75000  0.43370  Biso   1.000  N
  O21      1.0000 0.84560  0.75000  0.53770  Biso   1.000  O
  O22      1.0000 0.94830  0.75000  0.64860  Biso   1.000  O
  O23      1.0000 0.01910  0.75000  0.16830  Biso   1.000  O
  O24      1.0000 0.88780  0.75000  0.24230  Biso   1.000  O
  Tb2      1.0000 0.79909  0.75000  0.37957  Biso   1.000  Tb
  K2       1.0000 0.22890  0.75000  0.80910  Biso   1.000  K
  C17      1.0000 0.42470  0.75000  0.93320  Biso   1.000  C
  C18      1.0000 0.49520  0.75000  0.00780  Biso   1.000  C
  C19      1.0000 0.58680  0.75000  0.99410  Biso   1.000  C
  C20      1.0000 0.63060  0.75000  0.89730  Biso   1.000  C
  C21      1.0000 0.67680  0.75000  0.22830  Biso   1.000  C
  C22      1.0000 0.60980  0.75000  0.15260  Biso   1.000  C
  C23      1.0000 0.51790  0.75000  0.16800  Biso   1.000  C
  C24      1.0000 0.47100  0.75000  0.26150  Biso   1.000  C
  N5       1.0000 0.46250  0.75000  0.09370  Biso   1.000  N
  N6       1.0000 0.64250  0.75000  0.06630  Biso   1.000  N
  O25      1.0000 0.34560  0.75000  0.96230  Biso   1.000  O
  O26      1.0000 0.44830  0.75000  0.85140  Biso   1.000  O
  O27      1.0000 0.51910  0.75000  0.33170  Biso   1.000  O
  O28      1.0000 0.38780  0.75000  0.25770  Biso   1.000  O
  Tb3      1.0000 0.29909  0.75000  0.12043  Biso   1.000  Tb
  K3       1.0000 0.72890  0.75000  0.69090  Biso   1.000  K
  C25      1.0000 0.07530  0.25000  0.43320  Biso   1.000  C
  C26      1.0000 0.00480  0.25000  0.50780  Biso   1.000  C
  C27      1.0000 0.91320  0.25000  0.49410  Biso   1.000  C
  C28      1.0000 0.86940  0.25000  0.39730  Biso   1.000  C
  C29      1.0000 0.82320  0.25000  0.72830  Biso   1.000  C
  C30      1.0000 0.89020  0.25000  0.65260  Biso   1.000  C
  C31      1.0000 0.98210  0.25000  0.66800  Biso   1.000  C
  C32      1.0000 0.02900  0.25000  0.76150  Biso   1.000  C
  N7       1.0000 0.03750  0.25000  0.59370  Biso   1.000  N
  N8       1.0000 0.85750  0.25000  0.56630  Biso   1.000  N
  O29      1.0000 0.15440  0.25000  0.46230  Biso   1.000  O
  O30      1.0000 0.05170  0.25000  0.35140  Biso   1.000  O
  O31      1.0000 0.98090  0.25000  0.83170  Biso   1.000  O
  O32      1.0000 0.11220  0.25000  0.75770  Biso   1.000  O
  Tb4      1.0000 0.20091  0.25000  0.62043  Biso   1.000  Tb
  K4       1.0000 0.77110  0.25000  0.19090  Biso   1.000  K
