data_image0
_cell_length_a       12.8331
_cell_length_b       15.626
_cell_length_c       7.545
_cell_angle_alpha    90
_cell_angle_beta     93.225
_cell_angle_gamma    90

_symmetry_space_group_name_H-M    "P 1"
_symmetry_int_tables_number       1

loop_
  _symmetry_equiv_pos_as_xyz
  'x, y, z'

loop_
  _atom_site_label
  _atom_site_occupancy
  _atom_site_fract_x
  _atom_site_fract_y
  _atom_site_fract_z
  _atom_site_thermal_displace_type
  _atom_site_B_iso_or_equiv
  _atom_site_type_symbol
  O1       1.0000 0.16880  0.54100  0.73390  Biso   1.000  O
  O2       1.0000 0.06190  0.57110  0.94200  Biso   1.000  O
  N1       1.0000 0.38020  0.73300  0.89100  Biso   1.000  N
  N2       1.0000 0.49750  0.62250  0.00090  Biso   1.000  N
  C1       1.0000 0.22180  0.64770  0.94700  Biso   1.000  C
  H1       1.0000 0.26300  0.62130  0.04390  Biso   1.000  H
  H2       1.0000 0.18350  0.69500  0.99540  Biso   1.000  H
  C2       1.0000 0.14480  0.58270  0.86740  Biso   1.000  C
  N3       1.0000 0.62490  0.53570  0.12570  Biso   1.000  N
  H3       1.0000 0.68420  0.52760  0.18180  Biso   1.000  H
  H4       1.0000 0.58670  0.49270  0.09300  Biso   1.000  H
  C3       1.0000 0.52780  0.77490  0.02810  Biso   1.000  C
  N4       1.0000 0.65540  0.68030  0.14400  Biso   1.000  N
  N5       1.0000 0.47220  0.84940  0.98160  Biso   1.000  N
  C4       1.0000 0.47040  0.70330  0.97700  Biso   1.000  C
  C5       1.0000 0.29520  0.68220  0.80980  Biso   1.000  C
  H5       1.0000 0.32410  0.63450  0.74660  Biso   1.000  H
  H6       1.0000 0.25540  0.71720  0.72400  Biso   1.000  H
  C6       1.0000 0.59220  0.61460  0.08950  Biso   1.000  C
  C7       1.0000 0.38680  0.81940  0.90060  Biso   1.000  C
  H7       1.0000 0.33440  0.85500  0.85310  Biso   1.000  H
  C8       1.0000 0.62330  0.75900  0.11740  Biso   1.000  C
  H8       1.0000 0.66470  0.80450  0.15860  Biso   1.000  H
  O3       1.0000 0.41010  0.99110  0.22480  Biso   1.000  O
  O4       1.0000 0.83120  0.54100  0.76610  Biso   1.000  O
  O5       1.0000 0.93810  0.57110  0.55800  Biso   1.000  O
  N6       1.0000 0.61980  0.73300  0.60900  Biso   1.000  N
  N7       1.0000 0.50250  0.62250  0.49910  Biso   1.000  N
  C9       1.0000 0.77820  0.64770  0.55300  Biso   1.000  C
  H9       1.0000 0.73700  0.62130  0.45610  Biso   1.000  H
  H10      1.0000 0.81650  0.69500  0.50460  Biso   1.000  H
  C10      1.0000 0.85520  0.58270  0.63260  Biso   1.000  C
  N8       1.0000 0.37510  0.53570  0.37430  Biso   1.000  N
  H11      1.0000 0.31580  0.52760  0.31820  Biso   1.000  H
  H12      1.0000 0.41330  0.49270  0.40700  Biso   1.000  H
  C11      1.0000 0.47220  0.77490  0.47190  Biso   1.000  C
  N9       1.0000 0.34460  0.68030  0.35600  Biso   1.000  N
  N10      1.0000 0.52780  0.84940  0.51840  Biso   1.000  N
  C12      1.0000 0.52960  0.70330  0.52300  Biso   1.000  C
  C13      1.0000 0.70480  0.68220  0.69020  Biso   1.000  C
  H13      1.0000 0.67590  0.63450  0.75340  Biso   1.000  H
  H14      1.0000 0.74460  0.71720  0.77600  Biso   1.000  H
  C14      1.0000 0.40780  0.61460  0.41050  Biso   1.000  C
  C15      1.0000 0.61320  0.81940  0.59940  Biso   1.000  C
  H15      1.0000 0.66560  0.85500  0.64690  Biso   1.000  H
  C16      1.0000 0.37670  0.75900  0.38260  Biso   1.000  C
  H16      1.0000 0.33530  0.80450  0.34140  Biso   1.000  H
  O6       1.0000 0.58990  0.99110  0.27520  Biso   1.000  O
  O7       1.0000 0.83120  0.45900  0.26610  Biso   1.000  O
  O8       1.0000 0.93810  0.42890  0.05800  Biso   1.000  O
  N11      1.0000 0.61980  0.26700  0.10900  Biso   1.000  N
  N12      1.0000 0.50250  0.37750  0.99910  Biso   1.000  N
  C17      1.0000 0.77820  0.35230  0.05300  Biso   1.000  C
  H17      1.0000 0.73700  0.37870  0.95610  Biso   1.000  H
  H18      1.0000 0.81650  0.30500  0.00460  Biso   1.000  H
  C18      1.0000 0.85520  0.41730  0.13260  Biso   1.000  C
  N13      1.0000 0.37510  0.46430  0.87430  Biso   1.000  N
  H19      1.0000 0.31580  0.47240  0.81820  Biso   1.000  H
  H20      1.0000 0.41330  0.50730  0.90700  Biso   1.000  H
  C19      1.0000 0.47220  0.22510  0.97190  Biso   1.000  C
  N14      1.0000 0.34460  0.31970  0.85600  Biso   1.000  N
  N15      1.0000 0.52780  0.15060  0.01840  Biso   1.000  N
  C20      1.0000 0.52960  0.29670  0.02300  Biso   1.000  C
  C21      1.0000 0.70480  0.31780  0.19020  Biso   1.000  C
  H21      1.0000 0.67590  0.36550  0.25340  Biso   1.000  H
  H22      1.0000 0.74460  0.28280  0.27600  Biso   1.000  H
  C22      1.0000 0.40780  0.38540  0.91050  Biso   1.000  C
  C23      1.0000 0.61320  0.18060  0.09940  Biso   1.000  C
  H23      1.0000 0.66560  0.14500  0.14690  Biso   1.000  H
  C24      1.0000 0.37670  0.24100  0.88260  Biso   1.000  C
  H24      1.0000 0.33530  0.19550  0.84140  Biso   1.000  H
  O9       1.0000 0.58990  0.00890  0.77520  Biso   1.000  O
  O10      1.0000 0.16880  0.45900  0.23390  Biso   1.000  O
  O11      1.0000 0.06190  0.42890  0.44200  Biso   1.000  O
  N16      1.0000 0.38020  0.26700  0.39100  Biso   1.000  N
  N17      1.0000 0.49750  0.37750  0.50090  Biso   1.000  N
  C25      1.0000 0.22180  0.35230  0.44700  Biso   1.000  C
  H25      1.0000 0.26300  0.37870  0.54390  Biso   1.000  H
  H26      1.0000 0.18350  0.30500  0.49540  Biso   1.000  H
  C26      1.0000 0.14480  0.41730  0.36740  Biso   1.000  C
  N18      1.0000 0.62490  0.46430  0.62570  Biso   1.000  N
  H27      1.0000 0.68420  0.47240  0.68180  Biso   1.000  H
  H28      1.0000 0.58670  0.50730  0.59300  Biso   1.000  H
  C27      1.0000 0.52780  0.22510  0.52810  Biso   1.000  C
  N19      1.0000 0.65540  0.31970  0.64400  Biso   1.000  N
  N20      1.0000 0.47220  0.15060  0.48160  Biso   1.000  N
  C28      1.0000 0.47040  0.29670  0.47700  Biso   1.000  C
  C29      1.0000 0.29520  0.31780  0.30980  Biso   1.000  C
  H29      1.0000 0.32410  0.36550  0.24660  Biso   1.000  H
  H30      1.0000 0.25540  0.28280  0.22400  Biso   1.000  H
  C30      1.0000 0.59220  0.38540  0.58950  Biso   1.000  C
  C31      1.0000 0.38680  0.18060  0.40060  Biso   1.000  C
  H31      1.0000 0.33440  0.14500  0.35310  Biso   1.000  H
  C32      1.0000 0.62330  0.24100  0.61740  Biso   1.000  C
  H32      1.0000 0.66470  0.19550  0.65860  Biso   1.000  H
  O12      1.0000 0.41010  0.00890  0.72480  Biso   1.000  O
  Cd1      1.0000 0.00000  0.45889  0.75000  Biso   1.000  Cd
  Cd2      1.0000 0.00000  0.54111  0.25000  Biso   1.000  Cd
  Cd3      1.0000 0.50000  0.00000  0.00000  Biso   1.000  Cd
  Cd4      1.0000 0.50000  0.00000  0.50000  Biso   1.000  Cd
