data_HOZTOG_clean
_audit_creation_date              2014-07-02
_audit_creation_method            'Materials Studio'
_symmetry_space_group_name_H-M    'P1'
_symmetry_Int_Tables_number       1
_symmetry_cell_setting            triclinic
loop_
_symmetry_equiv_pos_as_xyz
  x,y,z
_cell_length_a                    26.2934
_cell_length_b                    26.2934
_cell_length_c                    26.2934
_cell_angle_alpha                 109.4710
_cell_angle_beta                  109.4710
_cell_angle_gamma                 109.4710
loop_
_atom_site_label
_atom_site_type_symbol
_atom_site_fract_x
_atom_site_fract_y
_atom_site_fract_z
_atom_site_U_iso_or_equiv
_atom_site_adp_type
_atom_site_occupancy
Cu1    Cu    0.26680   0.32716   0.20298   0.01267  Uiso   1.00
Cu2    Cu    0.62418   0.06382   0.29702   0.01267  Uiso   1.00
Cu3    Cu    0.87582   0.17284   0.43964   0.01267  Uiso   1.00
Cu4    Cu    0.23320   0.43618   0.06036   0.01267  Uiso   1.00
Cu5    Cu    0.93964   0.87582   0.67284   0.01267  Uiso   1.00
Cu6    Cu    0.56036   0.23320   0.93618   0.01267  Uiso   1.00
Cu7    Cu    0.70298   0.26680   0.82716   0.01267  Uiso   1.00
Cu8    Cu    0.79702   0.62418   0.56382   0.01267  Uiso   1.00
Cu9    Cu    0.06382   0.79702   0.12418   0.01267  Uiso   1.00
Cu10   Cu    0.32716   0.70298   0.76680   0.01267  Uiso   1.00
Cu11   Cu    0.43618   0.56036   0.73320   0.01267  Uiso   1.00
Cu12   Cu    0.17284   0.93964   0.37582   0.01267  Uiso   1.00
Cu13   Cu    0.56382   0.12418   0.79702   0.01267  Uiso   1.00
Cu14   Cu    0.82716   0.76680   0.70298   0.01267  Uiso   1.00
Cu15   Cu    0.93618   0.73320   0.56036   0.01267  Uiso   1.00
Cu16   Cu    0.67284   0.37582   0.93964   0.01267  Uiso   1.00
Cu17   Cu    0.76680   0.20298   0.32716   0.01267  Uiso   1.00
Cu18   Cu    0.12418   0.29702   0.06382   0.01267  Uiso   1.00
Cu19   Cu    0.37582   0.43964   0.17284   0.01267  Uiso   1.00
Cu20   Cu    0.73320   0.06036   0.43618   0.01267  Uiso   1.00
Cu21   Cu    0.43964   0.67284   0.87582   0.01267  Uiso   1.00
Cu22   Cu    0.06036   0.93618   0.23320   0.01267  Uiso   1.00
Cu23   Cu    0.20298   0.82716   0.26680   0.01267  Uiso   1.00
Cu24   Cu    0.29702   0.56382   0.62418   0.01267  Uiso   1.00
Cu25   Cu    0.25000   0.28628   0.03628   0.01267  Uiso   1.00
Cu26   Cu    0.75000   0.21372   0.46372   0.01267  Uiso   1.00
Cu27   Cu    0.96372   0.75000   0.71372   0.01267  Uiso   1.00
Cu28   Cu    0.53628   0.25000   0.78628   0.01267  Uiso   1.00
Cu29   Cu    0.21372   0.96372   0.25000   0.01267  Uiso   1.00
Cu30   Cu    0.28628   0.53628   0.75000   0.01267  Uiso   1.00
Cu31   Cu    0.71372   0.25000   0.96372   0.01267  Uiso   1.00
Cu32   Cu    0.78628   0.75000   0.53628   0.01267  Uiso   1.00
Cu33   Cu    0.75000   0.03628   0.28628   0.01267  Uiso   1.00
Cu34   Cu    0.25000   0.46372   0.21372   0.01267  Uiso   1.00
Cu35   Cu    0.46372   0.71372   0.75000   0.01267  Uiso   1.00
Cu36   Cu    0.03628   0.78628   0.25000   0.01267  Uiso   1.00
H1     H     0.41300   0.42300   0.32620   0.01267  Uiso   1.00
H2     H     0.24360   0.36640   0.31420   0.01267  Uiso   1.00
H3     H     0.32440   0.43360   0.42660   0.01267  Uiso   1.00
H4     H     0.27060   0.34100   0.94480   0.01267  Uiso   1.00
H5     H     0.32730   0.23000   0.99290   0.01267  Uiso   1.00
H6     H     0.36550   0.24840   0.92150   0.01267  Uiso   1.00
H7     H     0.59680   0.08680   0.17380   0.01267  Uiso   1.00
H8     H     0.55220   0.92940   0.18580   0.01267  Uiso   1.00
H9     H     0.50700   0.89780   0.07340   0.01267  Uiso   1.00
H10    H     0.89620   0.32580   0.55520   0.01267  Uiso   1.00
H11    H     0.73710   0.33440   0.50710   0.01267  Uiso   1.00
H12    H     0.82690   0.44400   0.57850   0.01267  Uiso   1.00
H13    H     0.90320   0.07700   0.49000   0.01267  Uiso   1.00
H14    H     0.94780   0.13360   0.37720   0.01267  Uiso   1.00
H15    H     0.99300   0.06640   0.39080   0.01267  Uiso   1.00
H16    H     0.60380   0.15900   0.42960   0.01267  Uiso   1.00
H17    H     0.76290   0.27000   0.59730   0.01267  Uiso   1.00
H18    H     0.67310   0.25160   0.61710   0.01267  Uiso   1.00
H19    H     0.08700   0.41320   0.01000   0.01267  Uiso   1.00
H20    H     0.25640   0.57060   0.12280   0.01267  Uiso   1.00
H21    H     0.17560   0.60220   0.10920   0.01267  Uiso   1.00
H22    H     0.22940   0.17420   0.07040   0.01267  Uiso   1.00
H23    H     0.17270   0.16560   0.90270   0.01267  Uiso   1.00
H24    H     0.13450   0.05600   0.88290   0.01267  Uiso   1.00
H25    H     0.99000   0.90320   0.57700   0.01267  Uiso   1.00
H26    H     0.87720   0.94780   0.63360   0.01267  Uiso   1.00
H27    H     0.89080   0.99300   0.56640   0.01267  Uiso   1.00
H28    H     0.92960   0.60380   0.65900   0.01267  Uiso   1.00
H29    H     0.09730   0.76290   0.77000   0.01267  Uiso   1.00
H30    H     0.11710   0.67310   0.75160   0.01267  Uiso   1.00
H31    H     0.51000   0.08700   0.91320   0.01267  Uiso   1.00
H32    H     0.62280   0.25640   0.07060   0.01267  Uiso   1.00
H33    H     0.60920   0.17560   0.10220   0.01267  Uiso   1.00
H34    H     0.57040   0.22940   0.67420   0.01267  Uiso   1.00
H35    H     0.40270   0.17270   0.66560   0.01267  Uiso   1.00
H36    H     0.38290   0.13450   0.55600   0.01267  Uiso   1.00
H37    H     0.82620   0.41300   0.92300   0.01267  Uiso   1.00
H38    H     0.81420   0.24360   0.86640   0.01267  Uiso   1.00
H39    H     0.92660   0.32440   0.93360   0.01267  Uiso   1.00
H40    H     0.44480   0.27060   0.84100   0.01267  Uiso   1.00
H41    H     0.49290   0.32730   0.73000   0.01267  Uiso   1.00
H42    H     0.42150   0.36550   0.74840   0.01267  Uiso   1.00
H43    H     0.67380   0.59680   0.58680   0.01267  Uiso   1.00
H44    H     0.68580   0.55220   0.42940   0.01267  Uiso   1.00
H45    H     0.57340   0.50700   0.39780   0.01267  Uiso   1.00
H46    H     0.05520   0.89620   0.82580   0.01267  Uiso   1.00
H47    H     0.00710   0.73710   0.83440   0.01267  Uiso   1.00
H48    H     0.07850   0.82690   0.94400   0.01267  Uiso   1.00
H49    H     0.08680   0.67380   0.09680   0.01267  Uiso   1.00
H50    H     0.92940   0.68580   0.05220   0.01267  Uiso   1.00
H51    H     0.89780   0.57340   0.00700   0.01267  Uiso   1.00
H52    H     0.32580   0.05520   0.39620   0.01267  Uiso   1.00
H53    H     0.33440   0.00710   0.23710   0.01267  Uiso   1.00
H54    H     0.44400   0.07850   0.32690   0.01267  Uiso   1.00
H55    H     0.42300   0.82620   0.91300   0.01267  Uiso   1.00
H56    H     0.36640   0.81420   0.74360   0.01267  Uiso   1.00
H57    H     0.43360   0.92660   0.82440   0.01267  Uiso   1.00
H58    H     0.34100   0.44480   0.77060   0.01267  Uiso   1.00
H59    H     0.23000   0.49290   0.82730   0.01267  Uiso   1.00
H60    H     0.24840   0.42150   0.86550   0.01267  Uiso   1.00
H61    H     0.41320   0.51000   0.58700   0.01267  Uiso   1.00
H62    H     0.57060   0.62280   0.75640   0.01267  Uiso   1.00
H63    H     0.60220   0.60920   0.67560   0.01267  Uiso   1.00
H64    H     0.17420   0.57040   0.72940   0.01267  Uiso   1.00
H65    H     0.16560   0.40270   0.67270   0.01267  Uiso   1.00
H66    H     0.05600   0.38290   0.63450   0.01267  Uiso   1.00
H67    H     0.07700   0.99000   0.40320   0.01267  Uiso   1.00
H68    H     0.13360   0.87720   0.44780   0.01267  Uiso   1.00
H69    H     0.06640   0.89080   0.49300   0.01267  Uiso   1.00
H70    H     0.15900   0.92960   0.10380   0.01267  Uiso   1.00
H71    H     0.27000   0.09730   0.26290   0.01267  Uiso   1.00
H72    H     0.25160   0.11710   0.17310   0.01267  Uiso   1.00
H73    H     0.58680   0.09680   0.67380   0.01267  Uiso   1.00
H74    H     0.42940   0.05220   0.68580   0.01267  Uiso   1.00
H75    H     0.39780   0.00700   0.57340   0.01267  Uiso   1.00
H76    H     0.82580   0.39620   0.05520   0.01267  Uiso   1.00
H77    H     0.83440   0.23710   0.00710   0.01267  Uiso   1.00
H78    H     0.94400   0.32690   0.07850   0.01267  Uiso   1.00
H79    H     0.92300   0.91300   0.82620   0.01267  Uiso   1.00
H80    H     0.86640   0.74360   0.81420   0.01267  Uiso   1.00
H81    H     0.93360   0.82440   0.92660   0.01267  Uiso   1.00
H82    H     0.84100   0.77060   0.44480   0.01267  Uiso   1.00
H83    H     0.73000   0.82730   0.49290   0.01267  Uiso   1.00
H84    H     0.74840   0.86550   0.42150   0.01267  Uiso   1.00
H85    H     0.91320   0.58700   0.51000   0.01267  Uiso   1.00
H86    H     0.07060   0.75640   0.62280   0.01267  Uiso   1.00
H87    H     0.10220   0.67560   0.60920   0.01267  Uiso   1.00
H88    H     0.67420   0.72940   0.57040   0.01267  Uiso   1.00
H89    H     0.66560   0.67270   0.40270   0.01267  Uiso   1.00
H90    H     0.55600   0.63450   0.38290   0.01267  Uiso   1.00
H91    H     0.57700   0.40320   0.99000   0.01267  Uiso   1.00
H92    H     0.63360   0.44780   0.87720   0.01267  Uiso   1.00
H93    H     0.56640   0.49300   0.89080   0.01267  Uiso   1.00
H94    H     0.65900   0.10380   0.92960   0.01267  Uiso   1.00
H95    H     0.77000   0.26290   0.09730   0.01267  Uiso   1.00
H96    H     0.75160   0.17310   0.11710   0.01267  Uiso   1.00
H97    H     0.91300   0.32620   0.42300   0.01267  Uiso   1.00
H98    H     0.74360   0.31420   0.36640   0.01267  Uiso   1.00
H99    H     0.82440   0.42660   0.43360   0.01267  Uiso   1.00
H100   H     0.77060   0.94480   0.34100   0.01267  Uiso   1.00
H101   H     0.82730   0.99290   0.23000   0.01267  Uiso   1.00
H102   H     0.86550   0.92150   0.24840   0.01267  Uiso   1.00
H103   H     0.09680   0.17380   0.08680   0.01267  Uiso   1.00
H104   H     0.05220   0.18580   0.92940   0.01267  Uiso   1.00
H105   H     0.00700   0.07340   0.89780   0.01267  Uiso   1.00
H106   H     0.39620   0.55520   0.32580   0.01267  Uiso   1.00
H107   H     0.23710   0.50710   0.33440   0.01267  Uiso   1.00
H108   H     0.32690   0.57850   0.44400   0.01267  Uiso   1.00
H109   H     0.40320   0.49000   0.07700   0.01267  Uiso   1.00
H110   H     0.44780   0.37720   0.13360   0.01267  Uiso   1.00
H111   H     0.49300   0.39080   0.06640   0.01267  Uiso   1.00
H112   H     0.10380   0.42960   0.15900   0.01267  Uiso   1.00
H113   H     0.26290   0.59730   0.27000   0.01267  Uiso   1.00
H114   H     0.17310   0.61710   0.25160   0.01267  Uiso   1.00
H115   H     0.58700   0.01000   0.41320   0.01267  Uiso   1.00
H116   H     0.75640   0.12280   0.57060   0.01267  Uiso   1.00
H117   H     0.67560   0.10920   0.60220   0.01267  Uiso   1.00
H118   H     0.72940   0.07040   0.17420   0.01267  Uiso   1.00
H119   H     0.67270   0.90270   0.16560   0.01267  Uiso   1.00
H120   H     0.63450   0.88290   0.05600   0.01267  Uiso   1.00
H121   H     0.49000   0.57700   0.90320   0.01267  Uiso   1.00
H122   H     0.37720   0.63360   0.94780   0.01267  Uiso   1.00
H123   H     0.39080   0.56640   0.99300   0.01267  Uiso   1.00
H124   H     0.42960   0.65900   0.60380   0.01267  Uiso   1.00
H125   H     0.59730   0.77000   0.76290   0.01267  Uiso   1.00
H126   H     0.61710   0.75160   0.67310   0.01267  Uiso   1.00
H127   H     0.01000   0.91320   0.08700   0.01267  Uiso   1.00
H128   H     0.12280   0.07060   0.25640   0.01267  Uiso   1.00
H129   H     0.10920   0.10220   0.17560   0.01267  Uiso   1.00
H130   H     0.07040   0.67420   0.22940   0.01267  Uiso   1.00
H131   H     0.90270   0.66560   0.17270   0.01267  Uiso   1.00
H132   H     0.88290   0.55600   0.13450   0.01267  Uiso   1.00
H133   H     0.32620   0.92300   0.41300   0.01267  Uiso   1.00
H134   H     0.31420   0.86640   0.24360   0.01267  Uiso   1.00
H135   H     0.42660   0.93360   0.32440   0.01267  Uiso   1.00
H136   H     0.94480   0.84100   0.27060   0.01267  Uiso   1.00
H137   H     0.99290   0.73000   0.32730   0.01267  Uiso   1.00
H138   H     0.92150   0.74840   0.36550   0.01267  Uiso   1.00
H139   H     0.17380   0.58680   0.59680   0.01267  Uiso   1.00
H140   H     0.18580   0.42940   0.55220   0.01267  Uiso   1.00
H141   H     0.07340   0.39780   0.50700   0.01267  Uiso   1.00
H142   H     0.55520   0.82580   0.89620   0.01267  Uiso   1.00
H143   H     0.50710   0.83440   0.73710   0.01267  Uiso   1.00
H144   H     0.57850   0.94400   0.82690   0.01267  Uiso   1.00
W1     W     0.25000   0.37500   0.12500   0.01267  Uiso   1.00
W2     W     0.75000   0.12500   0.37500   0.01267  Uiso   1.00
W3     W     0.87500   0.75000   0.62500   0.01267  Uiso   1.00
W4     W     0.62500   0.25000   0.87500   0.01267  Uiso   1.00
W5     W     0.12500   0.87500   0.25000   0.01267  Uiso   1.00
W6     W     0.37500   0.62500   0.75000   0.01267  Uiso   1.00
C1     C     0.38210   0.41750   0.33700   0.01267  Uiso   1.00
C2     C     0.28630   0.38550   0.33000   0.01267  Uiso   1.00
C3     C     0.33190   0.42330   0.39340   0.01267  Uiso   1.00
C4     C     0.44820   0.47820   0.45040   0.01267  Uiso   1.00
C5     C     0.28890   0.31660   0.94790   0.01267  Uiso   1.00
C6     C     0.32120   0.25401   0.97501   0.01267  Uiso   1.00
C7     C     0.34240   0.26400   0.93440   0.01267  Uiso   1.00
C8     C     0.33660   0.32980   0.88480   0.01267  Uiso   1.00
C9     C     0.58050   0.04510   0.16300   0.01267  Uiso   1.00
C10    C     0.55550   0.95630   0.17000   0.01267  Uiso   1.00
C11    C     0.52990   0.93850   0.10660   0.01267  Uiso   1.00
C12    C     0.52780   0.99780   0.04960   0.01267  Uiso   1.00
C13    C     0.86870   0.34100   0.55210   0.01267  Uiso   1.00
C14    C     0.77900   0.34619   0.52499   0.01267  Uiso   1.00
C15    C     0.82960   0.40800   0.56560   0.01267  Uiso   1.00
C16    C     0.94500   0.45180   0.61520   0.01267  Uiso   1.00
C17    C     0.91950   0.08250   0.46460   0.01267  Uiso   1.00
C18    C     0.94450   0.11450   0.40080   0.01267  Uiso   1.00
C19    C     0.97010   0.07670   0.40860   0.01267  Uiso   1.00
C20    C     0.97220   0.02180   0.47000   0.01267  Uiso   1.00
C21    C     0.63130   0.18340   0.47230   0.01267  Uiso   1.00
C22    C     0.72100   0.24599   0.56719   0.01267  Uiso   1.00
C23    C     0.67040   0.23600   0.57840   0.01267  Uiso   1.00
C24    C     0.55500   0.17020   0.50680   0.01267  Uiso   1.00
C25    C     0.11790   0.45490   0.03540   0.01267  Uiso   1.00
C26    C     0.21370   0.54370   0.09920   0.01267  Uiso   1.00
C27    C     0.16810   0.56150   0.09140   0.01267  Uiso   1.00
C28    C     0.05180   0.50220   0.03000   0.01267  Uiso   1.00
C29    C     0.21110   0.15900   0.02770   0.01267  Uiso   1.00
C30    C     0.17880   0.15381   0.93281   0.01267  Uiso   1.00
C31    C     0.15760   0.09200   0.92160   0.01267  Uiso   1.00
C32    C     0.16340   0.04820   0.99320   0.01267  Uiso   1.00
C33    C     0.96460   0.91950   0.58250   0.01267  Uiso   1.00
C34    C     0.90080   0.94450   0.61450   0.01267  Uiso   1.00
C35    C     0.90860   0.97010   0.57670   0.01267  Uiso   1.00
C36    C     0.97000   0.97220   0.52180   0.01267  Uiso   1.00
C37    C     0.97230   0.63130   0.68340   0.01267  Uiso   1.00
C38    C     0.06719   0.72100   0.74599   0.01267  Uiso   1.00
C39    C     0.07840   0.67040   0.73600   0.01267  Uiso   1.00
C40    C     0.00680   0.55500   0.67020   0.01267  Uiso   1.00
C41    C     0.53540   0.11790   0.95490   0.01267  Uiso   1.00
C42    C     0.59920   0.21370   0.04370   0.01267  Uiso   1.00
C43    C     0.59140   0.16810   0.06150   0.01267  Uiso   1.00
C44    C     0.53000   0.05180   0.00220   0.01267  Uiso   1.00
C45    C     0.52770   0.21110   0.65900   0.01267  Uiso   1.00
C46    C     0.43281   0.17880   0.65381   0.01267  Uiso   1.00
C47    C     0.42160   0.15760   0.59200   0.01267  Uiso   1.00
C48    C     0.49320   0.16340   0.54820   0.01267  Uiso   1.00
C49    C     0.83700   0.38210   0.91750   0.01267  Uiso   1.00
C50    C     0.83000   0.28630   0.88550   0.01267  Uiso   1.00
C51    C     0.89340   0.33190   0.92330   0.01267  Uiso   1.00
C52    C     0.95040   0.44820   0.97820   0.01267  Uiso   1.00
C53    C     0.44790   0.28890   0.81660   0.01267  Uiso   1.00
C54    C     0.47501   0.32120   0.75401   0.01267  Uiso   1.00
C55    C     0.43440   0.34240   0.76400   0.01267  Uiso   1.00
C56    C     0.38480   0.33660   0.82980   0.01267  Uiso   1.00
C57    C     0.66300   0.58050   0.54510   0.01267  Uiso   1.00
C58    C     0.67000   0.55550   0.45630   0.01267  Uiso   1.00
C59    C     0.60660   0.52990   0.43850   0.01267  Uiso   1.00
C60    C     0.54960   0.52780   0.49780   0.01267  Uiso   1.00
C61    C     0.05210   0.86870   0.84100   0.01267  Uiso   1.00
C62    C     0.02499   0.77900   0.84619   0.01267  Uiso   1.00
C63    C     0.06560   0.82960   0.90800   0.01267  Uiso   1.00
C64    C     0.11520   0.94500   0.95180   0.01267  Uiso   1.00
C65    C     0.04510   0.66300   0.08050   0.01267  Uiso   1.00
C66    C     0.95630   0.67000   0.05550   0.01267  Uiso   1.00
C67    C     0.93850   0.60660   0.02990   0.01267  Uiso   1.00
C68    C     0.99780   0.54960   0.02780   0.01267  Uiso   1.00
C69    C     0.34100   0.05210   0.36870   0.01267  Uiso   1.00
C70    C     0.34619   0.02499   0.27900   0.01267  Uiso   1.00
C71    C     0.40800   0.06560   0.32960   0.01267  Uiso   1.00
C72    C     0.45180   0.11520   0.44500   0.01267  Uiso   1.00
C73    C     0.41750   0.83700   0.88210   0.01267  Uiso   1.00
C74    C     0.38550   0.83000   0.78630   0.01267  Uiso   1.00
C75    C     0.42330   0.89340   0.83190   0.01267  Uiso   1.00
C76    C     0.47820   0.95040   0.94820   0.01267  Uiso   1.00
C77    C     0.31660   0.44790   0.78890   0.01267  Uiso   1.00
C78    C     0.25401   0.47501   0.82120   0.01267  Uiso   1.00
C79    C     0.26400   0.43440   0.84240   0.01267  Uiso   1.00
C80    C     0.32980   0.38480   0.83660   0.01267  Uiso   1.00
C81    C     0.45490   0.53540   0.61790   0.01267  Uiso   1.00
C82    C     0.54370   0.59920   0.71370   0.01267  Uiso   1.00
C83    C     0.56150   0.59140   0.66810   0.01267  Uiso   1.00
C84    C     0.50220   0.53000   0.55180   0.01267  Uiso   1.00
C85    C     0.15900   0.52770   0.71110   0.01267  Uiso   1.00
C86    C     0.15381   0.43281   0.67880   0.01267  Uiso   1.00
C87    C     0.09200   0.42160   0.65760   0.01267  Uiso   1.00
C88    C     0.04820   0.49320   0.66340   0.01267  Uiso   1.00
C89    C     0.08250   0.96460   0.41950   0.01267  Uiso   1.00
C90    C     0.11450   0.90080   0.44450   0.01267  Uiso   1.00
C91    C     0.07670   0.90860   0.47010   0.01267  Uiso   1.00
C92    C     0.02180   0.97000   0.47220   0.01267  Uiso   1.00
C93    C     0.18340   0.97230   0.13130   0.01267  Uiso   1.00
C94    C     0.24599   0.06719   0.22100   0.01267  Uiso   1.00
C95    C     0.23600   0.07840   0.17040   0.01267  Uiso   1.00
C96    C     0.17020   0.00680   0.05500   0.01267  Uiso   1.00
C97    C     0.54510   0.08050   0.66300   0.01267  Uiso   1.00
C98    C     0.45630   0.05550   0.67000   0.01267  Uiso   1.00
C99    C     0.43850   0.02990   0.60660   0.01267  Uiso   1.00
C100   C     0.49780   0.02780   0.54960   0.01267  Uiso   1.00
C101   C     0.84100   0.36870   0.05210   0.01267  Uiso   1.00
C102   C     0.84619   0.27900   0.02499   0.01267  Uiso   1.00
C103   C     0.90800   0.32960   0.06560   0.01267  Uiso   1.00
C104   C     0.95180   0.44500   0.11520   0.01267  Uiso   1.00
C105   C     0.91750   0.88210   0.83700   0.01267  Uiso   1.00
C106   C     0.88550   0.78630   0.83000   0.01267  Uiso   1.00
C107   C     0.92330   0.83190   0.89340   0.01267  Uiso   1.00
C108   C     0.97820   0.94820   0.95040   0.01267  Uiso   1.00
C109   C     0.81660   0.78890   0.44790   0.01267  Uiso   1.00
C110   C     0.75401   0.82120   0.47501   0.01267  Uiso   1.00
C111   C     0.76400   0.84240   0.43440   0.01267  Uiso   1.00
C112   C     0.82980   0.83660   0.38480   0.01267  Uiso   1.00
C113   C     0.95490   0.61790   0.53540   0.01267  Uiso   1.00
C114   C     0.04370   0.71370   0.59920   0.01267  Uiso   1.00
C115   C     0.06150   0.66810   0.59140   0.01267  Uiso   1.00
C116   C     0.00220   0.55180   0.53000   0.01267  Uiso   1.00
C117   C     0.65900   0.71110   0.52770   0.01267  Uiso   1.00
C118   C     0.65381   0.67880   0.43281   0.01267  Uiso   1.00
C119   C     0.59200   0.65760   0.42160   0.01267  Uiso   1.00
C120   C     0.54820   0.66340   0.49320   0.01267  Uiso   1.00
C121   C     0.58250   0.41950   0.96460   0.01267  Uiso   1.00
C122   C     0.61450   0.44450   0.90080   0.01267  Uiso   1.00
C123   C     0.57670   0.47010   0.90860   0.01267  Uiso   1.00
C124   C     0.52180   0.47220   0.97000   0.01267  Uiso   1.00
C125   C     0.68340   0.13130   0.97230   0.01267  Uiso   1.00
C126   C     0.74599   0.22100   0.06719   0.01267  Uiso   1.00
C127   C     0.73600   0.17040   0.07840   0.01267  Uiso   1.00
C128   C     0.67020   0.05500   0.00680   0.01267  Uiso   1.00
C129   C     0.88210   0.33700   0.41750   0.01267  Uiso   1.00
C130   C     0.78630   0.33000   0.38550   0.01267  Uiso   1.00
C131   C     0.83190   0.39340   0.42330   0.01267  Uiso   1.00
C132   C     0.94820   0.45040   0.47820   0.01267  Uiso   1.00
C133   C     0.78890   0.94790   0.31660   0.01267  Uiso   1.00
C134   C     0.82120   0.97501   0.25401   0.01267  Uiso   1.00
C135   C     0.84240   0.93440   0.26400   0.01267  Uiso   1.00
C136   C     0.83660   0.88480   0.32980   0.01267  Uiso   1.00
C137   C     0.08050   0.16300   0.04510   0.01267  Uiso   1.00
C138   C     0.05550   0.17000   0.95630   0.01267  Uiso   1.00
C139   C     0.02990   0.10660   0.93850   0.01267  Uiso   1.00
C140   C     0.02780   0.04960   0.99780   0.01267  Uiso   1.00
C141   C     0.36870   0.55210   0.34100   0.01267  Uiso   1.00
C142   C     0.27900   0.52499   0.34619   0.01267  Uiso   1.00
C143   C     0.32960   0.56560   0.40800   0.01267  Uiso   1.00
C144   C     0.44500   0.61520   0.45180   0.01267  Uiso   1.00
C145   C     0.41950   0.46460   0.08250   0.01267  Uiso   1.00
C146   C     0.44450   0.40080   0.11450   0.01267  Uiso   1.00
C147   C     0.47010   0.40860   0.07670   0.01267  Uiso   1.00
C148   C     0.47220   0.47000   0.02180   0.01267  Uiso   1.00
C149   C     0.13130   0.47230   0.18340   0.01267  Uiso   1.00
C150   C     0.22100   0.56719   0.24599   0.01267  Uiso   1.00
C151   C     0.17040   0.57840   0.23600   0.01267  Uiso   1.00
C152   C     0.05500   0.50680   0.17020   0.01267  Uiso   1.00
C153   C     0.61790   0.03540   0.45490   0.01267  Uiso   1.00
C154   C     0.71370   0.09920   0.54370   0.01267  Uiso   1.00
C155   C     0.66810   0.09140   0.56150   0.01267  Uiso   1.00
C156   C     0.55180   0.03000   0.50220   0.01267  Uiso   1.00
C157   C     0.71110   0.02770   0.15900   0.01267  Uiso   1.00
C158   C     0.67880   0.93281   0.15381   0.01267  Uiso   1.00
C159   C     0.65760   0.92160   0.09200   0.01267  Uiso   1.00
C160   C     0.66340   0.99320   0.04820   0.01267  Uiso   1.00
C161   C     0.46460   0.58250   0.91950   0.01267  Uiso   1.00
C162   C     0.40080   0.61450   0.94450   0.01267  Uiso   1.00
C163   C     0.40860   0.57670   0.97010   0.01267  Uiso   1.00
C164   C     0.47000   0.52180   0.97220   0.01267  Uiso   1.00
C165   C     0.47230   0.68340   0.63130   0.01267  Uiso   1.00
C166   C     0.56719   0.74599   0.72100   0.01267  Uiso   1.00
C167   C     0.57840   0.73600   0.67040   0.01267  Uiso   1.00
C168   C     0.50680   0.67020   0.55500   0.01267  Uiso   1.00
C169   C     0.03540   0.95490   0.11790   0.01267  Uiso   1.00
C170   C     0.09920   0.04370   0.21370   0.01267  Uiso   1.00
C171   C     0.09140   0.06150   0.16810   0.01267  Uiso   1.00
C172   C     0.03000   0.00220   0.05180   0.01267  Uiso   1.00
C173   C     0.02770   0.65900   0.21110   0.01267  Uiso   1.00
C174   C     0.93281   0.65381   0.17880   0.01267  Uiso   1.00
C175   C     0.92160   0.59200   0.15760   0.01267  Uiso   1.00
C176   C     0.99320   0.54820   0.16340   0.01267  Uiso   1.00
C177   C     0.33700   0.91750   0.38210   0.01267  Uiso   1.00
C178   C     0.33000   0.88550   0.28630   0.01267  Uiso   1.00
C179   C     0.39340   0.92330   0.33190   0.01267  Uiso   1.00
C180   C     0.45040   0.97820   0.44820   0.01267  Uiso   1.00
C181   C     0.94790   0.81660   0.28890   0.01267  Uiso   1.00
C182   C     0.97501   0.75401   0.32120   0.01267  Uiso   1.00
C183   C     0.93440   0.76400   0.34240   0.01267  Uiso   1.00
C184   C     0.88480   0.82980   0.33660   0.01267  Uiso   1.00
C185   C     0.16300   0.54510   0.58050   0.01267  Uiso   1.00
C186   C     0.17000   0.45630   0.55550   0.01267  Uiso   1.00
C187   C     0.10660   0.43850   0.52990   0.01267  Uiso   1.00
C188   C     0.04960   0.49780   0.52780   0.01267  Uiso   1.00
C189   C     0.55210   0.84100   0.86870   0.01267  Uiso   1.00
C190   C     0.52499   0.84619   0.77900   0.01267  Uiso   1.00
C191   C     0.56560   0.90800   0.82960   0.01267  Uiso   1.00
C192   C     0.61520   0.95180   0.94500   0.01267  Uiso   1.00
S1     S     0.31471   0.33624   0.14321   0.01267  Uiso   1.00
S2     S     0.69303   0.17150   0.35679   0.01267  Uiso   1.00
S3     S     0.80697   0.16376   0.47847   0.01267  Uiso   1.00
S4     S     0.18529   0.32850   0.02153   0.01267  Uiso   1.00
S5     S     0.97847   0.80697   0.66376   0.01267  Uiso   1.00
S6     S     0.52153   0.18529   0.82850   0.01267  Uiso   1.00
S7     S     0.64321   0.31471   0.83624   0.01267  Uiso   1.00
S8     S     0.85679   0.69303   0.67150   0.01267  Uiso   1.00
S9     S     0.17150   0.85679   0.19303   0.01267  Uiso   1.00
S10    S     0.33624   0.64321   0.81471   0.01267  Uiso   1.00
S11    S     0.32850   0.52153   0.68529   0.01267  Uiso   1.00
S12    S     0.16376   0.97847   0.30697   0.01267  Uiso   1.00
S13    S     0.67150   0.19303   0.85679   0.01267  Uiso   1.00
S14    S     0.83624   0.81471   0.64321   0.01267  Uiso   1.00
S15    S     0.82850   0.68529   0.52153   0.01267  Uiso   1.00
S16    S     0.66376   0.30697   0.97847   0.01267  Uiso   1.00
S17    S     0.81471   0.14321   0.33624   0.01267  Uiso   1.00
S18    S     0.19303   0.35679   0.17150   0.01267  Uiso   1.00
S19    S     0.30697   0.47847   0.16376   0.01267  Uiso   1.00
S20    S     0.68529   0.02153   0.32850   0.01267  Uiso   1.00
S21    S     0.47847   0.66376   0.80697   0.01267  Uiso   1.00
S22    S     0.02153   0.82850   0.18529   0.01267  Uiso   1.00
S23    S     0.14321   0.83624   0.31471   0.01267  Uiso   1.00
S24    S     0.35679   0.67150   0.69303   0.01267  Uiso   1.00
I1     I     0.21913   0.21984   0.19303   0.01267  Uiso   1.00
I2     I     0.52681   0.02610   0.30697   0.01267  Uiso   1.00
I3     I     0.97319   0.28016   0.49929   0.01267  Uiso   1.00
I4     I     0.28087   0.47390   0.00071   0.01267  Uiso   1.00
I5     I     0.99929   0.97319   0.78016   0.01267  Uiso   1.00
I6     I     0.50071   0.28087   0.97390   0.01267  Uiso   1.00
I7     I     0.69303   0.21913   0.71984   0.01267  Uiso   1.00
I8     I     0.80697   0.52681   0.52610   0.01267  Uiso   1.00
I9     I     0.02610   0.80697   0.02681   0.01267  Uiso   1.00
I10    I     0.21984   0.69303   0.71913   0.01267  Uiso   1.00
I11    I     0.47390   0.50071   0.78087   0.01267  Uiso   1.00
I12    I     0.28016   0.99929   0.47319   0.01267  Uiso   1.00
I13    I     0.52610   0.02681   0.80697   0.01267  Uiso   1.00
I14    I     0.71984   0.71913   0.69303   0.01267  Uiso   1.00
I15    I     0.97390   0.78087   0.50071   0.01267  Uiso   1.00
I16    I     0.78016   0.47319   0.99929   0.01267  Uiso   1.00
I17    I     0.71913   0.19303   0.21984   0.01267  Uiso   1.00
I18    I     0.02681   0.30697   0.02610   0.01267  Uiso   1.00
I19    I     0.47319   0.49929   0.28016   0.01267  Uiso   1.00
I20    I     0.78087   0.00071   0.47390   0.01267  Uiso   1.00
I21    I     0.49929   0.78016   0.97319   0.01267  Uiso   1.00
I22    I     0.00071   0.97390   0.28087   0.01267  Uiso   1.00
I23    I     0.19303   0.71984   0.21913   0.01267  Uiso   1.00
I24    I     0.30697   0.52610   0.52681   0.01267  Uiso   1.00
N1     N     0.31621   0.38166   0.29453   0.01267  Uiso   1.00
N2     N     0.39173   0.44308   0.39837   0.01267  Uiso   1.00
N3     N     0.49498   0.49174   0.43844   0.01267  Uiso   1.00
N4     N     0.28909   0.28703   0.98356   0.01267  Uiso   1.00
N5     N     0.32194   0.30213   0.91713   0.01267  Uiso   1.00
N6     N     0.31430   0.36760   0.87430   0.01267  Uiso   1.00
N7     N     0.58713   0.02168   0.20547   0.01267  Uiso   1.00
N8     N     0.54471   0.99336   0.10163   0.01267  Uiso   1.00
N9     N     0.55330   0.05654   0.06156   0.01267  Uiso   1.00
N10    N     0.80347   0.30553   0.51644   0.01267  Uiso   1.00
N11    N     0.88500   0.40481   0.58287   0.01267  Uiso   1.00
N12    N     0.99330   0.44000   0.62570   0.01267  Uiso   1.00
N13    N     0.91287   0.11834   0.43455   0.01267  Uiso   1.00
N14    N     0.95529   0.05692   0.44865   0.01267  Uiso   1.00
N15    N     0.94670   0.00826   0.50324   0.01267  Uiso   1.00
N16    N     0.69653   0.21297   0.50206   0.01267  Uiso   1.00
N17    N     0.61500   0.19787   0.51981   0.01267  Uiso   1.00
N18    N     0.50670   0.13240   0.44670   0.01267  Uiso   1.00
N19    N     0.18379   0.47832   0.06545   0.01267  Uiso   1.00
N20    N     0.10827   0.50664   0.05135   0.01267  Uiso   1.00
N21    N     0.00502   0.44346   0.99676   0.01267  Uiso   1.00
N22    N     0.21091   0.19447   0.99794   0.01267  Uiso   1.00
N23    N     0.17806   0.09519   0.98019   0.01267  Uiso   1.00
N24    N     0.18570   0.06000   0.05330   0.01267  Uiso   1.00
N25    N     0.93455   0.91287   0.61834   0.01267  Uiso   1.00
N26    N     0.94865   0.95529   0.55692   0.01267  Uiso   1.00
N27    N     0.00324   0.94670   0.50826   0.01267  Uiso   1.00
N28    N     0.00206   0.69653   0.71297   0.01267  Uiso   1.00
N29    N     0.01981   0.61500   0.69787   0.01267  Uiso   1.00
N30    N     0.94670   0.50670   0.63240   0.01267  Uiso   1.00
N31    N     0.56545   0.18379   0.97832   0.01267  Uiso   1.00
N32    N     0.55135   0.10827   0.00664   0.01267  Uiso   1.00
N33    N     0.49676   0.00502   0.94346   0.01267  Uiso   1.00
N34    N     0.49794   0.21091   0.69447   0.01267  Uiso   1.00
N35    N     0.48019   0.17806   0.59519   0.01267  Uiso   1.00
N36    N     0.55330   0.18570   0.56000   0.01267  Uiso   1.00
N37    N     0.79453   0.31621   0.88166   0.01267  Uiso   1.00
N38    N     0.89837   0.39173   0.94308   0.01267  Uiso   1.00
N39    N     0.93844   0.49498   0.99174   0.01267  Uiso   1.00
N40    N     0.48356   0.28909   0.78703   0.01267  Uiso   1.00
N41    N     0.41713   0.32194   0.80213   0.01267  Uiso   1.00
N42    N     0.37430   0.31430   0.86760   0.01267  Uiso   1.00
N43    N     0.70547   0.58713   0.52168   0.01267  Uiso   1.00
N44    N     0.60163   0.54471   0.49336   0.01267  Uiso   1.00
N45    N     0.56156   0.55330   0.55654   0.01267  Uiso   1.00
N46    N     0.01644   0.80347   0.80553   0.01267  Uiso   1.00
N47    N     0.08287   0.88500   0.90481   0.01267  Uiso   1.00
N48    N     0.12570   0.99330   0.94000   0.01267  Uiso   1.00
N49    N     0.02168   0.70547   0.08713   0.01267  Uiso   1.00
N50    N     0.99336   0.60163   0.04471   0.01267  Uiso   1.00
N51    N     0.05654   0.56156   0.05330   0.01267  Uiso   1.00
N52    N     0.30553   0.01644   0.30347   0.01267  Uiso   1.00
N53    N     0.40481   0.08287   0.38500   0.01267  Uiso   1.00
N54    N     0.44000   0.12570   0.49330   0.01267  Uiso   1.00
N55    N     0.38166   0.79453   0.81621   0.01267  Uiso   1.00
N56    N     0.44308   0.89837   0.89173   0.01267  Uiso   1.00
N57    N     0.49174   0.93844   0.99498   0.01267  Uiso   1.00
N58    N     0.28703   0.48356   0.78909   0.01267  Uiso   1.00
N59    N     0.30213   0.41713   0.82194   0.01267  Uiso   1.00
N60    N     0.36760   0.37430   0.81430   0.01267  Uiso   1.00
N61    N     0.47832   0.56545   0.68379   0.01267  Uiso   1.00
N62    N     0.50664   0.55135   0.60827   0.01267  Uiso   1.00
N63    N     0.44346   0.49676   0.50502   0.01267  Uiso   1.00
N64    N     0.19447   0.49794   0.71091   0.01267  Uiso   1.00
N65    N     0.09519   0.48019   0.67806   0.01267  Uiso   1.00
N66    N     0.06000   0.55330   0.68570   0.01267  Uiso   1.00
N67    N     0.11834   0.93455   0.41287   0.01267  Uiso   1.00
N68    N     0.05692   0.94865   0.45529   0.01267  Uiso   1.00
N69    N     0.00826   0.00324   0.44670   0.01267  Uiso   1.00
N70    N     0.21297   0.00206   0.19653   0.01267  Uiso   1.00
N71    N     0.19787   0.01981   0.11500   0.01267  Uiso   1.00
N72    N     0.13240   0.94670   0.00670   0.01267  Uiso   1.00
N73    N     0.52168   0.08713   0.70547   0.01267  Uiso   1.00
N74    N     0.49336   0.04471   0.60163   0.01267  Uiso   1.00
N75    N     0.55654   0.05330   0.56156   0.01267  Uiso   1.00
N76    N     0.80553   0.30347   0.01644   0.01267  Uiso   1.00
N77    N     0.90481   0.38500   0.08287   0.01267  Uiso   1.00
N78    N     0.94000   0.49330   0.12570   0.01267  Uiso   1.00
N79    N     0.88166   0.81621   0.79453   0.01267  Uiso   1.00
N80    N     0.94308   0.89173   0.89837   0.01267  Uiso   1.00
N81    N     0.99174   0.99498   0.93844   0.01267  Uiso   1.00
N82    N     0.78703   0.78909   0.48356   0.01267  Uiso   1.00
N83    N     0.80213   0.82194   0.41713   0.01267  Uiso   1.00
N84    N     0.86760   0.81430   0.37430   0.01267  Uiso   1.00
N85    N     0.97832   0.68379   0.56545   0.01267  Uiso   1.00
N86    N     0.00664   0.60827   0.55135   0.01267  Uiso   1.00
N87    N     0.94346   0.50502   0.49676   0.01267  Uiso   1.00
N88    N     0.69447   0.71091   0.49794   0.01267  Uiso   1.00
N89    N     0.59519   0.67806   0.48019   0.01267  Uiso   1.00
N90    N     0.56000   0.68570   0.55330   0.01267  Uiso   1.00
N91    N     0.61834   0.41287   0.93455   0.01267  Uiso   1.00
N92    N     0.55692   0.45529   0.94865   0.01267  Uiso   1.00
N93    N     0.50826   0.44670   0.00324   0.01267  Uiso   1.00
N94    N     0.71297   0.19653   0.00206   0.01267  Uiso   1.00
N95    N     0.69787   0.11500   0.01981   0.01267  Uiso   1.00
N96    N     0.63240   0.00670   0.94670   0.01267  Uiso   1.00
N97    N     0.81621   0.29453   0.38166   0.01267  Uiso   1.00
N98    N     0.89173   0.39837   0.44308   0.01267  Uiso   1.00
N99    N     0.99498   0.43844   0.49174   0.01267  Uiso   1.00
N100   N     0.78909   0.98356   0.28703   0.01267  Uiso   1.00
N101   N     0.82194   0.91713   0.30213   0.01267  Uiso   1.00
N102   N     0.81430   0.87430   0.36760   0.01267  Uiso   1.00
N103   N     0.08713   0.20547   0.02168   0.01267  Uiso   1.00
N104   N     0.04471   0.10163   0.99336   0.01267  Uiso   1.00
N105   N     0.05330   0.06156   0.05654   0.01267  Uiso   1.00
N106   N     0.30347   0.51644   0.30553   0.01267  Uiso   1.00
N107   N     0.38500   0.58287   0.40481   0.01267  Uiso   1.00
N108   N     0.49330   0.62570   0.44000   0.01267  Uiso   1.00
N109   N     0.41287   0.43455   0.11834   0.01267  Uiso   1.00
N110   N     0.45529   0.44865   0.05692   0.01267  Uiso   1.00
N111   N     0.44670   0.50324   0.00826   0.01267  Uiso   1.00
N112   N     0.19653   0.50206   0.21297   0.01267  Uiso   1.00
N113   N     0.11500   0.51981   0.19787   0.01267  Uiso   1.00
N114   N     0.00670   0.44670   0.13240   0.01267  Uiso   1.00
N115   N     0.68379   0.06545   0.47832   0.01267  Uiso   1.00
N116   N     0.60827   0.05135   0.50664   0.01267  Uiso   1.00
N117   N     0.50502   0.99676   0.44346   0.01267  Uiso   1.00
N118   N     0.71091   0.99794   0.19447   0.01267  Uiso   1.00
N119   N     0.67806   0.98019   0.09519   0.01267  Uiso   1.00
N120   N     0.68570   0.05330   0.06000   0.01267  Uiso   1.00
N121   N     0.43455   0.61834   0.91287   0.01267  Uiso   1.00
N122   N     0.44865   0.55692   0.95529   0.01267  Uiso   1.00
N123   N     0.50324   0.50826   0.94670   0.01267  Uiso   1.00
N124   N     0.50206   0.71297   0.69653   0.01267  Uiso   1.00
N125   N     0.51981   0.69787   0.61500   0.01267  Uiso   1.00
N126   N     0.44670   0.63240   0.50670   0.01267  Uiso   1.00
N127   N     0.06545   0.97832   0.18379   0.01267  Uiso   1.00
N128   N     0.05135   0.00664   0.10827   0.01267  Uiso   1.00
N129   N     0.99676   0.94346   0.00502   0.01267  Uiso   1.00
N130   N     0.99794   0.69447   0.21091   0.01267  Uiso   1.00
N131   N     0.98019   0.59519   0.17806   0.01267  Uiso   1.00
N132   N     0.05330   0.56000   0.18570   0.01267  Uiso   1.00
N133   N     0.29453   0.88166   0.31621   0.01267  Uiso   1.00
N134   N     0.39837   0.94308   0.39173   0.01267  Uiso   1.00
N135   N     0.43844   0.99174   0.49498   0.01267  Uiso   1.00
N136   N     0.98356   0.78703   0.28909   0.01267  Uiso   1.00
N137   N     0.91713   0.80213   0.32194   0.01267  Uiso   1.00
N138   N     0.87430   0.86760   0.31430   0.01267  Uiso   1.00
N139   N     0.20547   0.52168   0.58713   0.01267  Uiso   1.00
N140   N     0.10163   0.49336   0.54471   0.01267  Uiso   1.00
N141   N     0.06156   0.55654   0.55330   0.01267  Uiso   1.00
N142   N     0.51644   0.80553   0.80347   0.01267  Uiso   1.00
N143   N     0.58287   0.90481   0.88500   0.01267  Uiso   1.00
N144   N     0.62570   0.94000   0.99330   0.01267  Uiso   1.00
