data_image0
_cell_length_a       13.491
_cell_length_b       36.221
_cell_length_c       13.779
_cell_angle_alpha    90
_cell_angle_beta     100.794
_cell_angle_gamma    90

_symmetry_space_group_name_H-M    "P 1"
_symmetry_int_tables_number       1

loop_
  _symmetry_equiv_pos_as_xyz
  'x, y, z'

loop_
  _atom_site_label
  _atom_site_occupancy
  _atom_site_fract_x
  _atom_site_fract_y
  _atom_site_fract_z
  _atom_site_thermal_displace_type
  _atom_site_B_iso_or_equiv
  _atom_site_type_symbol
  Cd1      1.0000 0.35079  0.15050  0.00519  Biso   1.000  Cd
  Cd2      1.0000 0.20738  0.09158  0.79387  Biso   1.000  Cd
  Cd3      1.0000 0.40075  0.05259  0.61680  Biso   1.000  Cd
  Cd4      1.0000 0.98965  0.14760  0.63691  Biso   1.000  Cd
  Cl1      1.0000 0.23830  0.09260  0.98490  Biso   1.000  Cl
  Cl2      1.0000 0.01130  0.08880  0.75950  Biso   1.000  Cl
  Cl3      1.0000 0.26210  0.19180  0.11610  Biso   1.000  Cl
  N1       1.0000 0.25380  0.08500  0.56240  Biso   1.000  N
  N2       1.0000 0.20070  0.10150  0.62030  Biso   1.000  N
  N3       1.0000 0.12070  0.11820  0.57280  Biso   1.000  N
  N4       1.0000 0.12470  0.11460  0.47630  Biso   1.000  N
  C1       1.0000 0.20670  0.09260  0.47130  Biso   1.000  C
  N5       1.0000 0.23610  0.08150  0.38510  Biso   1.000  N
  H1       1.0000 0.28970  0.06840  0.38770  Biso   1.000  H
  H2       1.0000 0.20090  0.08770  0.32890  Biso   1.000  H
  N6       1.0000 0.11370  0.17790  0.74470  Biso   1.000  N
  N7       1.0000 0.18400  0.15620  0.80150  Biso   1.000  N
  N8       1.0000 0.23530  0.17720  0.87160  Biso   1.000  N
  N9       1.0000 0.19760  0.21080  0.86580  Biso   1.000  N
  C2       1.0000 0.12280  0.21120  0.78880  Biso   1.000  C
  N10      1.0000 0.06540  0.24070  0.75290  Biso   1.000  N
  H3       1.0000 0.07620  0.26190  0.78100  Biso   1.000  H
  H4       1.0000 0.01810  0.23820  0.70190  Biso   1.000  H
  N11      1.0000 0.41930  0.23860  0.99500  Biso   1.000  N
  N12      1.0000 0.45330  0.20320  0.99510  Biso   1.000  N
  H5       1.0000 0.44420  0.30960  0.99650  Biso   1.000  H
  N13      1.0000 0.52780  0.12870  0.86720  Biso   1.000  N
  N14      1.0000 0.43060  0.12330  0.88410  Biso   1.000  N
  N15      1.0000 0.38340  0.10430  0.80780  Biso   1.000  N
  N16      1.0000 0.44640  0.09620  0.74520  Biso   1.000  N
  C3       1.0000 0.53270  0.11240  0.78720  Biso   1.000  C
  N17      1.0000 0.61690  0.11330  0.74100  Biso   1.000  N
  H6       1.0000 0.66960  0.12570  0.76720  Biso   1.000  H
  H7       1.0000 0.61580  0.10160  0.68650  Biso   1.000  H
  N18      1.0000 0.23500  0.02990  0.77580  Biso   1.000  N
  N19      1.0000 0.30620  0.01820  0.72390  Biso   1.000  N
  H8       1.0000 0.11000  0.02050  0.88220  Biso   1.000  H
  Cd5      1.0000 0.85079  0.65050  0.00519  Biso   1.000  Cd
  Cd6      1.0000 0.70738  0.59158  0.79387  Biso   1.000  Cd
  Cd7      1.0000 0.90075  0.55259  0.61680  Biso   1.000  Cd
  Cd8      1.0000 0.48965  0.64760  0.63691  Biso   1.000  Cd
  Cl4      1.0000 0.73830  0.59260  0.98490  Biso   1.000  Cl
  Cl5      1.0000 0.51130  0.58880  0.75950  Biso   1.000  Cl
  Cl6      1.0000 0.76210  0.69180  0.11610  Biso   1.000  Cl
  N20      1.0000 0.75380  0.58500  0.56240  Biso   1.000  N
  N21      1.0000 0.70070  0.60150  0.62030  Biso   1.000  N
  N22      1.0000 0.62070  0.61820  0.57280  Biso   1.000  N
  N23      1.0000 0.62470  0.61460  0.47630  Biso   1.000  N
  C4       1.0000 0.70670  0.59260  0.47130  Biso   1.000  C
  N24      1.0000 0.73610  0.58150  0.38510  Biso   1.000  N
  H9       1.0000 0.78970  0.56840  0.38770  Biso   1.000  H
  H10      1.0000 0.70090  0.58770  0.32890  Biso   1.000  H
  N25      1.0000 0.61370  0.67790  0.74470  Biso   1.000  N
  N26      1.0000 0.68400  0.65620  0.80150  Biso   1.000  N
  N27      1.0000 0.73530  0.67720  0.87160  Biso   1.000  N
  N28      1.0000 0.69760  0.71080  0.86580  Biso   1.000  N
  C5       1.0000 0.62280  0.71120  0.78880  Biso   1.000  C
  N29      1.0000 0.56540  0.74070  0.75290  Biso   1.000  N
  H11      1.0000 0.57620  0.76190  0.78100  Biso   1.000  H
  H12      1.0000 0.51810  0.73820  0.70190  Biso   1.000  H
  N30      1.0000 0.91930  0.73860  0.99500  Biso   1.000  N
  N31      1.0000 0.95330  0.70320  0.99510  Biso   1.000  N
  H13      1.0000 0.94420  0.80960  0.99650  Biso   1.000  H
  N32      1.0000 0.02780  0.62870  0.86720  Biso   1.000  N
  N33      1.0000 0.93060  0.62330  0.88410  Biso   1.000  N
  N34      1.0000 0.88340  0.60430  0.80780  Biso   1.000  N
  N35      1.0000 0.94640  0.59620  0.74520  Biso   1.000  N
  C6       1.0000 0.03270  0.61240  0.78720  Biso   1.000  C
  N36      1.0000 0.11690  0.61330  0.74100  Biso   1.000  N
  H14      1.0000 0.16960  0.62570  0.76720  Biso   1.000  H
  H15      1.0000 0.11580  0.60160  0.68650  Biso   1.000  H
  N37      1.0000 0.73500  0.52990  0.77580  Biso   1.000  N
  N38      1.0000 0.80620  0.51820  0.72390  Biso   1.000  N
  H16      1.0000 0.61000  0.52050  0.88220  Biso   1.000  H
  Cd9      1.0000 0.64921  0.15050  0.99481  Biso   1.000  Cd
  Cd10     1.0000 0.79262  0.09158  0.20613  Biso   1.000  Cd
  Cd11     1.0000 0.59925  0.05259  0.38320  Biso   1.000  Cd
  Cd12     1.0000 0.01035  0.14760  0.36309  Biso   1.000  Cd
  Cl7      1.0000 0.76170  0.09260  0.01510  Biso   1.000  Cl
  Cl8      1.0000 0.98870  0.08880  0.24050  Biso   1.000  Cl
  Cl9      1.0000 0.73790  0.19180  0.88390  Biso   1.000  Cl
  N39      1.0000 0.74620  0.08500  0.43760  Biso   1.000  N
  N40      1.0000 0.79930  0.10150  0.37970  Biso   1.000  N
  N41      1.0000 0.87930  0.11820  0.42720  Biso   1.000  N
  N42      1.0000 0.87530  0.11460  0.52370  Biso   1.000  N
  C7       1.0000 0.79330  0.09260  0.52870  Biso   1.000  C
  N43      1.0000 0.76390  0.08150  0.61490  Biso   1.000  N
  H17      1.0000 0.71030  0.06840  0.61230  Biso   1.000  H
  H18      1.0000 0.79910  0.08770  0.67110  Biso   1.000  H
  N44      1.0000 0.88630  0.17790  0.25530  Biso   1.000  N
  N45      1.0000 0.81600  0.15620  0.19850  Biso   1.000  N
  N46      1.0000 0.76470  0.17720  0.12840  Biso   1.000  N
  N47      1.0000 0.80240  0.21080  0.13420  Biso   1.000  N
  C8       1.0000 0.87720  0.21120  0.21120  Biso   1.000  C
  N48      1.0000 0.93460  0.24070  0.24710  Biso   1.000  N
  H19      1.0000 0.92380  0.26190  0.21900  Biso   1.000  H
  H20      1.0000 0.98190  0.23820  0.29810  Biso   1.000  H
  N49      1.0000 0.58070  0.23860  0.00500  Biso   1.000  N
  N50      1.0000 0.54670  0.20320  0.00490  Biso   1.000  N
  H21      1.0000 0.55580  0.30960  0.00350  Biso   1.000  H
  N51      1.0000 0.47220  0.12870  0.13280  Biso   1.000  N
  N52      1.0000 0.56940  0.12330  0.11590  Biso   1.000  N
  N53      1.0000 0.61660  0.10430  0.19220  Biso   1.000  N
  N54      1.0000 0.55360  0.09620  0.25480  Biso   1.000  N
  C9       1.0000 0.46730  0.11240  0.21280  Biso   1.000  C
  N55      1.0000 0.38310  0.11330  0.25900  Biso   1.000  N
  H22      1.0000 0.33040  0.12570  0.23280  Biso   1.000  H
  H23      1.0000 0.38420  0.10160  0.31350  Biso   1.000  H
  N56      1.0000 0.76500  0.02990  0.22420  Biso   1.000  N
  N57      1.0000 0.69380  0.01820  0.27610  Biso   1.000  N
  H24      1.0000 0.89000  0.02050  0.11780  Biso   1.000  H
  Cd13     1.0000 0.14921  0.65050  0.99481  Biso   1.000  Cd
  Cd14     1.0000 0.29262  0.59158  0.20613  Biso   1.000  Cd
  Cd15     1.0000 0.09925  0.55259  0.38320  Biso   1.000  Cd
  Cd16     1.0000 0.51035  0.64760  0.36309  Biso   1.000  Cd
  Cl10     1.0000 0.26170  0.59260  0.01510  Biso   1.000  Cl
  Cl11     1.0000 0.48870  0.58880  0.24050  Biso   1.000  Cl
  Cl12     1.0000 0.23790  0.69180  0.88390  Biso   1.000  Cl
  N58      1.0000 0.24620  0.58500  0.43760  Biso   1.000  N
  N59      1.0000 0.29930  0.60150  0.37970  Biso   1.000  N
  N60      1.0000 0.37930  0.61820  0.42720  Biso   1.000  N
  N61      1.0000 0.37530  0.61460  0.52370  Biso   1.000  N
  C10      1.0000 0.29330  0.59260  0.52870  Biso   1.000  C
  N62      1.0000 0.26390  0.58150  0.61490  Biso   1.000  N
  H25      1.0000 0.21030  0.56840  0.61230  Biso   1.000  H
  H26      1.0000 0.29910  0.58770  0.67110  Biso   1.000  H
  N63      1.0000 0.38630  0.67790  0.25530  Biso   1.000  N
  N64      1.0000 0.31600  0.65620  0.19850  Biso   1.000  N
  N65      1.0000 0.26470  0.67720  0.12840  Biso   1.000  N
  N66      1.0000 0.30240  0.71080  0.13420  Biso   1.000  N
  C11      1.0000 0.37720  0.71120  0.21120  Biso   1.000  C
  N67      1.0000 0.43460  0.74070  0.24710  Biso   1.000  N
  H27      1.0000 0.42380  0.76190  0.21900  Biso   1.000  H
  H28      1.0000 0.48190  0.73820  0.29810  Biso   1.000  H
  N68      1.0000 0.08070  0.73860  0.00500  Biso   1.000  N
  N69      1.0000 0.04670  0.70320  0.00490  Biso   1.000  N
  H29      1.0000 0.05580  0.80960  0.00350  Biso   1.000  H
  N70      1.0000 0.97220  0.62870  0.13280  Biso   1.000  N
  N71      1.0000 0.06940  0.62330  0.11590  Biso   1.000  N
  N72      1.0000 0.11660  0.60430  0.19220  Biso   1.000  N
  N73      1.0000 0.05360  0.59620  0.25480  Biso   1.000  N
  C12      1.0000 0.96730  0.61240  0.21280  Biso   1.000  C
  N74      1.0000 0.88310  0.61330  0.25900  Biso   1.000  N
  H30      1.0000 0.83040  0.62570  0.23280  Biso   1.000  H
  H31      1.0000 0.88420  0.60160  0.31350  Biso   1.000  H
  N75      1.0000 0.26500  0.52990  0.22420  Biso   1.000  N
  N76      1.0000 0.19380  0.51820  0.27610  Biso   1.000  N
  H32      1.0000 0.39000  0.52050  0.11780  Biso   1.000  H
  Cd17     1.0000 0.64921  0.84950  0.99481  Biso   1.000  Cd
  Cd18     1.0000 0.79262  0.90842  0.20613  Biso   1.000  Cd
  Cd19     1.0000 0.59925  0.94741  0.38320  Biso   1.000  Cd
  Cd20     1.0000 0.01035  0.85240  0.36309  Biso   1.000  Cd
  Cl13     1.0000 0.76170  0.90740  0.01510  Biso   1.000  Cl
  Cl14     1.0000 0.98870  0.91120  0.24050  Biso   1.000  Cl
  Cl15     1.0000 0.73790  0.80820  0.88390  Biso   1.000  Cl
  N77      1.0000 0.74620  0.91500  0.43760  Biso   1.000  N
  N78      1.0000 0.79930  0.89850  0.37970  Biso   1.000  N
  N79      1.0000 0.87930  0.88180  0.42720  Biso   1.000  N
  N80      1.0000 0.87530  0.88540  0.52370  Biso   1.000  N
  C13      1.0000 0.79330  0.90740  0.52870  Biso   1.000  C
  N81      1.0000 0.76390  0.91850  0.61490  Biso   1.000  N
  H33      1.0000 0.71030  0.93160  0.61230  Biso   1.000  H
  H34      1.0000 0.79910  0.91230  0.67110  Biso   1.000  H
  N82      1.0000 0.88630  0.82210  0.25530  Biso   1.000  N
  N83      1.0000 0.81600  0.84380  0.19850  Biso   1.000  N
  N84      1.0000 0.76470  0.82280  0.12840  Biso   1.000  N
  N85      1.0000 0.80240  0.78920  0.13420  Biso   1.000  N
  C14      1.0000 0.87720  0.78880  0.21120  Biso   1.000  C
  N86      1.0000 0.93460  0.75930  0.24710  Biso   1.000  N
  H35      1.0000 0.92380  0.73810  0.21900  Biso   1.000  H
  H36      1.0000 0.98190  0.76180  0.29810  Biso   1.000  H
  N87      1.0000 0.58070  0.76140  0.00500  Biso   1.000  N
  N88      1.0000 0.54670  0.79680  0.00490  Biso   1.000  N
  H37      1.0000 0.55580  0.69040  0.00350  Biso   1.000  H
  N89      1.0000 0.47220  0.87130  0.13280  Biso   1.000  N
  N90      1.0000 0.56940  0.87670  0.11590  Biso   1.000  N
  N91      1.0000 0.61660  0.89570  0.19220  Biso   1.000  N
  N92      1.0000 0.55360  0.90380  0.25480  Biso   1.000  N
  C15      1.0000 0.46730  0.88760  0.21280  Biso   1.000  C
  N93      1.0000 0.38310  0.88670  0.25900  Biso   1.000  N
  H38      1.0000 0.33040  0.87430  0.23280  Biso   1.000  H
  H39      1.0000 0.38420  0.89840  0.31350  Biso   1.000  H
  N94      1.0000 0.76500  0.97010  0.22420  Biso   1.000  N
  N95      1.0000 0.69380  0.98180  0.27610  Biso   1.000  N
  H40      1.0000 0.89000  0.97950  0.11780  Biso   1.000  H
  Cd21     1.0000 0.14921  0.34950  0.99481  Biso   1.000  Cd
  Cd22     1.0000 0.29262  0.40842  0.20613  Biso   1.000  Cd
  Cd23     1.0000 0.09925  0.44741  0.38320  Biso   1.000  Cd
  Cd24     1.0000 0.51035  0.35240  0.36309  Biso   1.000  Cd
  Cl16     1.0000 0.26170  0.40740  0.01510  Biso   1.000  Cl
  Cl17     1.0000 0.48870  0.41120  0.24050  Biso   1.000  Cl
  Cl18     1.0000 0.23790  0.30820  0.88390  Biso   1.000  Cl
  N96      1.0000 0.24620  0.41500  0.43760  Biso   1.000  N
  N97      1.0000 0.29930  0.39850  0.37970  Biso   1.000  N
  N98      1.0000 0.37930  0.38180  0.42720  Biso   1.000  N
  N99      1.0000 0.37530  0.38540  0.52370  Biso   1.000  N
  C16      1.0000 0.29330  0.40740  0.52870  Biso   1.000  C
  N100     1.0000 0.26390  0.41850  0.61490  Biso   1.000  N
  H41      1.0000 0.21030  0.43160  0.61230  Biso   1.000  H
  H42      1.0000 0.29910  0.41230  0.67110  Biso   1.000  H
  N101     1.0000 0.38630  0.32210  0.25530  Biso   1.000  N
  N102     1.0000 0.31600  0.34380  0.19850  Biso   1.000  N
  N103     1.0000 0.26470  0.32280  0.12840  Biso   1.000  N
  N104     1.0000 0.30240  0.28920  0.13420  Biso   1.000  N
  C17      1.0000 0.37720  0.28880  0.21120  Biso   1.000  C
  N105     1.0000 0.43460  0.25930  0.24710  Biso   1.000  N
  H43      1.0000 0.42380  0.23810  0.21900  Biso   1.000  H
  H44      1.0000 0.48190  0.26180  0.29810  Biso   1.000  H
  N106     1.0000 0.08070  0.26140  0.00500  Biso   1.000  N
  N107     1.0000 0.04670  0.29680  0.00490  Biso   1.000  N
  H45      1.0000 0.05580  0.19040  0.00350  Biso   1.000  H
  N108     1.0000 0.97220  0.37130  0.13280  Biso   1.000  N
  N109     1.0000 0.06940  0.37670  0.11590  Biso   1.000  N
  N110     1.0000 0.11660  0.39570  0.19220  Biso   1.000  N
  N111     1.0000 0.05360  0.40380  0.25480  Biso   1.000  N
  C18      1.0000 0.96730  0.38760  0.21280  Biso   1.000  C
  N112     1.0000 0.88310  0.38670  0.25900  Biso   1.000  N
  H46      1.0000 0.83040  0.37430  0.23280  Biso   1.000  H
  H47      1.0000 0.88420  0.39840  0.31350  Biso   1.000  H
  N113     1.0000 0.26500  0.47010  0.22420  Biso   1.000  N
  N114     1.0000 0.19380  0.48180  0.27610  Biso   1.000  N
  H48      1.0000 0.39000  0.47950  0.11780  Biso   1.000  H
  Cd25     1.0000 0.35079  0.84950  0.00519  Biso   1.000  Cd
  Cd26     1.0000 0.20738  0.90842  0.79387  Biso   1.000  Cd
  Cd27     1.0000 0.40075  0.94741  0.61680  Biso   1.000  Cd
  Cd28     1.0000 0.98965  0.85240  0.63691  Biso   1.000  Cd
  Cl19     1.0000 0.23830  0.90740  0.98490  Biso   1.000  Cl
  Cl20     1.0000 0.01130  0.91120  0.75950  Biso   1.000  Cl
  Cl21     1.0000 0.26210  0.80820  0.11610  Biso   1.000  Cl
  N115     1.0000 0.25380  0.91500  0.56240  Biso   1.000  N
  N116     1.0000 0.20070  0.89850  0.62030  Biso   1.000  N
  N117     1.0000 0.12070  0.88180  0.57280  Biso   1.000  N
  N118     1.0000 0.12470  0.88540  0.47630  Biso   1.000  N
  C19      1.0000 0.20670  0.90740  0.47130  Biso   1.000  C
  N119     1.0000 0.23610  0.91850  0.38510  Biso   1.000  N
  H49      1.0000 0.28970  0.93160  0.38770  Biso   1.000  H
  H50      1.0000 0.20090  0.91230  0.32890  Biso   1.000  H
  N120     1.0000 0.11370  0.82210  0.74470  Biso   1.000  N
  N121     1.0000 0.18400  0.84380  0.80150  Biso   1.000  N
  N122     1.0000 0.23530  0.82280  0.87160  Biso   1.000  N
  N123     1.0000 0.19760  0.78920  0.86580  Biso   1.000  N
  C20      1.0000 0.12280  0.78880  0.78880  Biso   1.000  C
  N124     1.0000 0.06540  0.75930  0.75290  Biso   1.000  N
  H51      1.0000 0.07620  0.73810  0.78100  Biso   1.000  H
  H52      1.0000 0.01810  0.76180  0.70190  Biso   1.000  H
  N125     1.0000 0.41930  0.76140  0.99500  Biso   1.000  N
  N126     1.0000 0.45330  0.79680  0.99510  Biso   1.000  N
  H53      1.0000 0.44420  0.69040  0.99650  Biso   1.000  H
  N127     1.0000 0.52780  0.87130  0.86720  Biso   1.000  N
  N128     1.0000 0.43060  0.87670  0.88410  Biso   1.000  N
  N129     1.0000 0.38340  0.89570  0.80780  Biso   1.000  N
  N130     1.0000 0.44640  0.90380  0.74520  Biso   1.000  N
  C21      1.0000 0.53270  0.88760  0.78720  Biso   1.000  C
  N131     1.0000 0.61690  0.88670  0.74100  Biso   1.000  N
  H54      1.0000 0.66960  0.87430  0.76720  Biso   1.000  H
  H55      1.0000 0.61580  0.89840  0.68650  Biso   1.000  H
  N132     1.0000 0.23500  0.97010  0.77580  Biso   1.000  N
  N133     1.0000 0.30620  0.98180  0.72390  Biso   1.000  N
  H56      1.0000 0.11000  0.97950  0.88220  Biso   1.000  H
  Cd29     1.0000 0.85079  0.34950  0.00519  Biso   1.000  Cd
  Cd30     1.0000 0.70738  0.40842  0.79387  Biso   1.000  Cd
  Cd31     1.0000 0.90075  0.44741  0.61680  Biso   1.000  Cd
  Cd32     1.0000 0.48965  0.35240  0.63691  Biso   1.000  Cd
  Cl22     1.0000 0.73830  0.40740  0.98490  Biso   1.000  Cl
  Cl23     1.0000 0.51130  0.41120  0.75950  Biso   1.000  Cl
  Cl24     1.0000 0.76210  0.30820  0.11610  Biso   1.000  Cl
  N134     1.0000 0.75380  0.41500  0.56240  Biso   1.000  N
  N135     1.0000 0.70070  0.39850  0.62030  Biso   1.000  N
  N136     1.0000 0.62070  0.38180  0.57280  Biso   1.000  N
  N137     1.0000 0.62470  0.38540  0.47630  Biso   1.000  N
  C22      1.0000 0.70670  0.40740  0.47130  Biso   1.000  C
  N138     1.0000 0.73610  0.41850  0.38510  Biso   1.000  N
  H57      1.0000 0.78970  0.43160  0.38770  Biso   1.000  H
  H58      1.0000 0.70090  0.41230  0.32890  Biso   1.000  H
  N139     1.0000 0.61370  0.32210  0.74470  Biso   1.000  N
  N140     1.0000 0.68400  0.34380  0.80150  Biso   1.000  N
  N141     1.0000 0.73530  0.32280  0.87160  Biso   1.000  N
  N142     1.0000 0.69760  0.28920  0.86580  Biso   1.000  N
  C23      1.0000 0.62280  0.28880  0.78880  Biso   1.000  C
  N143     1.0000 0.56540  0.25930  0.75290  Biso   1.000  N
  H59      1.0000 0.57620  0.23810  0.78100  Biso   1.000  H
  H60      1.0000 0.51810  0.26180  0.70190  Biso   1.000  H
  N144     1.0000 0.91930  0.26140  0.99500  Biso   1.000  N
  N145     1.0000 0.95330  0.29680  0.99510  Biso   1.000  N
  H61      1.0000 0.94420  0.19040  0.99650  Biso   1.000  H
  N146     1.0000 0.02780  0.37130  0.86720  Biso   1.000  N
  N147     1.0000 0.93060  0.37670  0.88410  Biso   1.000  N
  N148     1.0000 0.88340  0.39570  0.80780  Biso   1.000  N
  N149     1.0000 0.94640  0.40380  0.74520  Biso   1.000  N
  C24      1.0000 0.03270  0.38760  0.78720  Biso   1.000  C
  N150     1.0000 0.11690  0.38670  0.74100  Biso   1.000  N
  H62      1.0000 0.16960  0.37430  0.76720  Biso   1.000  H
  H63      1.0000 0.11580  0.39840  0.68650  Biso   1.000  H
  N151     1.0000 0.73500  0.47010  0.77580  Biso   1.000  N
  N152     1.0000 0.80620  0.48180  0.72390  Biso   1.000  N
  H64      1.0000 0.61000  0.47950  0.88220  Biso   1.000  H
  Cd33     1.0000 0.25000  0.25000  0.00000  Biso   1.000  Cd
  Cd34     1.0000 0.75000  0.25000  0.00000  Biso   1.000  Cd
  Cd35     1.0000 0.75000  0.75000  0.00000  Biso   1.000  Cd
  Cd36     1.0000 0.25000  0.75000  0.00000  Biso   1.000  Cd
  Cl25     1.0000 0.50000  0.08863  0.50000  Biso   1.000  Cl
  Cl26     1.0000 0.00000  0.58863  0.50000  Biso   1.000  Cl
  Cl27     1.0000 0.50000  0.91137  0.50000  Biso   1.000  Cl
  Cl28     1.0000 0.00000  0.41137  0.50000  Biso   1.000  Cl
  Cl29     1.0000 0.34110  0.00000  0.49150  Biso   1.000  Cl
  C25      1.0000 0.19500  0.00000  0.80400  Biso   1.000  C
  N153     1.0000 0.12700  0.00000  0.86200  Biso   1.000  N
  Cl30     1.0000 0.84110  0.50000  0.49150  Biso   1.000  Cl
  C26      1.0000 0.69500  0.50000  0.80400  Biso   1.000  C
  N154     1.0000 0.62700  0.50000  0.86200  Biso   1.000  N
  Cl31     1.0000 0.65890  0.00000  0.50850  Biso   1.000  Cl
  C27      1.0000 0.80500  0.00000  0.19600  Biso   1.000  C
  N155     1.0000 0.87300  0.00000  0.13800  Biso   1.000  N
  Cl32     1.0000 0.15890  0.50000  0.50850  Biso   1.000  Cl
  C28      1.0000 0.30500  0.50000  0.19600  Biso   1.000  C
  N156     1.0000 0.37300  0.50000  0.13800  Biso   1.000  N
  Cl33     1.0000 0.00000  0.19798  0.50000  Biso   1.000  Cl
  Cl34     1.0000 0.50000  0.69798  0.50000  Biso   1.000  Cl
  Cl35     1.0000 0.00000  0.80202  0.50000  Biso   1.000  Cl
  Cl36     1.0000 0.50000  0.30202  0.50000  Biso   1.000  Cl
  C29      1.0000 0.50000  0.26070  0.00000  Biso   1.000  C
  N157     1.0000 0.50000  0.29780  0.00000  Biso   1.000  N
  C30      1.0000 0.00000  0.76070  0.00000  Biso   1.000  C
  N158     1.0000 0.00000  0.79780  0.00000  Biso   1.000  N
  C31      1.0000 0.50000  0.73930  0.00000  Biso   1.000  C
  N159     1.0000 0.50000  0.70220  0.00000  Biso   1.000  N
  C32      1.0000 0.00000  0.23930  0.00000  Biso   1.000  C
  N160     1.0000 0.00000  0.20220  0.00000  Biso   1.000  N
