data_HUCBEN_clean5b
_audit_creation_date              2014-07-02
_audit_creation_method            'Materials Studio'
_symmetry_space_group_name_H-M    'P1'
_symmetry_Int_Tables_number       1
_symmetry_cell_setting            triclinic
loop_
_symmetry_equiv_pos_as_xyz
  x,y,z
_cell_length_a                    9.8281
_cell_length_b                    10.1059
_cell_length_c                    18.9121
_cell_angle_alpha                 105.1300
_cell_angle_beta                  105.0600
_cell_angle_gamma                 90.0000
loop_
_atom_site_label
_atom_site_type_symbol
_atom_site_fract_x
_atom_site_fract_y
_atom_site_fract_z
_atom_site_U_iso_or_equiv
_atom_site_adp_type
_atom_site_occupancy
In1    In    0.13344   0.98820   0.27877   0.01267  Uiso   1.00
H1     H     0.75191   0.82701   0.07793   0.01267  Uiso   1.00
H2     H     0.68004   0.88972   0.97137   0.01267  Uiso   1.00
H3     H     0.61541   0.82696   0.83335   0.01267  Uiso   1.00
H4     H     0.15814   0.77426   0.72333   0.01267  Uiso   1.00
H5     H     0.08898   0.71084   0.58342   0.01267  Uiso   1.00
H6     H     0.31540   0.85258   0.07666   0.01267  Uiso   1.00
H7     H     0.28075   0.69869   0.96431   0.01267  Uiso   1.00
H8     H     0.21216   0.64940   0.82630   0.01267  Uiso   1.00
H9     H     0.56574   0.61680   0.72194   0.01267  Uiso   1.00
H10    H     0.49430   0.54964   0.58230   0.01267  Uiso   1.00
H11    H     0.63823   0.94922   0.29000   0.01267  Uiso   1.00
H12    H     0.24927   0.36313   0.48846   0.01267  Uiso   1.00
H13    H     0.12154   0.43523   0.26730   0.01267  Uiso   1.00
H14    H     0.22246   0.77721   0.46886   0.01267  Uiso   1.00
C1     C     0.87553   0.91971   0.22517   0.01267  Uiso   1.00
C2     C     0.71602   0.89185   0.18858   0.01267  Uiso   1.00
C3     C     0.67199   0.84884   0.10847   0.01267  Uiso   1.00
C4     C     0.57909   0.83356   0.94131   0.01267  Uiso   1.00
C5     C     0.54130   0.79943   0.86158   0.01267  Uiso   1.00
C6     C     0.23281   0.72642   0.69317   0.01267  Uiso   1.00
C7     C     0.19359   0.69117   0.61332   0.01267  Uiso   1.00
C8     C     0.33695   0.92536   0.22415   0.01267  Uiso   1.00
C9     C     0.46024   0.89677   0.18791   0.01267  Uiso   1.00
C10    C     0.42541   0.85890   0.10774   0.01267  Uiso   1.00
C11    C     0.35432   0.73123   0.93740   0.01267  Uiso   1.00
C12    C     0.31480   0.70156   0.85770   0.01267  Uiso   1.00
C13    C     0.46182   0.63902   0.69252   0.01267  Uiso   1.00
C14    C     0.42126   0.60068   0.61275   0.01267  Uiso   1.00
C15    C     0.60793   0.91451   0.22852   0.01267  Uiso   1.00
C16    C     0.52861   0.83476   0.06702   0.01267  Uiso   1.00
C17    C     0.48698   0.79905   0.98105   0.01267  Uiso   1.00
C18    C     0.40805   0.73476   0.81875   0.01267  Uiso   1.00
C19    C     0.36729   0.70041   0.73380   0.01267  Uiso   1.00
C20    C     0.28684   0.62630   0.57239   0.01267  Uiso   1.00
C21    C     0.24088   0.57591   0.48799   0.01267  Uiso   1.00
C22    C     0.22699   0.43385   0.45323   0.01267  Uiso   1.00
C23    C     0.18280   0.38261   0.37369   0.01267  Uiso   1.00
C24    C     0.15453   0.47502   0.32865   0.01267  Uiso   1.00
C25    C     0.16923   0.61789   0.36189   0.01267  Uiso   1.00
C26    C     0.21114   0.66763   0.44205   0.01267  Uiso   1.00
C27    C     0.16514   0.23272   0.33746   0.01267  Uiso   1.00
C28    C     0.14206   0.71356   0.31249   0.01267  Uiso   1.00
O1     O     0.96611   0.91225   0.18782   0.01267  Uiso   1.00
O2     O     0.93726   0.95893   0.29505   0.01267  Uiso   1.00
O3     O     0.21329   0.94082   0.18782   0.01267  Uiso   1.00
O4     O     0.34022   0.93780   0.29265   0.01267  Uiso   1.00
O5     O     0.12584   0.17928   0.26711   0.01267  Uiso   1.00
O6     O     0.18632   0.14354   0.37340   0.01267  Uiso   1.00
O7     O     0.16733   0.85551   0.34508   0.01267  Uiso   1.00
O8     O     0.09916   0.66801   0.24358   0.01267  Uiso   1.00
In2    In    0.86656   0.01180   0.72123   0.01267  Uiso   1.00
H15    H     0.68460   0.14742   0.92334   0.01267  Uiso   1.00
H16    H     0.71925   0.30131   0.03569   0.01267  Uiso   1.00
H17    H     0.78784   0.35060   0.17370   0.01267  Uiso   1.00
H18    H     0.43426   0.38320   0.27806   0.01267  Uiso   1.00
H19    H     0.50570   0.45036   0.41770   0.01267  Uiso   1.00
H20    H     0.24809   0.17299   0.92207   0.01267  Uiso   1.00
H21    H     0.31996   0.11028   0.02863   0.01267  Uiso   1.00
H22    H     0.38459   0.17304   0.16665   0.01267  Uiso   1.00
H23    H     0.84186   0.22574   0.27667   0.01267  Uiso   1.00
H24    H     0.91102   0.28916   0.41658   0.01267  Uiso   1.00
H25    H     0.36177   0.05078   0.71000   0.01267  Uiso   1.00
H26    H     0.75073   0.63687   0.51154   0.01267  Uiso   1.00
H27    H     0.87846   0.56477   0.73270   0.01267  Uiso   1.00
H28    H     0.77754   0.22279   0.53114   0.01267  Uiso   1.00
C29    C     0.66305   0.07464   0.77585   0.01267  Uiso   1.00
C30    C     0.53976   0.10323   0.81209   0.01267  Uiso   1.00
C31    C     0.57459   0.14110   0.89226   0.01267  Uiso   1.00
C32    C     0.64568   0.26877   0.06260   0.01267  Uiso   1.00
C33    C     0.68520   0.29844   0.14230   0.01267  Uiso   1.00
C34    C     0.53818   0.36098   0.30748   0.01267  Uiso   1.00
C35    C     0.57874   0.39932   0.38725   0.01267  Uiso   1.00
C36    C     0.12447   0.08029   0.77483   0.01267  Uiso   1.00
C37    C     0.28398   0.10815   0.81142   0.01267  Uiso   1.00
C38    C     0.32801   0.15116   0.89153   0.01267  Uiso   1.00
C39    C     0.42091   0.16644   0.05869   0.01267  Uiso   1.00
C40    C     0.45870   0.20057   0.13842   0.01267  Uiso   1.00
C41    C     0.76719   0.27358   0.30683   0.01267  Uiso   1.00
C42    C     0.80641   0.30883   0.38668   0.01267  Uiso   1.00
C43    C     0.39207   0.08549   0.77148   0.01267  Uiso   1.00
C44    C     0.47139   0.16524   0.93298   0.01267  Uiso   1.00
C45    C     0.51302   0.20095   0.01895   0.01267  Uiso   1.00
C46    C     0.59195   0.26524   0.18125   0.01267  Uiso   1.00
C47    C     0.63271   0.29959   0.26620   0.01267  Uiso   1.00
C48    C     0.71316   0.37370   0.42761   0.01267  Uiso   1.00
C49    C     0.75912   0.42409   0.51201   0.01267  Uiso   1.00
C50    C     0.77301   0.56615   0.54677   0.01267  Uiso   1.00
C51    C     0.81720   0.61739   0.62631   0.01267  Uiso   1.00
C52    C     0.84547   0.52498   0.67135   0.01267  Uiso   1.00
C53    C     0.83077   0.38211   0.63811   0.01267  Uiso   1.00
C54    C     0.78886   0.33237   0.55795   0.01267  Uiso   1.00
C55    C     0.83486   0.76728   0.66254   0.01267  Uiso   1.00
C56    C     0.85794   0.28644   0.68751   0.01267  Uiso   1.00
O9     O     0.78671   0.05918   0.81218   0.01267  Uiso   1.00
O10    O     0.65978   0.06220   0.70735   0.01267  Uiso   1.00
O11    O     0.03389   0.08775   0.81218   0.01267  Uiso   1.00
O12    O     0.06274   0.04107   0.70495   0.01267  Uiso   1.00
O13    O     0.87416   0.82072   0.73289   0.01267  Uiso   1.00
O14    O     0.81368   0.85646   0.62660   0.01267  Uiso   1.00
O15    O     0.83267   0.14449   0.65492   0.01267  Uiso   1.00
O16    O     0.90084   0.33199   0.75642   0.01267  Uiso   1.00
