data_image0
_cell_length_a       16.2954
_cell_length_b       8.7619
_cell_length_c       20.755
_cell_angle_alpha    90
_cell_angle_beta     95.316
_cell_angle_gamma    90

_symmetry_space_group_name_H-M    "P 1"
_symmetry_int_tables_number       1

loop_
  _symmetry_equiv_pos_as_xyz
  'x, y, z'

loop_
  _atom_site_label
  _atom_site_occupancy
  _atom_site_fract_x
  _atom_site_fract_y
  _atom_site_fract_z
  _atom_site_thermal_displace_type
  _atom_site_B_iso_or_equiv
  _atom_site_type_symbol
  Sm1      1.0000 0.24185  0.21970  0.71171  Biso   1.000  Sm
  O1       1.0000 0.12250  0.35630  0.66120  Biso   1.000  O
  O2       1.0000 0.37140  0.31820  0.74790  Biso   1.000  O
  O3       1.0000 0.17970  0.53420  0.84210  Biso   1.000  O
  O4       1.0000 0.17840  0.29780  0.80390  Biso   1.000  O
  O5       1.0000 0.36510  0.54050  0.79840  Biso   1.000  O
  O6       1.0000 0.21050  0.52720  0.70418  Biso   1.000  O
  N1       1.0000 0.98450  0.93490  0.49890  Biso   1.000  N
  N2       1.0000 0.75720  0.46050  0.83940  Biso   1.000  N
  N3       1.0000 0.78710  0.36140  0.81160  Biso   1.000  N
  C1       1.0000 0.14930  0.49010  0.66530  Biso   1.000  C
  C2       1.0000 0.10820  0.60740  0.61980  Biso   1.000  C
  C3       1.0000 0.14760  0.74630  0.60990  Biso   1.000  C
  H1       1.0000 0.19990  0.76480  0.63020  Biso   1.000  H
  C4       1.0000 0.10910  0.85560  0.57010  Biso   1.000  C
  H2       1.0000 0.13500  0.94840  0.56400  Biso   1.000  H
  C5       1.0000 0.03100  0.82610  0.53880  Biso   1.000  C
  C6       1.0000 0.99450  0.68570  0.54580  Biso   1.000  C
  H3       1.0000 0.94400  0.66450  0.52290  Biso   1.000  H
  C7       1.0000 0.03210  0.57630  0.58640  Biso   1.000  C
  H4       1.0000 0.00670  0.48250  0.59130  Biso   1.000  H
  C8       1.0000 0.40410  0.42830  0.77980  Biso   1.000  C
  C9       1.0000 0.49590  0.42380  0.79650  Biso   1.000  C
  C10      1.0000 0.53390  0.53780  0.83530  Biso   1.000  C
  H5       1.0000 0.50210  0.61410  0.85180  Biso   1.000  H
  C11      1.0000 0.61790  0.53810  0.84950  Biso   1.000  C
  H6       1.0000 0.64300  0.61150  0.87710  Biso   1.000  H
  C12      1.0000 0.66410  0.42990  0.82270  Biso   1.000  C
  C13      1.0000 0.62820  0.31200  0.78550  Biso   1.000  C
  H7       1.0000 0.66050  0.23560  0.76960  Biso   1.000  H
  C14      1.0000 0.54220  0.31040  0.77230  Biso   1.000  C
  H8       1.0000 0.51670  0.23270  0.74730  Biso   1.000  H
  C15      1.0000 0.14380  0.41410  0.82440  Biso   1.000  C
  C16      1.0000 0.05160  0.40450  0.82750  Biso   1.000  C
  C17      1.0000 0.01010  0.51640  0.85890  Biso   1.000  C
  H9       1.0000 0.03910  0.59510  0.88080  Biso   1.000  H
  C18      1.0000 0.92360  0.50960  0.85730  Biso   1.000  C
  H10      1.0000 0.89520  0.58290  0.87880  Biso   1.000  H
  C19      1.0000 0.88120  0.39410  0.82380  Biso   1.000  C
  C20      1.0000 0.92300  0.28380  0.79420  Biso   1.000  C
  H11      1.0000 0.89410  0.20450  0.77270  Biso   1.000  H
  C21      1.0000 0.00800  0.28840  0.79580  Biso   1.000  C
  H12      1.0000 0.03580  0.21240  0.77530  Biso   1.000  H
  Sm2      1.0000 0.25815  0.71970  0.78829  Biso   1.000  Sm
  O7       1.0000 0.37750  0.85630  0.83880  Biso   1.000  O
  O8       1.0000 0.12860  0.81820  0.75210  Biso   1.000  O
  O9       1.0000 0.32030  0.03420  0.65790  Biso   1.000  O
  O10      1.0000 0.32160  0.79780  0.69610  Biso   1.000  O
  O11      1.0000 0.13490  0.04050  0.70160  Biso   1.000  O
  O12      1.0000 0.28950  0.02720  0.79582  Biso   1.000  O
  N4       1.0000 0.51550  0.43490  0.00110  Biso   1.000  N
  N5       1.0000 0.74280  0.96050  0.66060  Biso   1.000  N
  N6       1.0000 0.71290  0.86140  0.68840  Biso   1.000  N
  C22      1.0000 0.35070  0.99010  0.83470  Biso   1.000  C
  C23      1.0000 0.39180  0.10740  0.88020  Biso   1.000  C
  C24      1.0000 0.35240  0.24630  0.89010  Biso   1.000  C
  H13      1.0000 0.30010  0.26480  0.86980  Biso   1.000  H
  C25      1.0000 0.39090  0.35560  0.92990  Biso   1.000  C
  H14      1.0000 0.36500  0.44840  0.93600  Biso   1.000  H
  C26      1.0000 0.46900  0.32610  0.96120  Biso   1.000  C
  C27      1.0000 0.50550  0.18570  0.95420  Biso   1.000  C
  H15      1.0000 0.55600  0.16450  0.97710  Biso   1.000  H
  C28      1.0000 0.46790  0.07630  0.91360  Biso   1.000  C
  H16      1.0000 0.49330  0.98250  0.90870  Biso   1.000  H
  C29      1.0000 0.09590  0.92830  0.72020  Biso   1.000  C
  C30      1.0000 0.00410  0.92380  0.70350  Biso   1.000  C
  C31      1.0000 0.96610  0.03780  0.66470  Biso   1.000  C
  H17      1.0000 0.99790  0.11410  0.64820  Biso   1.000  H
  C32      1.0000 0.88210  0.03810  0.65050  Biso   1.000  C
  H18      1.0000 0.85700  0.11150  0.62290  Biso   1.000  H
  C33      1.0000 0.83590  0.92990  0.67730  Biso   1.000  C
  C34      1.0000 0.87180  0.81200  0.71450  Biso   1.000  C
  H19      1.0000 0.83950  0.73560  0.73040  Biso   1.000  H
  C35      1.0000 0.95780  0.81040  0.72770  Biso   1.000  C
  H20      1.0000 0.98330  0.73270  0.75270  Biso   1.000  H
  C36      1.0000 0.35620  0.91410  0.67560  Biso   1.000  C
  C37      1.0000 0.44840  0.90450  0.67250  Biso   1.000  C
  C38      1.0000 0.48990  0.01640  0.64110  Biso   1.000  C
  H21      1.0000 0.46090  0.09510  0.61920  Biso   1.000  H
  C39      1.0000 0.57640  0.00960  0.64270  Biso   1.000  C
  H22      1.0000 0.60480  0.08290  0.62120  Biso   1.000  H
  C40      1.0000 0.61880  0.89410  0.67620  Biso   1.000  C
  C41      1.0000 0.57700  0.78380  0.70580  Biso   1.000  C
  H23      1.0000 0.60590  0.70450  0.72730  Biso   1.000  H
  C42      1.0000 0.49200  0.78840  0.70420  Biso   1.000  C
  H24      1.0000 0.46420  0.71240  0.72470  Biso   1.000  H
  Sm3      1.0000 0.75815  0.78030  0.28829  Biso   1.000  Sm
  O13      1.0000 0.87750  0.64370  0.33880  Biso   1.000  O
  O14      1.0000 0.62860  0.68180  0.25210  Biso   1.000  O
  O15      1.0000 0.82030  0.46580  0.15790  Biso   1.000  O
  O16      1.0000 0.82160  0.70220  0.19610  Biso   1.000  O
  O17      1.0000 0.63490  0.45950  0.20160  Biso   1.000  O
  O18      1.0000 0.78950  0.47280  0.29582  Biso   1.000  O
  N7       1.0000 0.01550  0.06510  0.50110  Biso   1.000  N
  N8       1.0000 0.24280  0.53950  0.16060  Biso   1.000  N
  N9       1.0000 0.21290  0.63860  0.18840  Biso   1.000  N
  C43      1.0000 0.85070  0.50990  0.33470  Biso   1.000  C
  C44      1.0000 0.89180  0.39260  0.38020  Biso   1.000  C
  C45      1.0000 0.85240  0.25370  0.39010  Biso   1.000  C
  H25      1.0000 0.80010  0.23520  0.36980  Biso   1.000  H
  C46      1.0000 0.89090  0.14440  0.42990  Biso   1.000  C
  H26      1.0000 0.86500  0.05160  0.43600  Biso   1.000  H
  C47      1.0000 0.96900  0.17390  0.46120  Biso   1.000  C
  C48      1.0000 0.00550  0.31430  0.45420  Biso   1.000  C
  H27      1.0000 0.05600  0.33550  0.47710  Biso   1.000  H
  C49      1.0000 0.96790  0.42370  0.41360  Biso   1.000  C
  H28      1.0000 0.99330  0.51750  0.40870  Biso   1.000  H
  C50      1.0000 0.59590  0.57170  0.22020  Biso   1.000  C
  C51      1.0000 0.50410  0.57620  0.20350  Biso   1.000  C
  C52      1.0000 0.46610  0.46220  0.16470  Biso   1.000  C
  H29      1.0000 0.49790  0.38590  0.14820  Biso   1.000  H
  C53      1.0000 0.38210  0.46190  0.15050  Biso   1.000  C
  H30      1.0000 0.35700  0.38850  0.12290  Biso   1.000  H
  C54      1.0000 0.33590  0.57010  0.17730  Biso   1.000  C
  C55      1.0000 0.37180  0.68800  0.21450  Biso   1.000  C
  H31      1.0000 0.33950  0.76440  0.23040  Biso   1.000  H
  C56      1.0000 0.45780  0.68960  0.22770  Biso   1.000  C
  H32      1.0000 0.48330  0.76730  0.25270  Biso   1.000  H
  C57      1.0000 0.85620  0.58590  0.17560  Biso   1.000  C
  C58      1.0000 0.94840  0.59550  0.17250  Biso   1.000  C
  C59      1.0000 0.98990  0.48360  0.14110  Biso   1.000  C
  H33      1.0000 0.96090  0.40490  0.11920  Biso   1.000  H
  C60      1.0000 0.07640  0.49040  0.14270  Biso   1.000  C
  H34      1.0000 0.10480  0.41710  0.12120  Biso   1.000  H
  C61      1.0000 0.11880  0.60590  0.17620  Biso   1.000  C
  C62      1.0000 0.07700  0.71620  0.20580  Biso   1.000  C
  H35      1.0000 0.10590  0.79550  0.22730  Biso   1.000  H
  C63      1.0000 0.99200  0.71160  0.20420  Biso   1.000  C
  H36      1.0000 0.96420  0.78760  0.22470  Biso   1.000  H
  Sm4      1.0000 0.74185  0.28030  0.21171  Biso   1.000  Sm
  O19      1.0000 0.62250  0.14370  0.16120  Biso   1.000  O
  O20      1.0000 0.87140  0.18180  0.24790  Biso   1.000  O
  O21      1.0000 0.67970  0.96580  0.34210  Biso   1.000  O
  O22      1.0000 0.67840  0.20220  0.30390  Biso   1.000  O
  O23      1.0000 0.86510  0.95950  0.29840  Biso   1.000  O
  O24      1.0000 0.71050  0.97280  0.20418  Biso   1.000  O
  N10      1.0000 0.48450  0.56510  0.99890  Biso   1.000  N
  N11      1.0000 0.25720  0.03950  0.33940  Biso   1.000  N
  N12      1.0000 0.28710  0.13860  0.31160  Biso   1.000  N
  C64      1.0000 0.64930  0.00990  0.16530  Biso   1.000  C
  C65      1.0000 0.60820  0.89260  0.11980  Biso   1.000  C
  C66      1.0000 0.64760  0.75370  0.10990  Biso   1.000  C
  H37      1.0000 0.69990  0.73520  0.13020  Biso   1.000  H
  C67      1.0000 0.60910  0.64440  0.07010  Biso   1.000  C
  H38      1.0000 0.63500  0.55160  0.06400  Biso   1.000  H
  C68      1.0000 0.53100  0.67390  0.03880  Biso   1.000  C
  C69      1.0000 0.49450  0.81430  0.04580  Biso   1.000  C
  H39      1.0000 0.44400  0.83550  0.02290  Biso   1.000  H
  C70      1.0000 0.53210  0.92370  0.08640  Biso   1.000  C
  H40      1.0000 0.50670  0.01750  0.09130  Biso   1.000  H
  C71      1.0000 0.90410  0.07170  0.27980  Biso   1.000  C
  C72      1.0000 0.99590  0.07620  0.29650  Biso   1.000  C
  C73      1.0000 0.03390  0.96220  0.33530  Biso   1.000  C
  H41      1.0000 0.00210  0.88590  0.35180  Biso   1.000  H
  C74      1.0000 0.11790  0.96190  0.34950  Biso   1.000  C
  H42      1.0000 0.14300  0.88850  0.37710  Biso   1.000  H
  C75      1.0000 0.16410  0.07010  0.32270  Biso   1.000  C
  C76      1.0000 0.12820  0.18800  0.28550  Biso   1.000  C
  H43      1.0000 0.16050  0.26440  0.26960  Biso   1.000  H
  C77      1.0000 0.04220  0.18960  0.27230  Biso   1.000  C
  H44      1.0000 0.01670  0.26730  0.24730  Biso   1.000  H
  C78      1.0000 0.64380  0.08590  0.32440  Biso   1.000  C
  C79      1.0000 0.55160  0.09550  0.32750  Biso   1.000  C
  C80      1.0000 0.51010  0.98360  0.35890  Biso   1.000  C
  H45      1.0000 0.53910  0.90490  0.38080  Biso   1.000  H
  C81      1.0000 0.42360  0.99040  0.35730  Biso   1.000  C
  H46      1.0000 0.39520  0.91710  0.37880  Biso   1.000  H
  C82      1.0000 0.38120  0.10590  0.32380  Biso   1.000  C
  C83      1.0000 0.42300  0.21620  0.29420  Biso   1.000  C
  H47      1.0000 0.39410  0.29550  0.27270  Biso   1.000  H
  C84      1.0000 0.50800  0.21160  0.29580  Biso   1.000  C
  H48      1.0000 0.53580  0.28760  0.27530  Biso   1.000  H
