data_image0
_cell_length_a       16.1925
_cell_length_b       8.6926
_cell_length_c       20.8815
_cell_angle_alpha    90
_cell_angle_beta     94.797
_cell_angle_gamma    90

_symmetry_space_group_name_H-M    "P 1"
_symmetry_int_tables_number       1

loop_
  _symmetry_equiv_pos_as_xyz
  'x, y, z'

loop_
  _atom_site_label
  _atom_site_occupancy
  _atom_site_fract_x
  _atom_site_fract_y
  _atom_site_fract_z
  _atom_site_thermal_displace_type
  _atom_site_B_iso_or_equiv
  _atom_site_type_symbol
  Ho1      1.0000 0.24299  0.22276  0.71292  Biso   1.000  Ho
  O1       1.0000 0.12870  0.35980  0.66300  Biso   1.000  O
  O2       1.0000 0.36720  0.32460  0.74910  Biso   1.000  O
  O3       1.0000 0.17830  0.54150  0.83790  Biso   1.000  O
  O4       1.0000 0.17880  0.30210  0.80030  Biso   1.000  O
  O5       1.0000 0.36190  0.54820  0.79970  Biso   1.000  O
  O6       1.0000 0.21380  0.53690  0.70520  Biso   1.000  O
  N1       1.0000 0.98570  0.93310  0.49910  Biso   1.000  N
  N2       1.0000 0.75500  0.45880  0.84100  Biso   1.000  N
  N3       1.0000 0.78390  0.36050  0.81130  Biso   1.000  N
  C1       1.0000 0.15340  0.49540  0.66630  Biso   1.000  C
  C2       1.0000 0.11200  0.61100  0.62050  Biso   1.000  C
  C3       1.0000 0.14930  0.75180  0.61000  Biso   1.000  C
  H1       1.0000 0.20140  0.77300  0.63020  Biso   1.000  H
  C4       1.0000 0.11020  0.86020  0.57010  Biso   1.000  C
  H2       1.0000 0.13520  0.95480  0.56400  Biso   1.000  H
  C5       1.0000 0.03290  0.82650  0.53910  Biso   1.000  C
  C6       1.0000 0.99700  0.68430  0.54660  Biso   1.000  C
  H3       1.0000 0.94670  0.66050  0.52410  Biso   1.000  H
  C7       1.0000 0.03590  0.57720  0.58780  Biso   1.000  C
  H4       1.0000 0.01110  0.48230  0.59360  Biso   1.000  H
  C8       1.0000 0.40000  0.43410  0.78110  Biso   1.000  C
  C9       1.0000 0.49130  0.42820  0.79840  Biso   1.000  C
  C10      1.0000 0.53060  0.54110  0.83750  Biso   1.000  C
  H5       1.0000 0.49930  0.61850  0.85440  Biso   1.000  H
  C11      1.0000 0.61470  0.53930  0.85110  Biso   1.000  C
  H6       1.0000 0.63980  0.61290  0.87860  Biso   1.000  H
  C12      1.0000 0.66120  0.43190  0.82520  Biso   1.000  C
  C13      1.0000 0.62440  0.31420  0.78740  Biso   1.000  C
  H7       1.0000 0.65690  0.23700  0.77160  Biso   1.000  H
  C14      1.0000 0.53830  0.31270  0.77340  Biso   1.000  C
  H8       1.0000 0.51300  0.23570  0.74770  Biso   1.000  H
  C15      1.0000 0.14290  0.41840  0.82110  Biso   1.000  C
  C16      1.0000 0.05140  0.40780  0.82540  Biso   1.000  C
  C17      1.0000 0.00840  0.51630  0.85850  Biso   1.000  C
  H9       1.0000 0.03680  0.59450  0.88130  Biso   1.000  H
  C18      1.0000 0.92130  0.50670  0.85700  Biso   1.000  C
  H10      1.0000 0.89250  0.57840  0.87950  Biso   1.000  H
  C19      1.0000 0.87900  0.39370  0.82310  Biso   1.000  C
  C20      1.0000 0.92210  0.28490  0.79170  Biso   1.000  C
  H11      1.0000 0.89340  0.20560  0.76970  Biso   1.000  H
  C21      1.0000 0.00720  0.29110  0.79220  Biso   1.000  C
  H12      1.0000 0.03530  0.21710  0.77030  Biso   1.000  H
  Ho2      1.0000 0.25701  0.72276  0.78708  Biso   1.000  Ho
  O7       1.0000 0.37130  0.85980  0.83700  Biso   1.000  O
  O8       1.0000 0.13280  0.82460  0.75090  Biso   1.000  O
  O9       1.0000 0.32170  0.04150  0.66210  Biso   1.000  O
  O10      1.0000 0.32120  0.80210  0.69970  Biso   1.000  O
  O11      1.0000 0.13810  0.04820  0.70030  Biso   1.000  O
  O12      1.0000 0.28620  0.03690  0.79480  Biso   1.000  O
  N4       1.0000 0.51430  0.43310  0.00090  Biso   1.000  N
  N5       1.0000 0.74500  0.95880  0.65900  Biso   1.000  N
  N6       1.0000 0.71610  0.86050  0.68870  Biso   1.000  N
  C22      1.0000 0.34660  0.99540  0.83370  Biso   1.000  C
  C23      1.0000 0.38800  0.11100  0.87950  Biso   1.000  C
  C24      1.0000 0.35070  0.25180  0.89000  Biso   1.000  C
  H13      1.0000 0.29860  0.27300  0.86980  Biso   1.000  H
  C25      1.0000 0.38980  0.36020  0.92990  Biso   1.000  C
  H14      1.0000 0.36480  0.45480  0.93600  Biso   1.000  H
  C26      1.0000 0.46710  0.32650  0.96090  Biso   1.000  C
  C27      1.0000 0.50300  0.18430  0.95340  Biso   1.000  C
  H15      1.0000 0.55330  0.16050  0.97590  Biso   1.000  H
  C28      1.0000 0.46410  0.07720  0.91220  Biso   1.000  C
  H16      1.0000 0.48890  0.98230  0.90640  Biso   1.000  H
  C29      1.0000 0.10000  0.93410  0.71890  Biso   1.000  C
  C30      1.0000 0.00870  0.92820  0.70160  Biso   1.000  C
  C31      1.0000 0.96940  0.04110  0.66250  Biso   1.000  C
  H17      1.0000 0.00070  0.11850  0.64560  Biso   1.000  H
  C32      1.0000 0.88530  0.03930  0.64890  Biso   1.000  C
  H18      1.0000 0.86020  0.11290  0.62140  Biso   1.000  H
  C33      1.0000 0.83880  0.93190  0.67480  Biso   1.000  C
  C34      1.0000 0.87560  0.81420  0.71260  Biso   1.000  C
  H19      1.0000 0.84310  0.73700  0.72840  Biso   1.000  H
  C35      1.0000 0.96170  0.81270  0.72660  Biso   1.000  C
  H20      1.0000 0.98700  0.73570  0.75230  Biso   1.000  H
  C36      1.0000 0.35710  0.91840  0.67890  Biso   1.000  C
  C37      1.0000 0.44860  0.90780  0.67460  Biso   1.000  C
  C38      1.0000 0.49160  0.01630  0.64150  Biso   1.000  C
  H21      1.0000 0.46320  0.09450  0.61870  Biso   1.000  H
  C39      1.0000 0.57870  0.00670  0.64300  Biso   1.000  C
  H22      1.0000 0.60750  0.07840  0.62050  Biso   1.000  H
  C40      1.0000 0.62100  0.89370  0.67690  Biso   1.000  C
  C41      1.0000 0.57790  0.78490  0.70830  Biso   1.000  C
  H23      1.0000 0.60660  0.70560  0.73030  Biso   1.000  H
  C42      1.0000 0.49280  0.79110  0.70780  Biso   1.000  C
  H24      1.0000 0.46470  0.71710  0.72970  Biso   1.000  H
  Ho3      1.0000 0.75701  0.77724  0.28708  Biso   1.000  Ho
  O13      1.0000 0.87130  0.64020  0.33700  Biso   1.000  O
  O14      1.0000 0.63280  0.67540  0.25090  Biso   1.000  O
  O15      1.0000 0.82170  0.45850  0.16210  Biso   1.000  O
  O16      1.0000 0.82120  0.69790  0.19970  Biso   1.000  O
  O17      1.0000 0.63810  0.45180  0.20030  Biso   1.000  O
  O18      1.0000 0.78620  0.46310  0.29480  Biso   1.000  O
  N7       1.0000 0.01430  0.06690  0.50090  Biso   1.000  N
  N8       1.0000 0.24500  0.54120  0.15900  Biso   1.000  N
  N9       1.0000 0.21610  0.63950  0.18870  Biso   1.000  N
  C43      1.0000 0.84660  0.50460  0.33370  Biso   1.000  C
  C44      1.0000 0.88800  0.38900  0.37950  Biso   1.000  C
  C45      1.0000 0.85070  0.24820  0.39000  Biso   1.000  C
  H25      1.0000 0.79860  0.22700  0.36980  Biso   1.000  H
  C46      1.0000 0.88980  0.13980  0.42990  Biso   1.000  C
  H26      1.0000 0.86480  0.04520  0.43600  Biso   1.000  H
  C47      1.0000 0.96710  0.17350  0.46090  Biso   1.000  C
  C48      1.0000 0.00300  0.31570  0.45340  Biso   1.000  C
  H27      1.0000 0.05330  0.33950  0.47590  Biso   1.000  H
  C49      1.0000 0.96410  0.42280  0.41220  Biso   1.000  C
  H28      1.0000 0.98890  0.51770  0.40640  Biso   1.000  H
  C50      1.0000 0.60000  0.56590  0.21890  Biso   1.000  C
  C51      1.0000 0.50870  0.57180  0.20160  Biso   1.000  C
  C52      1.0000 0.46940  0.45890  0.16250  Biso   1.000  C
  H29      1.0000 0.50070  0.38150  0.14560  Biso   1.000  H
  C53      1.0000 0.38530  0.46070  0.14890  Biso   1.000  C
  H30      1.0000 0.36020  0.38710  0.12140  Biso   1.000  H
  C54      1.0000 0.33880  0.56810  0.17480  Biso   1.000  C
  C55      1.0000 0.37560  0.68580  0.21260  Biso   1.000  C
  H31      1.0000 0.34310  0.76300  0.22840  Biso   1.000  H
  C56      1.0000 0.46170  0.68730  0.22660  Biso   1.000  C
  H32      1.0000 0.48700  0.76430  0.25230  Biso   1.000  H
  C57      1.0000 0.85710  0.58160  0.17890  Biso   1.000  C
  C58      1.0000 0.94860  0.59220  0.17460  Biso   1.000  C
  C59      1.0000 0.99160  0.48370  0.14150  Biso   1.000  C
  H33      1.0000 0.96320  0.40550  0.11870  Biso   1.000  H
  C60      1.0000 0.07870  0.49330  0.14300  Biso   1.000  C
  H34      1.0000 0.10750  0.42160  0.12050  Biso   1.000  H
  C61      1.0000 0.12100  0.60630  0.17690  Biso   1.000  C
  C62      1.0000 0.07790  0.71510  0.20830  Biso   1.000  C
  H35      1.0000 0.10660  0.79440  0.23030  Biso   1.000  H
  C63      1.0000 0.99280  0.70890  0.20780  Biso   1.000  C
  H36      1.0000 0.96470  0.78290  0.22970  Biso   1.000  H
  Ho4      1.0000 0.74299  0.27724  0.21292  Biso   1.000  Ho
  O19      1.0000 0.62870  0.14020  0.16300  Biso   1.000  O
  O20      1.0000 0.86720  0.17540  0.24910  Biso   1.000  O
  O21      1.0000 0.67830  0.95850  0.33790  Biso   1.000  O
  O22      1.0000 0.67880  0.19790  0.30030  Biso   1.000  O
  O23      1.0000 0.86190  0.95180  0.29970  Biso   1.000  O
  O24      1.0000 0.71380  0.96310  0.20520  Biso   1.000  O
  N10      1.0000 0.48570  0.56690  0.99910  Biso   1.000  N
  N11      1.0000 0.25500  0.04120  0.34100  Biso   1.000  N
  N12      1.0000 0.28390  0.13950  0.31130  Biso   1.000  N
  C64      1.0000 0.65340  0.00460  0.16630  Biso   1.000  C
  C65      1.0000 0.61200  0.88900  0.12050  Biso   1.000  C
  C66      1.0000 0.64930  0.74820  0.11000  Biso   1.000  C
  H37      1.0000 0.70140  0.72700  0.13020  Biso   1.000  H
  C67      1.0000 0.61020  0.63980  0.07010  Biso   1.000  C
  H38      1.0000 0.63520  0.54520  0.06400  Biso   1.000  H
  C68      1.0000 0.53290  0.67350  0.03910  Biso   1.000  C
  C69      1.0000 0.49700  0.81570  0.04660  Biso   1.000  C
  H39      1.0000 0.44670  0.83950  0.02410  Biso   1.000  H
  C70      1.0000 0.53590  0.92280  0.08780  Biso   1.000  C
  H40      1.0000 0.51110  0.01770  0.09360  Biso   1.000  H
  C71      1.0000 0.90000  0.06590  0.28110  Biso   1.000  C
  C72      1.0000 0.99130  0.07180  0.29840  Biso   1.000  C
  C73      1.0000 0.03060  0.95890  0.33750  Biso   1.000  C
  H41      1.0000 0.99930  0.88150  0.35440  Biso   1.000  H
  C74      1.0000 0.11470  0.96070  0.35110  Biso   1.000  C
  H42      1.0000 0.13980  0.88710  0.37860  Biso   1.000  H
  C75      1.0000 0.16120  0.06810  0.32520  Biso   1.000  C
  C76      1.0000 0.12440  0.18580  0.28740  Biso   1.000  C
  H43      1.0000 0.15690  0.26300  0.27160  Biso   1.000  H
  C77      1.0000 0.03830  0.18730  0.27340  Biso   1.000  C
  H44      1.0000 0.01300  0.26430  0.24770  Biso   1.000  H
  C78      1.0000 0.64290  0.08160  0.32110  Biso   1.000  C
  C79      1.0000 0.55140  0.09220  0.32540  Biso   1.000  C
  C80      1.0000 0.50840  0.98370  0.35850  Biso   1.000  C
  H45      1.0000 0.53680  0.90550  0.38130  Biso   1.000  H
  C81      1.0000 0.42130  0.99330  0.35700  Biso   1.000  C
  H46      1.0000 0.39250  0.92160  0.37950  Biso   1.000  H
  C82      1.0000 0.37900  0.10630  0.32310  Biso   1.000  C
  C83      1.0000 0.42210  0.21510  0.29170  Biso   1.000  C
  H47      1.0000 0.39340  0.29440  0.26970  Biso   1.000  H
  C84      1.0000 0.50720  0.20890  0.29220  Biso   1.000  C
  H48      1.0000 0.53530  0.28290  0.27030  Biso   1.000  H
