data_image0
_cell_length_a       16.2078
_cell_length_b       8.7082
_cell_length_c       20.8775
_cell_angle_alpha    90
_cell_angle_beta     94.748
_cell_angle_gamma    90

_symmetry_space_group_name_H-M    "P 1"
_symmetry_int_tables_number       1

loop_
  _symmetry_equiv_pos_as_xyz
  'x, y, z'

loop_
  _atom_site_label
  _atom_site_occupancy
  _atom_site_fract_x
  _atom_site_fract_y
  _atom_site_fract_z
  _atom_site_thermal_displace_type
  _atom_site_B_iso_or_equiv
  _atom_site_type_symbol
  Dy1      1.0000 0.24272  0.22225  0.71269  Biso   1.000  Dy
  O1       1.0000 0.12760  0.35810  0.66270  Biso   1.000  O
  O2       1.0000 0.36740  0.32260  0.74880  Biso   1.000  O
  O3       1.0000 0.17930  0.53960  0.83890  Biso   1.000  O
  O4       1.0000 0.17850  0.30150  0.80100  Biso   1.000  O
  O5       1.0000 0.36210  0.54730  0.79940  Biso   1.000  O
  O6       1.0000 0.21290  0.53550  0.70540  Biso   1.000  O
  N1       1.0000 0.98520  0.93420  0.49950  Biso   1.000  N
  N2       1.0000 0.75570  0.45800  0.84110  Biso   1.000  N
  N3       1.0000 0.78380  0.36090  0.81090  Biso   1.000  N
  C1       1.0000 0.15280  0.49480  0.66540  Biso   1.000  C
  C2       1.0000 0.11100  0.61040  0.62050  Biso   1.000  C
  C3       1.0000 0.14880  0.75090  0.60980  Biso   1.000  C
  H1       1.0000 0.20080  0.77180  0.63010  Biso   1.000  H
  C4       1.0000 0.11030  0.85900  0.56980  Biso   1.000  C
  H2       1.0000 0.13580  0.95280  0.56340  Biso   1.000  H
  C5       1.0000 0.03220  0.82640  0.53870  Biso   1.000  C
  C6       1.0000 0.99550  0.68240  0.54730  Biso   1.000  C
  H3       1.0000 0.94430  0.65980  0.52580  Biso   1.000  H
  C7       1.0000 0.03490  0.57470  0.58720  Biso   1.000  C
  H4       1.0000 0.01100  0.47870  0.59210  Biso   1.000  H
  C8       1.0000 0.39990  0.43390  0.78070  Biso   1.000  C
  C9       1.0000 0.49220  0.42600  0.79740  Biso   1.000  C
  C10      1.0000 0.53090  0.53880  0.83710  Biso   1.000  C
  H5       1.0000 0.49920  0.61460  0.85460  Biso   1.000  H
  C11      1.0000 0.61650  0.53850  0.85060  Biso   1.000  C
  H6       1.0000 0.64200  0.61210  0.87780  Biso   1.000  H
  C12      1.0000 0.66180  0.42990  0.82380  Biso   1.000  C
  C13      1.0000 0.62580  0.31250  0.78600  Biso   1.000  C
  H7       1.0000 0.65800  0.23560  0.76980  Biso   1.000  H
  C14      1.0000 0.53860  0.31330  0.77290  Biso   1.000  C
  H8       1.0000 0.51300  0.23660  0.74740  Biso   1.000  H
  C15      1.0000 0.14330  0.41730  0.82220  Biso   1.000  C
  C16      1.0000 0.05160  0.40730  0.82610  Biso   1.000  C
  C17      1.0000 0.00980  0.51810  0.85920  Biso   1.000  C
  H9       1.0000 0.03860  0.59520  0.88240  Biso   1.000  H
  C18      1.0000 0.92140  0.51000  0.85660  Biso   1.000  C
  H10      1.0000 0.89220  0.58350  0.87780  Biso   1.000  H
  C19      1.0000 0.87970  0.39520  0.82330  Biso   1.000  C
  C20      1.0000 0.92160  0.28860  0.79260  Biso   1.000  C
  H11      1.0000 0.89260  0.20990  0.77070  Biso   1.000  H
  C21      1.0000 0.00790  0.29330  0.79290  Biso   1.000  C
  H12      1.0000 0.03560  0.21930  0.77070  Biso   1.000  H
  Dy2      1.0000 0.25728  0.72225  0.78731  Biso   1.000  Dy
  O7       1.0000 0.37240  0.85810  0.83730  Biso   1.000  O
  O8       1.0000 0.13260  0.82260  0.75120  Biso   1.000  O
  O9       1.0000 0.32070  0.03960  0.66110  Biso   1.000  O
  O10      1.0000 0.32150  0.80150  0.69900  Biso   1.000  O
  O11      1.0000 0.13790  0.04730  0.70060  Biso   1.000  O
  O12      1.0000 0.28710  0.03550  0.79460  Biso   1.000  O
  N4       1.0000 0.51480  0.43420  0.00050  Biso   1.000  N
  N5       1.0000 0.74430  0.95800  0.65890  Biso   1.000  N
  N6       1.0000 0.71620  0.86090  0.68910  Biso   1.000  N
  C22      1.0000 0.34720  0.99480  0.83460  Biso   1.000  C
  C23      1.0000 0.38900  0.11040  0.87950  Biso   1.000  C
  C24      1.0000 0.35120  0.25090  0.89020  Biso   1.000  C
  H13      1.0000 0.29920  0.27180  0.86990  Biso   1.000  H
  C25      1.0000 0.38970  0.35900  0.93020  Biso   1.000  C
  H14      1.0000 0.36420  0.45280  0.93660  Biso   1.000  H
  C26      1.0000 0.46780  0.32640  0.96130  Biso   1.000  C
  C27      1.0000 0.50450  0.18240  0.95270  Biso   1.000  C
  H15      1.0000 0.55570  0.15980  0.97420  Biso   1.000  H
  C28      1.0000 0.46510  0.07470  0.91280  Biso   1.000  C
  H16      1.0000 0.48900  0.97870  0.90790  Biso   1.000  H
  C29      1.0000 0.10010  0.93390  0.71930  Biso   1.000  C
  C30      1.0000 0.00780  0.92600  0.70260  Biso   1.000  C
  C31      1.0000 0.96910  0.03880  0.66290  Biso   1.000  C
  H17      1.0000 0.00080  0.11460  0.64540  Biso   1.000  H
  C32      1.0000 0.88350  0.03850  0.64940  Biso   1.000  C
  H18      1.0000 0.85800  0.11210  0.62220  Biso   1.000  H
  C33      1.0000 0.83820  0.92990  0.67620  Biso   1.000  C
  C34      1.0000 0.87420  0.81250  0.71400  Biso   1.000  C
  H19      1.0000 0.84200  0.73560  0.73020  Biso   1.000  H
  C35      1.0000 0.96140  0.81330  0.72710  Biso   1.000  C
  H20      1.0000 0.98700  0.73660  0.75260  Biso   1.000  H
  C36      1.0000 0.35670  0.91730  0.67780  Biso   1.000  C
  C37      1.0000 0.44840  0.90730  0.67390  Biso   1.000  C
  C38      1.0000 0.49020  0.01810  0.64080  Biso   1.000  C
  H21      1.0000 0.46140  0.09520  0.61760  Biso   1.000  H
  C39      1.0000 0.57860  0.01000  0.64340  Biso   1.000  C
  H22      1.0000 0.60780  0.08350  0.62220  Biso   1.000  H
  C40      1.0000 0.62030  0.89520  0.67670  Biso   1.000  C
  C41      1.0000 0.57840  0.78860  0.70740  Biso   1.000  C
  H23      1.0000 0.60740  0.70990  0.72930  Biso   1.000  H
  C42      1.0000 0.49210  0.79330  0.70710  Biso   1.000  C
  H24      1.0000 0.46440  0.71930  0.72930  Biso   1.000  H
  Dy3      1.0000 0.75728  0.77775  0.28731  Biso   1.000  Dy
  O13      1.0000 0.87240  0.64190  0.33730  Biso   1.000  O
  O14      1.0000 0.63260  0.67740  0.25120  Biso   1.000  O
  O15      1.0000 0.82070  0.46040  0.16110  Biso   1.000  O
  O16      1.0000 0.82150  0.69850  0.19900  Biso   1.000  O
  O17      1.0000 0.63790  0.45270  0.20060  Biso   1.000  O
  O18      1.0000 0.78710  0.46450  0.29460  Biso   1.000  O
  N7       1.0000 0.01480  0.06580  0.50050  Biso   1.000  N
  N8       1.0000 0.24430  0.54200  0.15890  Biso   1.000  N
  N9       1.0000 0.21620  0.63910  0.18910  Biso   1.000  N
  C43      1.0000 0.84720  0.50520  0.33460  Biso   1.000  C
  C44      1.0000 0.88900  0.38960  0.37950  Biso   1.000  C
  C45      1.0000 0.85120  0.24910  0.39020  Biso   1.000  C
  H25      1.0000 0.79920  0.22820  0.36990  Biso   1.000  H
  C46      1.0000 0.88970  0.14100  0.43020  Biso   1.000  C
  H26      1.0000 0.86420  0.04720  0.43660  Biso   1.000  H
  C47      1.0000 0.96780  0.17360  0.46130  Biso   1.000  C
  C48      1.0000 0.00450  0.31760  0.45270  Biso   1.000  C
  H27      1.0000 0.05570  0.34020  0.47420  Biso   1.000  H
  C49      1.0000 0.96510  0.42530  0.41280  Biso   1.000  C
  H28      1.0000 0.98900  0.52130  0.40790  Biso   1.000  H
  C50      1.0000 0.60010  0.56610  0.21930  Biso   1.000  C
  C51      1.0000 0.50780  0.57400  0.20260  Biso   1.000  C
  C52      1.0000 0.46910  0.46120  0.16290  Biso   1.000  C
  H29      1.0000 0.50080  0.38540  0.14540  Biso   1.000  H
  C53      1.0000 0.38350  0.46150  0.14940  Biso   1.000  C
  H30      1.0000 0.35800  0.38790  0.12220  Biso   1.000  H
  C54      1.0000 0.33820  0.57010  0.17620  Biso   1.000  C
  C55      1.0000 0.37420  0.68750  0.21400  Biso   1.000  C
  H31      1.0000 0.34200  0.76440  0.23020  Biso   1.000  H
  C56      1.0000 0.46140  0.68670  0.22710  Biso   1.000  C
  H32      1.0000 0.48700  0.76340  0.25260  Biso   1.000  H
  C57      1.0000 0.85670  0.58270  0.17780  Biso   1.000  C
  C58      1.0000 0.94840  0.59270  0.17390  Biso   1.000  C
  C59      1.0000 0.99020  0.48190  0.14080  Biso   1.000  C
  H33      1.0000 0.96140  0.40480  0.11760  Biso   1.000  H
  C60      1.0000 0.07860  0.49000  0.14340  Biso   1.000  C
  H34      1.0000 0.10780  0.41650  0.12220  Biso   1.000  H
  C61      1.0000 0.12030  0.60480  0.17670  Biso   1.000  C
  C62      1.0000 0.07840  0.71140  0.20740  Biso   1.000  C
  H35      1.0000 0.10740  0.79010  0.22930  Biso   1.000  H
  C63      1.0000 0.99210  0.70670  0.20710  Biso   1.000  C
  H36      1.0000 0.96440  0.78070  0.22930  Biso   1.000  H
  Dy4      1.0000 0.74272  0.27775  0.21269  Biso   1.000  Dy
  O19      1.0000 0.62760  0.14190  0.16270  Biso   1.000  O
  O20      1.0000 0.86740  0.17740  0.24880  Biso   1.000  O
  O21      1.0000 0.67930  0.96040  0.33890  Biso   1.000  O
  O22      1.0000 0.67850  0.19850  0.30100  Biso   1.000  O
  O23      1.0000 0.86210  0.95270  0.29940  Biso   1.000  O
  O24      1.0000 0.71290  0.96450  0.20540  Biso   1.000  O
  N10      1.0000 0.48520  0.56580  0.99950  Biso   1.000  N
  N11      1.0000 0.25570  0.04200  0.34110  Biso   1.000  N
  N12      1.0000 0.28380  0.13910  0.31090  Biso   1.000  N
  C64      1.0000 0.65280  0.00520  0.16540  Biso   1.000  C
  C65      1.0000 0.61100  0.88960  0.12050  Biso   1.000  C
  C66      1.0000 0.64880  0.74910  0.10980  Biso   1.000  C
  H37      1.0000 0.70080  0.72820  0.13010  Biso   1.000  H
  C67      1.0000 0.61030  0.64100  0.06980  Biso   1.000  C
  H38      1.0000 0.63580  0.54720  0.06340  Biso   1.000  H
  C68      1.0000 0.53220  0.67360  0.03870  Biso   1.000  C
  C69      1.0000 0.49550  0.81760  0.04730  Biso   1.000  C
  H39      1.0000 0.44430  0.84020  0.02580  Biso   1.000  H
  C70      1.0000 0.53490  0.92530  0.08720  Biso   1.000  C
  H40      1.0000 0.51100  0.02130  0.09210  Biso   1.000  H
  C71      1.0000 0.89990  0.06610  0.28070  Biso   1.000  C
  C72      1.0000 0.99220  0.07400  0.29740  Biso   1.000  C
  C73      1.0000 0.03090  0.96120  0.33710  Biso   1.000  C
  H41      1.0000 0.99920  0.88540  0.35460  Biso   1.000  H
  C74      1.0000 0.11650  0.96150  0.35060  Biso   1.000  C
  H42      1.0000 0.14200  0.88790  0.37780  Biso   1.000  H
  C75      1.0000 0.16180  0.07010  0.32380  Biso   1.000  C
  C76      1.0000 0.12580  0.18750  0.28600  Biso   1.000  C
  H43      1.0000 0.15800  0.26440  0.26980  Biso   1.000  H
  C77      1.0000 0.03860  0.18670  0.27290  Biso   1.000  C
  H44      1.0000 0.01300  0.26340  0.24740  Biso   1.000  H
  C78      1.0000 0.64330  0.08270  0.32220  Biso   1.000  C
  C79      1.0000 0.55160  0.09270  0.32610  Biso   1.000  C
  C80      1.0000 0.50980  0.98190  0.35920  Biso   1.000  C
  H45      1.0000 0.53860  0.90480  0.38240  Biso   1.000  H
  C81      1.0000 0.42140  0.99000  0.35660  Biso   1.000  C
  H46      1.0000 0.39220  0.91650  0.37780  Biso   1.000  H
  C82      1.0000 0.37970  0.10480  0.32330  Biso   1.000  C
  C83      1.0000 0.42160  0.21140  0.29260  Biso   1.000  C
  H47      1.0000 0.39260  0.29010  0.27070  Biso   1.000  H
  C84      1.0000 0.50790  0.20670  0.29290  Biso   1.000  C
  H48      1.0000 0.53560  0.28070  0.27070  Biso   1.000  H
