data_image0
_cell_length_a       16.2538
_cell_length_b       8.7093
_cell_length_c       20.8595
_cell_angle_alpha    90
_cell_angle_beta     94.891
_cell_angle_gamma    90

_symmetry_space_group_name_H-M    "P 1"
_symmetry_int_tables_number       1

loop_
  _symmetry_equiv_pos_as_xyz
  'x, y, z'

loop_
  _atom_site_label
  _atom_site_occupancy
  _atom_site_fract_x
  _atom_site_fract_y
  _atom_site_fract_z
  _atom_site_thermal_displace_type
  _atom_site_B_iso_or_equiv
  _atom_site_type_symbol
  Tb1      1.0000 0.24239  0.22123  0.71242  Biso   1.000  Tb
  O1       1.0000 0.12590  0.35730  0.66220  Biso   1.000  O
  O2       1.0000 0.36930  0.32010  0.74840  Biso   1.000  O
  O3       1.0000 0.17920  0.53840  0.83950  Biso   1.000  O
  O4       1.0000 0.17840  0.29970  0.80160  Biso   1.000  O
  O5       1.0000 0.36320  0.54390  0.79890  Biso   1.000  O
  O6       1.0000 0.21200  0.53300  0.70467  Biso   1.000  O
  N1       1.0000 0.98520  0.93410  0.49910  Biso   1.000  N
  N2       1.0000 0.75480  0.45780  0.84020  Biso   1.000  N
  N3       1.0000 0.78560  0.36050  0.81210  Biso   1.000  N
  C1       1.0000 0.15170  0.49250  0.66570  Biso   1.000  C
  C2       1.0000 0.11060  0.60890  0.62050  Biso   1.000  C
  C3       1.0000 0.14870  0.74900  0.61040  Biso   1.000  C
  H1       1.0000 0.20060  0.76970  0.63090  Biso   1.000  H
  C4       1.0000 0.10960  0.85760  0.56980  Biso   1.000  C
  H2       1.0000 0.13540  0.95080  0.56320  Biso   1.000  H
  C5       1.0000 0.03210  0.82770  0.53910  Biso   1.000  C
  C6       1.0000 0.99610  0.68450  0.54680  Biso   1.000  C
  H3       1.0000 0.94540  0.66230  0.52470  Biso   1.000  H
  C7       1.0000 0.03440  0.57550  0.58670  Biso   1.000  C
  H4       1.0000 0.00990  0.48000  0.59110  Biso   1.000  H
  C8       1.0000 0.40140  0.43120  0.77980  Biso   1.000  C
  C9       1.0000 0.49310  0.42630  0.79660  Biso   1.000  C
  C10      1.0000 0.53190  0.53790  0.83670  Biso   1.000  C
  H5       1.0000 0.49990  0.61260  0.85450  Biso   1.000  H
  C11      1.0000 0.61600  0.54030  0.85060  Biso   1.000  C
  H6       1.0000 0.64070  0.61550  0.87740  Biso   1.000  H
  C12      1.0000 0.66260  0.42980  0.82410  Biso   1.000  C
  C13      1.0000 0.62600  0.31220  0.78580  Biso   1.000  C
  H7       1.0000 0.65820  0.23600  0.76920  Biso   1.000  H
  C14      1.0000 0.53970  0.31150  0.77290  Biso   1.000  C
  H8       1.0000 0.51420  0.23320  0.74830  Biso   1.000  H
  C15      1.0000 0.14330  0.41490  0.82240  Biso   1.000  C
  C16      1.0000 0.05090  0.40710  0.82620  Biso   1.000  C
  C17      1.0000 0.00920  0.51610  0.85880  Biso   1.000  C
  H9       1.0000 0.03780  0.59430  0.88150  Biso   1.000  H
  C18      1.0000 0.92230  0.50690  0.85730  Biso   1.000  C
  H10      1.0000 0.89360  0.57900  0.87960  Biso   1.000  H
  C19      1.0000 0.88000  0.39400  0.82370  Biso   1.000  C
  C20      1.0000 0.92180  0.28600  0.79270  Biso   1.000  C
  H11      1.0000 0.89250  0.20820  0.77040  Biso   1.000  H
  C21      1.0000 0.00740  0.28880  0.79350  Biso   1.000  C
  H12      1.0000 0.03530  0.21300  0.77250  Biso   1.000  H
  Tb2      1.0000 0.25761  0.72123  0.78758  Biso   1.000  Tb
  O7       1.0000 0.37410  0.85730  0.83780  Biso   1.000  O
  O8       1.0000 0.13070  0.82010  0.75160  Biso   1.000  O
  O9       1.0000 0.32080  0.03840  0.66050  Biso   1.000  O
  O10      1.0000 0.32160  0.79970  0.69840  Biso   1.000  O
  O11      1.0000 0.13680  0.04390  0.70110  Biso   1.000  O
  O12      1.0000 0.28800  0.03300  0.79533  Biso   1.000  O
  N4       1.0000 0.51480  0.43410  0.00090  Biso   1.000  N
  N5       1.0000 0.74520  0.95780  0.65980  Biso   1.000  N
  N6       1.0000 0.71440  0.86050  0.68790  Biso   1.000  N
  C22      1.0000 0.34830  0.99250  0.83430  Biso   1.000  C
  C23      1.0000 0.38940  0.10890  0.87950  Biso   1.000  C
  C24      1.0000 0.35130  0.24900  0.88960  Biso   1.000  C
  H13      1.0000 0.29940  0.26970  0.86910  Biso   1.000  H
  C25      1.0000 0.39040  0.35760  0.93020  Biso   1.000  C
  H14      1.0000 0.36460  0.45080  0.93680  Biso   1.000  H
  C26      1.0000 0.46790  0.32770  0.96090  Biso   1.000  C
  C27      1.0000 0.50390  0.18450  0.95320  Biso   1.000  C
  H15      1.0000 0.55460  0.16230  0.97530  Biso   1.000  H
  C28      1.0000 0.46560  0.07550  0.91330  Biso   1.000  C
  H16      1.0000 0.49010  0.98000  0.90890  Biso   1.000  H
  C29      1.0000 0.09860  0.93120  0.72020  Biso   1.000  C
  C30      1.0000 0.00690  0.92630  0.70340  Biso   1.000  C
  C31      1.0000 0.96810  0.03790  0.66330  Biso   1.000  C
  H17      1.0000 0.00010  0.11260  0.64550  Biso   1.000  H
  C32      1.0000 0.88400  0.04030  0.64940  Biso   1.000  C
  H18      1.0000 0.85930  0.11550  0.62260  Biso   1.000  H
  C33      1.0000 0.83740  0.92980  0.67590  Biso   1.000  C
  C34      1.0000 0.87400  0.81220  0.71420  Biso   1.000  C
  H19      1.0000 0.84180  0.73600  0.73080  Biso   1.000  H
  C35      1.0000 0.96030  0.81150  0.72710  Biso   1.000  C
  H20      1.0000 0.98580  0.73320  0.75170  Biso   1.000  H
  C36      1.0000 0.35670  0.91490  0.67760  Biso   1.000  C
  C37      1.0000 0.44910  0.90710  0.67380  Biso   1.000  C
  C38      1.0000 0.49080  0.01610  0.64120  Biso   1.000  C
  H21      1.0000 0.46220  0.09430  0.61850  Biso   1.000  H
  C39      1.0000 0.57770  0.00690  0.64270  Biso   1.000  C
  H22      1.0000 0.60640  0.07900  0.62040  Biso   1.000  H
  C40      1.0000 0.62000  0.89400  0.67630  Biso   1.000  C
  C41      1.0000 0.57820  0.78600  0.70730  Biso   1.000  C
  H23      1.0000 0.60750  0.70820  0.72960  Biso   1.000  H
  C42      1.0000 0.49260  0.78880  0.70650  Biso   1.000  C
  H24      1.0000 0.46470  0.71300  0.72750  Biso   1.000  H
  Tb3      1.0000 0.75761  0.77877  0.28758  Biso   1.000  Tb
  O13      1.0000 0.87410  0.64270  0.33780  Biso   1.000  O
  O14      1.0000 0.63070  0.67990  0.25160  Biso   1.000  O
  O15      1.0000 0.82080  0.46160  0.16050  Biso   1.000  O
  O16      1.0000 0.82160  0.70030  0.19840  Biso   1.000  O
  O17      1.0000 0.63680  0.45610  0.20110  Biso   1.000  O
  O18      1.0000 0.78800  0.46700  0.29533  Biso   1.000  O
  N7       1.0000 0.01480  0.06590  0.50090  Biso   1.000  N
  N8       1.0000 0.24520  0.54220  0.15980  Biso   1.000  N
  N9       1.0000 0.21440  0.63950  0.18790  Biso   1.000  N
  C43      1.0000 0.84830  0.50750  0.33430  Biso   1.000  C
  C44      1.0000 0.88940  0.39110  0.37950  Biso   1.000  C
  C45      1.0000 0.85130  0.25100  0.38960  Biso   1.000  C
  H25      1.0000 0.79940  0.23030  0.36910  Biso   1.000  H
  C46      1.0000 0.89040  0.14240  0.43020  Biso   1.000  C
  H26      1.0000 0.86460  0.04920  0.43680  Biso   1.000  H
  C47      1.0000 0.96790  0.17230  0.46090  Biso   1.000  C
  C48      1.0000 0.00390  0.31550  0.45320  Biso   1.000  C
  H27      1.0000 0.05460  0.33770  0.47530  Biso   1.000  H
  C49      1.0000 0.96560  0.42450  0.41330  Biso   1.000  C
  H28      1.0000 0.99010  0.52000  0.40890  Biso   1.000  H
  C50      1.0000 0.59860  0.56880  0.22020  Biso   1.000  C
  C51      1.0000 0.50690  0.57370  0.20340  Biso   1.000  C
  C52      1.0000 0.46810  0.46210  0.16330  Biso   1.000  C
  H29      1.0000 0.50010  0.38740  0.14550  Biso   1.000  H
  C53      1.0000 0.38400  0.45970  0.14940  Biso   1.000  C
  H30      1.0000 0.35930  0.38450  0.12260  Biso   1.000  H
  C54      1.0000 0.33740  0.57020  0.17590  Biso   1.000  C
  C55      1.0000 0.37400  0.68780  0.21420  Biso   1.000  C
  H31      1.0000 0.34180  0.76400  0.23080  Biso   1.000  H
  C56      1.0000 0.46030  0.68850  0.22710  Biso   1.000  C
  H32      1.0000 0.48580  0.76680  0.25170  Biso   1.000  H
  C57      1.0000 0.85670  0.58510  0.17760  Biso   1.000  C
  C58      1.0000 0.94910  0.59290  0.17380  Biso   1.000  C
  C59      1.0000 0.99080  0.48390  0.14120  Biso   1.000  C
  H33      1.0000 0.96220  0.40570  0.11850  Biso   1.000  H
  C60      1.0000 0.07770  0.49310  0.14270  Biso   1.000  C
  H34      1.0000 0.10640  0.42100  0.12040  Biso   1.000  H
  C61      1.0000 0.12000  0.60600  0.17630  Biso   1.000  C
  C62      1.0000 0.07820  0.71400  0.20730  Biso   1.000  C
  H35      1.0000 0.10750  0.79180  0.22960  Biso   1.000  H
  C63      1.0000 0.99260  0.71120  0.20650  Biso   1.000  C
  H36      1.0000 0.96470  0.78700  0.22750  Biso   1.000  H
  Tb4      1.0000 0.74239  0.27877  0.21242  Biso   1.000  Tb
  O19      1.0000 0.62590  0.14270  0.16220  Biso   1.000  O
  O20      1.0000 0.86930  0.17990  0.24840  Biso   1.000  O
  O21      1.0000 0.67920  0.96160  0.33950  Biso   1.000  O
  O22      1.0000 0.67840  0.20030  0.30160  Biso   1.000  O
  O23      1.0000 0.86320  0.95610  0.29890  Biso   1.000  O
  O24      1.0000 0.71200  0.96700  0.20467  Biso   1.000  O
  N10      1.0000 0.48520  0.56590  0.99910  Biso   1.000  N
  N11      1.0000 0.25480  0.04220  0.34020  Biso   1.000  N
  N12      1.0000 0.28560  0.13950  0.31210  Biso   1.000  N
  C64      1.0000 0.65170  0.00750  0.16570  Biso   1.000  C
  C65      1.0000 0.61060  0.89110  0.12050  Biso   1.000  C
  C66      1.0000 0.64870  0.75100  0.11040  Biso   1.000  C
  H37      1.0000 0.70060  0.73030  0.13090  Biso   1.000  H
  C67      1.0000 0.60960  0.64240  0.06980  Biso   1.000  C
  H38      1.0000 0.63540  0.54920  0.06320  Biso   1.000  H
  C68      1.0000 0.53210  0.67230  0.03910  Biso   1.000  C
  C69      1.0000 0.49610  0.81550  0.04680  Biso   1.000  C
  H39      1.0000 0.44540  0.83770  0.02470  Biso   1.000  H
  C70      1.0000 0.53440  0.92450  0.08670  Biso   1.000  C
  H40      1.0000 0.50990  0.02000  0.09110  Biso   1.000  H
  C71      1.0000 0.90140  0.06880  0.27980  Biso   1.000  C
  C72      1.0000 0.99310  0.07370  0.29660  Biso   1.000  C
  C73      1.0000 0.03190  0.96210  0.33670  Biso   1.000  C
  H41      1.0000 0.99990  0.88740  0.35450  Biso   1.000  H
  C74      1.0000 0.11600  0.95970  0.35060  Biso   1.000  C
  H42      1.0000 0.14070  0.88450  0.37740  Biso   1.000  H
  C75      1.0000 0.16260  0.07020  0.32410  Biso   1.000  C
  C76      1.0000 0.12600  0.18780  0.28580  Biso   1.000  C
  H43      1.0000 0.15820  0.26400  0.26920  Biso   1.000  H
  C77      1.0000 0.03970  0.18850  0.27290  Biso   1.000  C
  H44      1.0000 0.01420  0.26680  0.24830  Biso   1.000  H
  C78      1.0000 0.64330  0.08510  0.32240  Biso   1.000  C
  C79      1.0000 0.55090  0.09290  0.32620  Biso   1.000  C
  C80      1.0000 0.50920  0.98390  0.35880  Biso   1.000  C
  H45      1.0000 0.53780  0.90570  0.38150  Biso   1.000  H
  C81      1.0000 0.42230  0.99310  0.35730  Biso   1.000  C
  H46      1.0000 0.39360  0.92100  0.37960  Biso   1.000  H
  C82      1.0000 0.38000  0.10600  0.32370  Biso   1.000  C
  C83      1.0000 0.42180  0.21400  0.29270  Biso   1.000  C
  H47      1.0000 0.39250  0.29180  0.27040  Biso   1.000  H
  C84      1.0000 0.50740  0.21120  0.29350  Biso   1.000  C
  H48      1.0000 0.53530  0.28700  0.27250  Biso   1.000  H
